MODEL 1
REMARK VINA RESULT:      -8.9      0.000      0.000
REMARK  Name = 
REMARK  7 active torsions:
REMARK  status: ('A' for Active; 'I' for Inactive)
REMARK    1  A    between atoms: C_2  and  C_3
REMARK    2  A    between atoms: C_3  and  N_4
REMARK    3  A    between atoms: N_4  and  C_5
REMARK    4  A    between atoms: C_10  and  C_11
REMARK    5  A    between atoms: C_11  and  C_12
REMARK    6  A    between atoms: N_18  and  C_19
REMARK    7  A    between atoms: C_22  and  N_23
REMARK                            x       y       z     vdW  Elec       q    Type
REMARK                         _______ _______ _______ _____ _____    ______ ____
ROOT
ATOM      1  O   UNL     1       1.955   4.673  17.858  0.00  0.00    +0.000 OA
ATOM      2  C   UNL     1       2.888   4.821  18.645  0.00  0.00    +0.000 C 
ATOM      3  N   UNL     1       3.219   6.005  19.290  0.00  0.00    +0.000 N 
ATOM      4  H   UNL     1       4.134   6.053  19.717  0.00  0.00    +0.000 HD
ENDROOT
BRANCH   3   5
ATOM      5  C   UNL     1       2.475   7.203  19.250  0.00  0.00    +0.000 A 
ATOM      6  C   UNL     1       1.812   7.738  20.351  0.00  0.00    +0.000 A 
ATOM      7  C   UNL     1       1.040   8.904  20.230  0.00  0.00    +0.000 A 
ATOM      8  C   UNL     1       0.891   9.553  19.002  0.00  0.00    +0.000 A 
ATOM      9  C   UNL     1       1.610   9.038  17.913  0.00  0.00    +0.000 A 
ATOM     10  C   UNL     1       2.408   7.891  18.038  0.00  0.00    +0.000 A 
BRANCH   8  11
ATOM     11  N   UNL     1       0.021  10.669  18.844  0.00  0.00    +0.000 N 
ATOM     12  C   UNL     1       0.420  12.011  19.202  0.00  0.00    +0.000 C 
ATOM     13  C   UNL     1      -0.845  12.832  19.079  0.00  0.00    +0.000 C 
ATOM     14  C   UNL     1      -1.626  12.125  17.991  0.00  0.00    +0.000 C 
ATOM     15  C   UNL     1      -1.179  10.687  18.116  0.00  0.00    +0.000 C 
ATOM     16  O   UNL     1      -1.797   9.761  17.614  0.00  0.00    +0.000 OA
ENDBRANCH   8  11
ENDBRANCH   3   5
BRANCH   2  17
ATOM     17  C   UNL     1       3.794   3.647  19.027  0.00  0.00    +0.000 C 
BRANCH  17  18
ATOM     18  N   UNL     1       4.936   3.481  18.105  0.00  0.00    +0.000 N 
ATOM     19  H   UNL     1       4.660   3.242  17.155  0.00  0.00    +0.000 HD
BRANCH  18  20
ATOM     20  C   UNL     1       5.839   4.568  18.078  0.00  0.00    +0.000 A 
ATOM     21  C   UNL     1       6.582   4.930  19.218  0.00  0.00    +0.000 A 
ATOM     22  C   UNL     1       7.568   5.915  19.170  0.00  0.00    +0.000 A 
ATOM     23  C   UNL     1       7.817   6.578  17.979  0.00  0.00    +0.000 A 
ATOM     24  C   UNL     1       7.023   6.311  16.868  0.00  0.00    +0.000 A 
ATOM     25  C   UNL     1       5.988   5.353  16.916  0.00  0.00    +0.000 A 
BRANCH  25  26
ATOM     26  C   UNL     1       5.069   5.242  15.711  0.00  0.00    +0.000 C 
BRANCH  26  27
ATOM     27  C   UNL     1       5.772   4.752  14.452  0.00  0.00    +0.000 A 
ATOM     28  C   UNL     1       5.159   3.834  13.582  0.00  0.00    +0.000 A 
ATOM     29  C   UNL     1       5.822   3.369  12.442  0.00  0.00    +0.000 A 
ATOM     30  C   UNL     1       7.098   3.830  12.143  0.00  0.00    +0.000 A 
ATOM     31  C   UNL     1       7.708   4.766  12.977  0.00  0.00    +0.000 A 
ATOM     32  C   UNL     1       7.049   5.227  14.122  0.00  0.00    +0.000 A 
ENDBRANCH  26  27
ENDBRANCH  25  26
ENDBRANCH  18  20
ENDBRANCH  17  18
ENDBRANCH   2  17
TORSDOF 7
ENDMDL
MODEL 2
REMARK VINA RESULT:      -8.9      2.991      4.707
REMARK  Name = 
REMARK  7 active torsions:
REMARK  status: ('A' for Active; 'I' for Inactive)
REMARK    1  A    between atoms: C_2  and  C_3
REMARK    2  A    between atoms: C_3  and  N_4
REMARK    3  A    between atoms: N_4  and  C_5
REMARK    4  A    between atoms: C_10  and  C_11
REMARK    5  A    between atoms: C_11  and  C_12
REMARK    6  A    between atoms: N_18  and  C_19
REMARK    7  A    between atoms: C_22  and  N_23
REMARK                            x       y       z     vdW  Elec       q    Type
REMARK                         _______ _______ _______ _____ _____    ______ ____
ROOT
ATOM      1  O   UNL     1       1.938   9.259  18.365  0.00  0.00    +0.000 OA
ATOM      2  C   UNL     1       1.953   8.296  19.130  0.00  0.00    +0.000 C 
ATOM      3  N   UNL     1       1.353   8.250  20.381  0.00  0.00    +0.000 N 
ATOM      4  H   UNL     1       1.638   7.501  20.997  0.00  0.00    +0.000 HD
ENDROOT
BRANCH   3   5
ATOM      5  C   UNL     1       0.523   9.247  20.936  0.00  0.00    +0.000 A 
ATOM      6  C   UNL     1      -0.111  10.232  20.183  0.00  0.00    +0.000 A 
ATOM      7  C   UNL     1      -0.877  11.230  20.804  0.00  0.00    +0.000 A 
ATOM      8  C   UNL     1      -1.012  11.285  22.193  0.00  0.00    +0.000 A 
ATOM      9  C   UNL     1      -0.417  10.255  22.937  0.00  0.00    +0.000 A 
ATOM     10  C   UNL     1       0.324   9.237  22.316  0.00  0.00    +0.000 A 
BRANCH   8  11
ATOM     11  N   UNL     1      -1.691  12.356  22.839  0.00  0.00    +0.000 N 
ATOM     12  C   UNL     1      -2.997  12.190  23.436  0.00  0.00    +0.000 C 
ATOM     13  C   UNL     1      -3.429  13.591  23.810  0.00  0.00    +0.000 C 
ATOM     14  C   UNL     1      -2.123  14.303  24.100  0.00  0.00    +0.000 C 
ATOM     15  C   UNL     1      -1.130  13.588  23.213  0.00  0.00    +0.000 C 
ATOM     16  O   UNL     1      -0.036  14.057  22.942  0.00  0.00    +0.000 OA
ENDBRANCH   8  11
ENDBRANCH   3   5
BRANCH   2  17
ATOM     17  C   UNL     1       2.645   6.988  18.738  0.00  0.00    +0.000 C 
BRANCH  17  18
ATOM     18  N   UNL     1       3.052   6.182  19.906  0.00  0.00    +0.000 N 
ATOM     19  H   UNL     1       2.760   6.580  20.796  0.00  0.00    +0.000 HD
BRANCH  18  20
ATOM     20  C   UNL     1       2.673   4.820  19.848  0.00  0.00    +0.000 A 
ATOM     21  C   UNL     1       1.376   4.407  20.209  0.00  0.00    +0.000 A 
ATOM     22  C   UNL     1       0.951   3.090  20.035  0.00  0.00    +0.000 A 
ATOM     23  C   UNL     1       1.826   2.150  19.514  0.00  0.00    +0.000 A 
ATOM     24  C   UNL     1       3.143   2.513  19.250  0.00  0.00    +0.000 A 
ATOM     25  C   UNL     1       3.601   3.829  19.470  0.00  0.00    +0.000 A 
BRANCH  25  26
ATOM     26  C   UNL     1       5.089   4.097  19.310  0.00  0.00    +0.000 C 
BRANCH  26  27
ATOM     27  C   UNL     1       5.515   4.326  17.866  0.00  0.00    +0.000 A 
ATOM     28  C   UNL     1       4.578   4.337  16.819  0.00  0.00    +0.000 A 
ATOM     29  C   UNL     1       4.981   4.522  15.492  0.00  0.00    +0.000 A 
ATOM     30  C   UNL     1       6.323   4.721  15.196  0.00  0.00    +0.000 A 
ATOM     31  C   UNL     1       7.263   4.747  16.226  0.00  0.00    +0.000 A 
ATOM     32  C   UNL     1       6.862   4.554  17.552  0.00  0.00    +0.000 A 
ENDBRANCH  26  27
ENDBRANCH  25  26
ENDBRANCH  18  20
ENDBRANCH  17  18
ENDBRANCH   2  17
TORSDOF 7
ENDMDL
MODEL 3
REMARK VINA RESULT:      -8.8      3.275      5.050
REMARK  Name = 
REMARK  7 active torsions:
REMARK  status: ('A' for Active; 'I' for Inactive)
REMARK    1  A    between atoms: C_2  and  C_3
REMARK    2  A    between atoms: C_3  and  N_4
REMARK    3  A    between atoms: N_4  and  C_5
REMARK    4  A    between atoms: C_10  and  C_11
REMARK    5  A    between atoms: C_11  and  C_12
REMARK    6  A    between atoms: N_18  and  C_19
REMARK    7  A    between atoms: C_22  and  N_23
REMARK                            x       y       z     vdW  Elec       q    Type
REMARK                         _______ _______ _______ _____ _____    ______ ____
ROOT
ATOM      1  O   UNL     1       0.870   9.434  18.769  0.00  0.00    +0.000 OA
ATOM      2  C   UNL     1       1.408   8.764  19.649  0.00  0.00    +0.000 C 
ATOM      3  N   UNL     1       1.307   8.997  21.014  0.00  0.00    +0.000 N 
ATOM      4  H   UNL     1       1.978   8.529  21.608  0.00  0.00    +0.000 HD
ENDROOT
BRANCH   3   5
ATOM      5  C   UNL     1       0.478   9.958  21.629  0.00  0.00    +0.000 A 
ATOM      6  C   UNL     1      -0.365   9.679  22.702  0.00  0.00    +0.000 A 
ATOM      7  C   UNL     1      -1.208  10.668  23.230  0.00  0.00    +0.000 A 
ATOM      8  C   UNL     1      -1.250  11.955  22.688  0.00  0.00    +0.000 A 
ATOM      9  C   UNL     1      -0.355  12.241  21.646  0.00  0.00    +0.000 A 
ATOM     10  C   UNL     1       0.512  11.262  21.136  0.00  0.00    +0.000 A 
BRANCH   8  11
ATOM     11  N   UNL     1      -2.181  12.930  23.142  0.00  0.00    +0.000 N 
ATOM     12  C   UNL     1      -3.608  12.703  23.113  0.00  0.00    +0.000 C 
ATOM     13  C   UNL     1      -4.217  14.041  23.473  0.00  0.00    +0.000 C 
ATOM     14  C   UNL     1      -3.181  14.674  24.377  0.00  0.00    +0.000 C 
ATOM     15  C   UNL     1      -1.879  14.081  23.889  0.00  0.00    +0.000 C 
ATOM     16  O   UNL     1      -0.792  14.563  24.167  0.00  0.00    +0.000 OA
ENDBRANCH   8  11
ENDBRANCH   3   5
BRANCH   2  17
ATOM     17  C   UNL     1       2.254   7.536  19.302  0.00  0.00    +0.000 C 
BRANCH  17  18
ATOM     18  N   UNL     1       2.457   6.635  20.454  0.00  0.00    +0.000 N 
ATOM     19  H   UNL     1       1.850   6.842  21.244  0.00  0.00    +0.000 HD
BRANCH  18  20
ATOM     20  C   UNL     1       2.384   5.256  20.148  0.00  0.00    +0.000 A 
ATOM     21  C   UNL     1       1.236   4.500  20.455  0.00  0.00    +0.000 A 
ATOM     22  C   UNL     1       1.100   3.174  20.045  0.00  0.00    +0.000 A 
ATOM     23  C   UNL     1       2.123   2.567  19.335  0.00  0.00    +0.000 A 
ATOM     24  C   UNL     1       3.308   3.263  19.112  0.00  0.00    +0.000 A 
ATOM     25  C   UNL     1       3.480   4.588  19.566  0.00  0.00    +0.000 A 
BRANCH  25  26
ATOM     26  C   UNL     1       4.858   5.212  19.423  0.00  0.00    +0.000 C 
BRANCH  26  27
ATOM     27  C   UNL     1       5.375   5.227  17.991  0.00  0.00    +0.000 A 
ATOM     28  C   UNL     1       4.705   5.935  16.978  0.00  0.00    +0.000 A 
ATOM     29  C   UNL     1       5.172   5.922  15.659  0.00  0.00    +0.000 A 
ATOM     30  C   UNL     1       6.326   5.219  15.339  0.00  0.00    +0.000 A 
ATOM     31  C   UNL     1       7.023   4.539  16.337  0.00  0.00    +0.000 A 
ATOM     32  C   UNL     1       6.553   4.545  17.654  0.00  0.00    +0.000 A 
ENDBRANCH  26  27
ENDBRANCH  25  26
ENDBRANCH  18  20
ENDBRANCH  17  18
ENDBRANCH   2  17
TORSDOF 7
ENDMDL
MODEL 4
REMARK VINA RESULT:      -8.8      3.202      5.516
REMARK  Name = 
REMARK  7 active torsions:
REMARK  status: ('A' for Active; 'I' for Inactive)
REMARK    1  A    between atoms: C_2  and  C_3
REMARK    2  A    between atoms: C_3  and  N_4
REMARK    3  A    between atoms: N_4  and  C_5
REMARK    4  A    between atoms: C_10  and  C_11
REMARK    5  A    between atoms: C_11  and  C_12
REMARK    6  A    between atoms: N_18  and  C_19
REMARK    7  A    between atoms: C_22  and  N_23
REMARK                            x       y       z     vdW  Elec       q    Type
REMARK                         _______ _______ _______ _____ _____    ______ ____
ROOT
ATOM      1  O   UNL     1       1.579   9.010  18.786  0.00  0.00    +0.000 OA
ATOM      2  C   UNL     1       1.743   8.221  19.715  0.00  0.00    +0.000 C 
ATOM      3  N   UNL     1       1.333   8.422  21.026  0.00  0.00    +0.000 N 
ATOM      4  H   UNL     1       1.733   7.815  21.728  0.00  0.00    +0.000 HD
ENDROOT
BRANCH   3   5
ATOM      5  C   UNL     1       0.555   9.504  21.491  0.00  0.00    +0.000 A 
ATOM      6  C   UNL     1       0.531  10.756  20.883  0.00  0.00    +0.000 A 
ATOM      7  C   UNL     1      -0.220  11.807  21.430  0.00  0.00    +0.000 A 
ATOM      8  C   UNL     1      -0.950  11.642  22.610  0.00  0.00    +0.000 A 
ATOM      9  C   UNL     1      -0.966  10.360  23.181  0.00  0.00    +0.000 A 
ATOM     10  C   UNL     1      -0.240   9.299  22.618  0.00  0.00    +0.000 A 
BRANCH   8  11
ATOM     11  N   UNL     1      -1.623  12.730  23.234  0.00  0.00    +0.000 N 
ATOM     12  C   UNL     1      -0.997  14.020  23.412  0.00  0.00    +0.000 C 
ATOM     13  C   UNL     1      -1.959  14.795  24.287  0.00  0.00    +0.000 C 
ATOM     14  C   UNL     1      -3.313  14.224  23.923  0.00  0.00    +0.000 C 
ATOM     15  C   UNL     1      -2.997  12.804  23.514  0.00  0.00    +0.000 C 
ATOM     16  O   UNL     1      -3.853  11.936  23.437  0.00  0.00    +0.000 OA
ENDBRANCH   8  11
ENDBRANCH   3   5
BRANCH   2  17
ATOM     17  C   UNL     1       2.421   6.866  19.491  0.00  0.00    +0.000 C 
BRANCH  17  18
ATOM     18  N   UNL     1       2.419   6.451  18.074  0.00  0.00    +0.000 N 
ATOM     19  H   UNL     1       2.003   7.139  17.449  0.00  0.00    +0.000 HD
BRANCH  18  20
ATOM     20  C   UNL     1       3.679   6.053  17.571  0.00  0.00    +0.000 A 
ATOM     21  C   UNL     1       4.649   7.003  17.197  0.00  0.00    +0.000 A 
ATOM     22  C   UNL     1       5.939   6.626  16.822  0.00  0.00    +0.000 A 
ATOM     23  C   UNL     1       6.279   5.283  16.791  0.00  0.00    +0.000 A 
ATOM     24  C   UNL     1       5.306   4.324  17.055  0.00  0.00    +0.000 A 
ATOM     25  C   UNL     1       3.983   4.689  17.386  0.00  0.00    +0.000 A 
BRANCH  25  26
ATOM     26  C   UNL     1       2.950   3.581  17.497  0.00  0.00    +0.000 C 
BRANCH  26  27
ATOM     27  C   UNL     1       2.514   3.295  18.929  0.00  0.00    +0.000 A 
ATOM     28  C   UNL     1       3.452   3.027  19.940  0.00  0.00    +0.000 A 
ATOM     29  C   UNL     1       3.043   2.740  21.246  0.00  0.00    +0.000 A 
ATOM     30  C   UNL     1       1.691   2.738  21.565  0.00  0.00    +0.000 A 
ATOM     31  C   UNL     1       0.747   3.035  20.582  0.00  0.00    +0.000 A 
ATOM     32  C   UNL     1       1.155   3.315  19.274  0.00  0.00    +0.000 A 
ENDBRANCH  26  27
ENDBRANCH  25  26
ENDBRANCH  18  20
ENDBRANCH  17  18
ENDBRANCH   2  17
TORSDOF 7
ENDMDL
MODEL 5
REMARK VINA RESULT:      -8.8      3.178      4.960
REMARK  Name = 
REMARK  7 active torsions:
REMARK  status: ('A' for Active; 'I' for Inactive)
REMARK    1  A    between atoms: C_2  and  C_3
REMARK    2  A    between atoms: C_3  and  N_4
REMARK    3  A    between atoms: N_4  and  C_5
REMARK    4  A    between atoms: C_10  and  C_11
REMARK    5  A    between atoms: C_11  and  C_12
REMARK    6  A    between atoms: N_18  and  C_19
REMARK    7  A    between atoms: C_22  and  N_23
REMARK                            x       y       z     vdW  Elec       q    Type
REMARK                         _______ _______ _______ _____ _____    ______ ____
ROOT
ATOM      1  O   UNL     1       1.166   9.231  18.705  0.00  0.00    +0.000 OA
ATOM      2  C   UNL     1       1.577   8.556  19.646  0.00  0.00    +0.000 C 
ATOM      3  N   UNL     1       1.377   8.840  20.990  0.00  0.00    +0.000 N 
ATOM      4  H   UNL     1       1.960   8.347  21.653  0.00  0.00    +0.000 HD
ENDROOT
BRANCH   3   5
ATOM      5  C   UNL     1       0.569   9.876  21.504  0.00  0.00    +0.000 A 
ATOM      6  C   UNL     1       0.598  11.185  21.031  0.00  0.00    +0.000 A 
ATOM      7  C   UNL     1      -0.190  12.183  21.625  0.00  0.00    +0.000 A 
ATOM      8  C   UNL     1      -1.010  11.905  22.721  0.00  0.00    +0.000 A 
ATOM      9  C   UNL     1      -1.074  10.572  23.153  0.00  0.00    +0.000 A 
ATOM     10  C   UNL     1      -0.311   9.566  22.540  0.00  0.00    +0.000 A 
BRANCH   8  11
ATOM     11  N   UNL     1      -1.725  12.930  23.402  0.00  0.00    +0.000 N 
ATOM     12  C   UNL     1      -1.186  14.261  23.570  0.00  0.00    +0.000 C 
ATOM     13  C   UNL     1      -2.152  14.949  24.511  0.00  0.00    +0.000 C 
ATOM     14  C   UNL     1      -3.479  14.284  24.211  0.00  0.00    +0.000 C 
ATOM     15  C   UNL     1      -3.083  12.898  23.758  0.00  0.00    +0.000 C 
ATOM     16  O   UNL     1      -3.876  11.971  23.711  0.00  0.00    +0.000 OA
ENDBRANCH   8  11
ENDBRANCH   3   5
BRANCH   2  17
ATOM     17  C   UNL     1       2.359   7.262  19.408  0.00  0.00    +0.000 C 
BRANCH  17  18
ATOM     18  N   UNL     1       2.192   6.281  20.498  0.00  0.00    +0.000 N 
ATOM     19  H   UNL     1       1.353   6.430  21.054  0.00  0.00    +0.000 HD
BRANCH  18  20
ATOM     20  C   UNL     1       2.258   4.927  20.094  0.00  0.00    +0.000 A 
ATOM     21  C   UNL     1       1.192   4.040  20.335  0.00  0.00    +0.000 A 
ATOM     22  C   UNL     1       1.190   2.740  19.829  0.00  0.00    +0.000 A 
ATOM     23  C   UNL     1       2.271   2.291  19.087  0.00  0.00    +0.000 A 
ATOM     24  C   UNL     1       3.380   3.116  18.927  0.00  0.00    +0.000 A 
ATOM     25  C   UNL     1       3.417   4.415  19.476  0.00  0.00    +0.000 A 
BRANCH  25  26
ATOM     26  C   UNL     1       4.726   5.183  19.392  0.00  0.00    +0.000 C 
BRANCH  26  27
ATOM     27  C   UNL     1       5.349   5.176  18.002  0.00  0.00    +0.000 A 
ATOM     28  C   UNL     1       4.729   5.821  16.919  0.00  0.00    +0.000 A 
ATOM     29  C   UNL     1       5.294   5.788  15.640  0.00  0.00    +0.000 A 
ATOM     30  C   UNL     1       6.497   5.127  15.430  0.00  0.00    +0.000 A 
ATOM     31  C   UNL     1       7.144   4.509  16.500  0.00  0.00    +0.000 A 
ATOM     32  C   UNL     1       6.576   4.536  17.778  0.00  0.00    +0.000 A 
ENDBRANCH  26  27
ENDBRANCH  25  26
ENDBRANCH  18  20
ENDBRANCH  17  18
ENDBRANCH   2  17
TORSDOF 7
ENDMDL
MODEL 6
REMARK VINA RESULT:      -8.7      5.689      8.063
REMARK  Name = 
REMARK  7 active torsions:
REMARK  status: ('A' for Active; 'I' for Inactive)
REMARK    1  A    between atoms: C_2  and  C_3
REMARK    2  A    between atoms: C_3  and  N_4
REMARK    3  A    between atoms: N_4  and  C_5
REMARK    4  A    between atoms: C_10  and  C_11
REMARK    5  A    between atoms: C_11  and  C_12
REMARK    6  A    between atoms: N_18  and  C_19
REMARK    7  A    between atoms: C_22  and  N_23
REMARK                            x       y       z     vdW  Elec       q    Type
REMARK                         _______ _______ _______ _____ _____    ______ ____
ROOT
ATOM      1  O   UNL     1       7.585   8.724  17.312  0.00  0.00    +0.000 OA
ATOM      2  C   UNL     1       8.154   8.182  18.258  0.00  0.00    +0.000 C 
ATOM      3  N   UNL     1       9.014   8.808  19.150  0.00  0.00    +0.000 N 
ATOM      4  H   UNL     1       9.591   8.210  19.726  0.00  0.00    +0.000 HD
ENDROOT
BRANCH   3   5
ATOM      5  C   UNL     1       9.287  10.192  19.199  0.00  0.00    +0.000 A 
ATOM      6  C   UNL     1       9.543  10.969  18.073  0.00  0.00    +0.000 A 
ATOM      7  C   UNL     1       9.865  12.329  18.196  0.00  0.00    +0.000 A 
ATOM      8  C   UNL     1       9.962  12.944  19.447  0.00  0.00    +0.000 A 
ATOM      9  C   UNL     1       9.645  12.165  20.571  0.00  0.00    +0.000 A 
ATOM     10  C   UNL     1       9.292  10.812  20.448  0.00  0.00    +0.000 A 
BRANCH   8  11
ATOM     11  N   UNL     1      10.398  14.291  19.590  0.00  0.00    +0.000 N 
ATOM     12  C   UNL     1      11.788  14.667  19.457  0.00  0.00    +0.000 C 
ATOM     13  C   UNL     1      11.835  16.118  19.886  0.00  0.00    +0.000 C 
ATOM     14  C   UNL     1      10.467  16.647  19.507  0.00  0.00    +0.000 C 
ATOM     15  C   UNL     1       9.578  15.431  19.613  0.00  0.00    +0.000 C 
ATOM     16  O   UNL     1       8.361  15.509  19.673  0.00  0.00    +0.000 OA
ENDBRANCH   8  11
ENDBRANCH   3   5
BRANCH   2  17
ATOM     17  C   UNL     1       7.928   6.700  18.571  0.00  0.00    +0.000 C 
BRANCH  17  18
ATOM     18  N   UNL     1       6.510   6.302  18.473  0.00  0.00    +0.000 N 
ATOM     19  H   UNL     1       5.862   7.079  18.577  0.00  0.00    +0.000 HD
BRANCH  18  20
ATOM     20  C   UNL     1       6.180   5.561  17.315  0.00  0.00    +0.000 A 
ATOM     21  C   UNL     1       7.156   5.238  16.351  0.00  0.00    +0.000 A 
ATOM     22  C   UNL     1       6.873   4.401  15.272  0.00  0.00    +0.000 A 
ATOM     23  C   UNL     1       5.596   3.885  15.121  0.00  0.00    +0.000 A 
ATOM     24  C   UNL     1       4.592   4.275  16.001  0.00  0.00    +0.000 A 
ATOM     25  C   UNL     1       4.851   5.162  17.068  0.00  0.00    +0.000 A 
BRANCH  25  26
ATOM     26  C   UNL     1       3.666   5.660  17.878  0.00  0.00    +0.000 C 
BRANCH  26  27
ATOM     27  C   UNL     1       3.096   4.617  18.830  0.00  0.00    +0.000 A 
ATOM     28  C   UNL     1       3.923   3.674  19.464  0.00  0.00    +0.000 A 
ATOM     29  C   UNL     1       3.389   2.703  20.316  0.00  0.00    +0.000 A 
ATOM     30  C   UNL     1       2.023   2.673  20.563  0.00  0.00    +0.000 A 
ATOM     31  C   UNL     1       1.190   3.621  19.970  0.00  0.00    +0.000 A 
ATOM     32  C   UNL     1       1.723   4.589  19.112  0.00  0.00    +0.000 A 
ENDBRANCH  26  27
ENDBRANCH  25  26
ENDBRANCH  18  20
ENDBRANCH  17  18
ENDBRANCH   2  17
TORSDOF 7
ENDMDL
MODEL 7
REMARK VINA RESULT:      -8.7      3.167      5.397
REMARK  Name = 
REMARK  7 active torsions:
REMARK  status: ('A' for Active; 'I' for Inactive)
REMARK    1  A    between atoms: C_2  and  C_3
REMARK    2  A    between atoms: C_3  and  N_4
REMARK    3  A    between atoms: N_4  and  C_5
REMARK    4  A    between atoms: C_10  and  C_11
REMARK    5  A    between atoms: C_11  and  C_12
REMARK    6  A    between atoms: N_18  and  C_19
REMARK    7  A    between atoms: C_22  and  N_23
REMARK                            x       y       z     vdW  Elec       q    Type
REMARK                         _______ _______ _______ _____ _____    ______ ____
ROOT
ATOM      1  O   UNL     1       1.878  10.629  18.774  0.00  0.00    +0.000 OA
ATOM      2  C   UNL     1       1.429   9.507  19.001  0.00  0.00    +0.000 C 
ATOM      3  N   UNL     1       0.479   9.199  19.964  0.00  0.00    +0.000 N 
ATOM      4  H   UNL     1       0.374   8.223  20.208  0.00  0.00    +0.000 HD
ENDROOT
BRANCH   3   5
ATOM      5  C   UNL     1      -0.222  10.129  20.760  0.00  0.00    +0.000 A 
ATOM      6  C   UNL     1      -0.821  11.280  20.256  0.00  0.00    +0.000 A 
ATOM      7  C   UNL     1      -1.454  12.196  21.111  0.00  0.00    +0.000 A 
ATOM      8  C   UNL     1      -1.487  11.997  22.494  0.00  0.00    +0.000 A 
ATOM      9  C   UNL     1      -0.930  10.806  22.984  0.00  0.00    +0.000 A 
ATOM     10  C   UNL     1      -0.325   9.874  22.128  0.00  0.00    +0.000 A 
BRANCH   8  11
ATOM     11  N   UNL     1      -2.025  12.973  23.379  0.00  0.00    +0.000 N 
ATOM     12  C   UNL     1      -1.323  14.197  23.692  0.00  0.00    +0.000 C 
ATOM     13  C   UNL     1      -2.130  14.827  24.807  0.00  0.00    +0.000 C 
ATOM     14  C   UNL     1      -3.544  14.360  24.533  0.00  0.00    +0.000 C 
ATOM     15  C   UNL     1      -3.347  13.028  23.848  0.00  0.00    +0.000 C 
ATOM     16  O   UNL     1      -4.244  12.206  23.737  0.00  0.00    +0.000 OA
ENDBRANCH   8  11
ENDBRANCH   3   5
BRANCH   2  17
ATOM     17  C   UNL     1       1.879   8.295  18.180  0.00  0.00    +0.000 C 
BRANCH  17  18
ATOM     18  N   UNL     1       2.945   7.518  18.842  0.00  0.00    +0.000 N 
ATOM     19  H   UNL     1       3.321   7.969  19.673  0.00  0.00    +0.000 HD
BRANCH  18  20
ATOM     20  C   UNL     1       2.604   6.179  19.142  0.00  0.00    +0.000 A 
ATOM     21  C   UNL     1       1.847   5.856  20.285  0.00  0.00    +0.000 A 
ATOM     22  C   UNL     1       1.396   4.559  20.524  0.00  0.00    +0.000 A 
ATOM     23  C   UNL     1       1.712   3.547  19.632  0.00  0.00    +0.000 A 
ATOM     24  C   UNL     1       2.546   3.823  18.553  0.00  0.00    +0.000 A 
ATOM     25  C   UNL     1       3.053   5.120  18.327  0.00  0.00    +0.000 A 
BRANCH  25  26
ATOM     26  C   UNL     1       4.083   5.296  17.224  0.00  0.00    +0.000 C 
BRANCH  26  27
ATOM     27  C   UNL     1       5.442   5.764  17.727  0.00  0.00    +0.000 A 
ATOM     28  C   UNL     1       6.147   6.793  17.081  0.00  0.00    +0.000 A 
ATOM     29  C   UNL     1       7.407   7.199  17.534  0.00  0.00    +0.000 A 
ATOM     30  C   UNL     1       7.969   6.598  18.652  0.00  0.00    +0.000 A 
ATOM     31  C   UNL     1       7.269   5.598  19.327  0.00  0.00    +0.000 A 
ATOM     32  C   UNL     1       6.013   5.186  18.870  0.00  0.00    +0.000 A 
ENDBRANCH  26  27
ENDBRANCH  25  26
ENDBRANCH  18  20
ENDBRANCH  17  18
ENDBRANCH   2  17
TORSDOF 7
ENDMDL
MODEL 8
REMARK VINA RESULT:      -8.6      3.908      5.840
REMARK  Name = 
REMARK  7 active torsions:
REMARK  status: ('A' for Active; 'I' for Inactive)
REMARK    1  A    between atoms: C_2  and  C_3
REMARK    2  A    between atoms: C_3  and  N_4
REMARK    3  A    between atoms: N_4  and  C_5
REMARK    4  A    between atoms: C_10  and  C_11
REMARK    5  A    between atoms: C_11  and  C_12
REMARK    6  A    between atoms: N_18  and  C_19
REMARK    7  A    between atoms: C_22  and  N_23
REMARK                            x       y       z     vdW  Elec       q    Type
REMARK                         _______ _______ _______ _____ _____    ______ ____
ROOT
ATOM      1  O   UNL     1       1.738   9.308  22.349  0.00  0.00    +0.000 OA
ATOM      2  C   UNL     1       1.116   9.268  21.289  0.00  0.00    +0.000 C 
ATOM      3  N   UNL     1       0.023  10.060  20.965  0.00  0.00    +0.000 N 
ATOM      4  H   UNL     1      -0.534   9.768  20.173  0.00  0.00    +0.000 HD
ENDROOT
BRANCH   3   5
ATOM      5  C   UNL     1      -0.484  11.125  21.740  0.00  0.00    +0.000 A 
ATOM      6  C   UNL     1      -1.325  10.949  22.835  0.00  0.00    +0.000 A 
ATOM      7  C   UNL     1      -1.843  12.054  23.529  0.00  0.00    +0.000 A 
ATOM      8  C   UNL     1      -1.552  13.362  23.134  0.00  0.00    +0.000 A 
ATOM      9  C   UNL     1      -0.658  13.526  22.065  0.00  0.00    +0.000 A 
ATOM     10  C   UNL     1      -0.114  12.423  21.389  0.00  0.00    +0.000 A 
BRANCH   8  11
ATOM     11  N   UNL     1      -2.161  14.487  23.758  0.00  0.00    +0.000 N 
ATOM     12  C   UNL     1      -3.578  14.752  23.652  0.00  0.00    +0.000 C 
ATOM     13  C   UNL     1      -3.758  16.124  24.265  0.00  0.00    +0.000 C 
ATOM     14  C   UNL     1      -2.657  16.200  25.302  0.00  0.00    +0.000 C 
ATOM     15  C   UNL     1      -1.575  15.313  24.731  0.00  0.00    +0.000 C 
ATOM     16  O   UNL     1      -0.420  15.350  25.125  0.00  0.00    +0.000 OA
ENDBRANCH   8  11
ENDBRANCH   3   5
BRANCH   2  17
ATOM     17  C   UNL     1       1.532   8.316  20.165  0.00  0.00    +0.000 C 
BRANCH  17  18
ATOM     18  N   UNL     1       2.291   7.148  20.654  0.00  0.00    +0.000 N 
ATOM     19  H   UNL     1       2.187   6.985  21.653  0.00  0.00    +0.000 HD
BRANCH  18  20
ATOM     20  C   UNL     1       2.047   5.946  19.949  0.00  0.00    +0.000 A 
ATOM     21  C   UNL     1       1.344   4.880  20.544  0.00  0.00    +0.000 A 
ATOM     22  C   UNL     1       0.986   3.743  19.821  0.00  0.00    +0.000 A 
ATOM     23  C   UNL     1       1.345   3.637  18.487  0.00  0.00    +0.000 A 
ATOM     24  C   UNL     1       2.130   4.630  17.909  0.00  0.00    +0.000 A 
ATOM     25  C   UNL     1       2.544   5.762  18.643  0.00  0.00    +0.000 A 
BRANCH  25  26
ATOM     26  C   UNL     1       3.531   6.711  17.984  0.00  0.00    +0.000 C 
BRANCH  26  27
ATOM     27  C   UNL     1       4.799   6.027  17.491  0.00  0.00    +0.000 A 
ATOM     28  C   UNL     1       5.088   5.920  16.120  0.00  0.00    +0.000 A 
ATOM     29  C   UNL     1       6.241   5.267  15.675  0.00  0.00    +0.000 A 
ATOM     30  C   UNL     1       7.133   4.730  16.594  0.00  0.00    +0.000 A 
ATOM     31  C   UNL     1       6.881   4.856  17.960  0.00  0.00    +0.000 A 
ATOM     32  C   UNL     1       5.723   5.502  18.406  0.00  0.00    +0.000 A 
ENDBRANCH  26  27
ENDBRANCH  25  26
ENDBRANCH  18  20
ENDBRANCH  17  18
ENDBRANCH   2  17
TORSDOF 7
ENDMDL
MODEL 9
REMARK VINA RESULT:      -8.6      2.944      5.291
REMARK  Name = 
REMARK  7 active torsions:
REMARK  status: ('A' for Active; 'I' for Inactive)
REMARK    1  A    between atoms: C_2  and  C_3
REMARK    2  A    between atoms: C_3  and  N_4
REMARK    3  A    between atoms: N_4  and  C_5
REMARK    4  A    between atoms: C_10  and  C_11
REMARK    5  A    between atoms: C_11  and  C_12
REMARK    6  A    between atoms: N_18  and  C_19
REMARK    7  A    between atoms: C_22  and  N_23
REMARK                            x       y       z     vdW  Elec       q    Type
REMARK                         _______ _______ _______ _____ _____    ______ ____
ROOT
ATOM      1  O   UNL     1       1.587   8.833  18.873  0.00  0.00    +0.000 OA
ATOM      2  C   UNL     1       1.834   8.082  19.815  0.00  0.00    +0.000 C 
ATOM      3  N   UNL     1       1.516   8.324  21.144  0.00  0.00    +0.000 N 
ATOM      4  H   UNL     1       1.979   7.751  21.837  0.00  0.00    +0.000 HD
ENDROOT
BRANCH   3   5
ATOM      5  C   UNL     1       0.751   9.407  21.626  0.00  0.00    +0.000 A 
ATOM      6  C   UNL     1      -0.138   9.311  22.693  0.00  0.00    +0.000 A 
ATOM      7  C   UNL     1      -0.913  10.413  23.086  0.00  0.00    +0.000 A 
ATOM      8  C   UNL     1      -0.838  11.633  22.410  0.00  0.00    +0.000 A 
ATOM      9  C   UNL     1       0.102  11.735  21.374  0.00  0.00    +0.000 A 
ATOM     10  C   UNL     1       0.901  10.644  20.999  0.00  0.00    +0.000 A 
BRANCH   8  11
ATOM     11  N   UNL     1      -1.700  12.720  22.726  0.00  0.00    +0.000 N 
ATOM     12  C   UNL     1      -1.275  13.818  23.565  0.00  0.00    +0.000 C 
ATOM     13  C   UNL     1      -2.535  14.621  23.813  0.00  0.00    +0.000 C 
ATOM     14  C   UNL     1      -3.357  14.391  22.561  0.00  0.00    +0.000 C 
ATOM     15  C   UNL     1      -2.922  13.019  22.102  0.00  0.00    +0.000 C 
ATOM     16  O   UNL     1      -3.565  12.360  21.300  0.00  0.00    +0.000 OA
ENDBRANCH   8  11
ENDBRANCH   3   5
BRANCH   2  17
ATOM     17  C   UNL     1       2.522   6.733  19.591  0.00  0.00    +0.000 C 
BRANCH  17  18
ATOM     18  N   UNL     1       2.380   6.239  18.207  0.00  0.00    +0.000 N 
ATOM     19  H   UNL     1       1.861   6.871  17.601  0.00  0.00    +0.000 HD
BRANCH  18  20
ATOM     20  C   UNL     1       3.593   5.871  17.580  0.00  0.00    +0.000 A 
ATOM     21  C   UNL     1       4.523   6.842  17.161  0.00  0.00    +0.000 A 
ATOM     22  C   UNL     1       5.776   6.490  16.660  0.00  0.00    +0.000 A 
ATOM     23  C   UNL     1       6.118   5.152  16.547  0.00  0.00    +0.000 A 
ATOM     24  C   UNL     1       5.176   4.176  16.856  0.00  0.00    +0.000 A 
ATOM     25  C   UNL     1       3.886   4.518  17.315  0.00  0.00    +0.000 A 
BRANCH  25  26
ATOM     26  C   UNL     1       2.871   3.398  17.473  0.00  0.00    +0.000 C 
BRANCH  26  27
ATOM     27  C   UNL     1       2.463   3.144  18.918  0.00  0.00    +0.000 A 
ATOM     28  C   UNL     1       3.413   2.825  19.902  0.00  0.00    +0.000 A 
ATOM     29  C   UNL     1       3.027   2.566  21.221  0.00  0.00    +0.000 A 
ATOM     30  C   UNL     1       1.688   2.645  21.580  0.00  0.00    +0.000 A 
ATOM     31  C   UNL     1       0.734   2.994  20.625  0.00  0.00    +0.000 A 
ATOM     32  C   UNL     1       1.118   3.244  19.304  0.00  0.00    +0.000 A 
ENDBRANCH  26  27
ENDBRANCH  25  26
ENDBRANCH  18  20
ENDBRANCH  17  18
ENDBRANCH   2  17
TORSDOF 7
ENDMDL
