MODEL 1
REMARK VINA RESULT:      -8.1      0.000      0.000
REMARK  Name = 
REMARK  10 active torsions:
REMARK  status: ('A' for Active; 'I' for Inactive)
REMARK    1  A    between atoms: C_1  and  C_2
REMARK    2  A    between atoms: C_5  and  C_6
REMARK    3  A    between atoms: C_6  and  C_7
REMARK    4  A    between atoms: C_6  and  C_8
REMARK    5  A    between atoms: C_6  and  C_9
REMARK    6  A    between atoms: C_11  and  S_12
REMARK    7  A    between atoms: S_12  and  N_15
REMARK    8  A    between atoms: N_15  and  C_16
REMARK    9  A    between atoms: C_20  and  S_21
REMARK   10  A    between atoms: S_21  and  N_24
REMARK                            x       y       z     vdW  Elec       q    Type
REMARK                         _______ _______ _______ _____ _____    ______ ____
ROOT
ATOM      1  N   UNL     1       2.408   6.427  20.847  0.00  0.00    +0.000 N 
ATOM      2  H   UNL     1       3.095   6.373  21.600  0.00  0.00    +0.000 HD
ENDROOT
BRANCH   1   3
ATOM      3  C   UNL     1       1.575   7.583  20.846  0.00  0.00    +0.000 A 
ATOM      4  C   UNL     1       0.939   8.014  22.015  0.00  0.00    +0.000 A 
ATOM      5  C   UNL     1       0.220   9.216  22.023  0.00  0.00    +0.000 A 
ATOM      6  C   UNL     1       0.135   9.986  20.861  0.00  0.00    +0.000 A 
ATOM      7  C   UNL     1       0.764   9.542  19.696  0.00  0.00    +0.000 A 
ATOM      8  C   UNL     1       1.493   8.346  19.690  0.00  0.00    +0.000 A 
BRANCH   7   9
ATOM      9  S   UNL     1       0.819  10.580  18.257  0.00  0.00    +0.000 S 
ATOM     10  O   UNL     1       0.651  11.951  18.701  0.00  0.00    +0.000 OA
ATOM     11  O   UNL     1       1.964  10.218  17.458  0.00  0.00    +0.000 OA
BRANCH   9  12
ATOM     12  N   UNL     1      -0.563  10.240  17.384  0.00  0.00    +0.000 N 
ATOM     13  C   UNL     1      -1.846  10.613  17.774  0.00  0.00    +0.000 C 
ATOM     14  N   UNL     1      -2.077  11.665  18.475  0.00  0.00    +0.000 NA
ATOM     15  C   UNL     1      -3.529  11.687  18.682  0.00  0.00    +0.000 C 
ATOM     16  C   UNL     1      -4.131  10.753  17.652  0.00  0.00    +0.000 C 
ATOM     17  C   UNL     1      -3.015   9.778  17.373  0.00  0.00    +0.000 C 
ATOM     18  H   UNL     1      -0.412   9.482  16.725  0.00  0.00    +0.000 HD
ENDBRANCH   9  12
ENDBRANCH   7   9
ENDBRANCH   1   3
BRANCH   1  19
ATOM     19  S   UNL     1       1.724   4.903  20.586  0.00  0.00    +0.000 S 
ATOM     20  O   UNL     1       0.289   5.057  20.461  0.00  0.00    +0.000 OA
ATOM     21  O   UNL     1       2.281   4.061  21.631  0.00  0.00    +0.000 OA
BRANCH  19  28
ATOM     22  C   UNL     1       0.841   2.327  18.836  0.00  0.00    +0.000 C 
ATOM     23  C   UNL     1       2.018   3.154  18.404  0.00  0.00    +0.000 A 
ATOM     24  C   UNL     1       2.721   2.741  17.259  0.00  0.00    +0.000 A 
ATOM     25  C   UNL     1       3.796   3.476  16.754  0.00  0.00    +0.000 A 
ATOM     26  C   UNL     1       4.256   4.633  17.394  0.00  0.00    +0.000 A 
ATOM     27  C   UNL     1       3.556   5.043  18.550  0.00  0.00    +0.000 A 
ATOM     28  C   UNL     1       2.445   4.324  19.050  0.00  0.00    +0.000 A 
BRANCH  26  29
ATOM     29  C   UNL     1       5.448   5.431  16.830  0.00  0.00    +0.000 C 
ATOM     30  C   UNL     1       5.174   6.934  17.036  0.00  0.00    +0.000 C 
ATOM     31  C   UNL     1       6.775   5.062  17.531  0.00  0.00    +0.000 C 
ATOM     32  C   UNL     1       5.680   5.193  15.317  0.00  0.00    +0.000 C 
ENDBRANCH  26  29
ENDBRANCH  19  28
ENDBRANCH   1  19
TORSDOF 6
ENDMDL
MODEL 2
REMARK VINA RESULT:      -8.1      2.375      3.175
REMARK  Name = 
REMARK  10 active torsions:
REMARK  status: ('A' for Active; 'I' for Inactive)
REMARK    1  A    between atoms: C_1  and  C_2
REMARK    2  A    between atoms: C_5  and  C_6
REMARK    3  A    between atoms: C_6  and  C_7
REMARK    4  A    between atoms: C_6  and  C_8
REMARK    5  A    between atoms: C_6  and  C_9
REMARK    6  A    between atoms: C_11  and  S_12
REMARK    7  A    between atoms: S_12  and  N_15
REMARK    8  A    between atoms: N_15  and  C_16
REMARK    9  A    between atoms: C_20  and  S_21
REMARK   10  A    between atoms: S_21  and  N_24
REMARK                            x       y       z     vdW  Elec       q    Type
REMARK                         _______ _______ _______ _____ _____    ______ ____
ROOT
ATOM      1  N   UNL     1       2.720   6.443  20.494  0.00  0.00    +0.000 N 
ATOM      2  H   UNL     1       3.072   6.605  21.438  0.00  0.00    +0.000 HD
ENDROOT
BRANCH   1   3
ATOM      3  C   UNL     1       2.181   7.580  19.826  0.00  0.00    +0.000 A 
ATOM      4  C   UNL     1       2.311   7.731  18.442  0.00  0.00    +0.000 A 
ATOM      5  C   UNL     1       1.674   8.793  17.786  0.00  0.00    +0.000 A 
ATOM      6  C   UNL     1       0.910   9.706  18.516  0.00  0.00    +0.000 A 
ATOM      7  C   UNL     1       0.796   9.553  19.900  0.00  0.00    +0.000 A 
ATOM      8  C   UNL     1       1.423   8.485  20.554  0.00  0.00    +0.000 A 
BRANCH   7   9
ATOM      9  S   UNL     1      -0.304  10.592  20.827  0.00  0.00    +0.000 S 
ATOM     10  O   UNL     1      -1.366  11.012  19.932  0.00  0.00    +0.000 OA
ATOM     11  O   UNL     1      -0.630   9.942  22.073  0.00  0.00    +0.000 OA
BRANCH   9  12
ATOM     12  N   UNL     1       0.546  11.988  21.166  0.00  0.00    +0.000 N 
ATOM     13  C   UNL     1       0.006  13.095  21.816  0.00  0.00    +0.000 C 
ATOM     14  N   UNL     1      -0.940  12.995  22.680  0.00  0.00    +0.000 NA
ATOM     15  C   UNL     1      -1.228  14.368  23.105  0.00  0.00    +0.000 C 
ATOM     16  C   UNL     1      -0.039  15.212  22.693  0.00  0.00    +0.000 C 
ATOM     17  C   UNL     1       0.529  14.459  21.516  0.00  0.00    +0.000 C 
ATOM     18  H   UNL     1       1.376  12.071  20.586  0.00  0.00    +0.000 HD
ENDBRANCH   9  12
ENDBRANCH   7   9
ENDBRANCH   1   3
BRANCH   1  19
ATOM     19  S   UNL     1       1.894   4.969  20.436  0.00  0.00    +0.000 S 
ATOM     20  O   UNL     1       0.478   5.240  20.293  0.00  0.00    +0.000 OA
ATOM     21  O   UNL     1       2.384   4.221  21.581  0.00  0.00    +0.000 OA
BRANCH  19  28
ATOM     22  C   UNL     1       0.773   2.260  19.062  0.00  0.00    +0.000 C 
ATOM     23  C   UNL     1       2.005   2.920  18.511  0.00  0.00    +0.000 A 
ATOM     24  C   UNL     1       2.650   2.299  17.429  0.00  0.00    +0.000 A 
ATOM     25  C   UNL     1       3.771   2.868  16.819  0.00  0.00    +0.000 A 
ATOM     26  C   UNL     1       4.335   4.059  17.291  0.00  0.00    +0.000 A 
ATOM     27  C   UNL     1       3.692   4.679  18.385  0.00  0.00    +0.000 A 
ATOM     28  C   UNL     1       2.537   4.129  18.987  0.00  0.00    +0.000 A 
BRANCH  26  29
ATOM     29  C   UNL     1       5.577   4.673  16.614  0.00  0.00    +0.000 C 
ATOM     30  C   UNL     1       5.246   6.121  16.201  0.00  0.00    +0.000 C 
ATOM     31  C   UNL     1       6.802   4.685  17.554  0.00  0.00    +0.000 C 
ATOM     32  C   UNL     1       6.019   3.906  15.342  0.00  0.00    +0.000 C 
ENDBRANCH  26  29
ENDBRANCH  19  28
ENDBRANCH   1  19
TORSDOF 6
ENDMDL
MODEL 3
REMARK VINA RESULT:      -8.0      2.233      3.209
REMARK  Name = 
REMARK  10 active torsions:
REMARK  status: ('A' for Active; 'I' for Inactive)
REMARK    1  A    between atoms: C_1  and  C_2
REMARK    2  A    between atoms: C_5  and  C_6
REMARK    3  A    between atoms: C_6  and  C_7
REMARK    4  A    between atoms: C_6  and  C_8
REMARK    5  A    between atoms: C_6  and  C_9
REMARK    6  A    between atoms: C_11  and  S_12
REMARK    7  A    between atoms: S_12  and  N_15
REMARK    8  A    between atoms: N_15  and  C_16
REMARK    9  A    between atoms: C_20  and  S_21
REMARK   10  A    between atoms: S_21  and  N_24
REMARK                            x       y       z     vdW  Elec       q    Type
REMARK                         _______ _______ _______ _____ _____    ______ ____
ROOT
ATOM      1  N   UNL     1       2.717   6.504  20.437  0.00  0.00    +0.000 N 
ATOM      2  H   UNL     1       3.083   6.685  21.373  0.00  0.00    +0.000 HD
ENDROOT
BRANCH   1   3
ATOM      3  C   UNL     1       2.164   7.627  19.756  0.00  0.00    +0.000 A 
ATOM      4  C   UNL     1       2.258   7.743  18.366  0.00  0.00    +0.000 A 
ATOM      5  C   UNL     1       1.608   8.792  17.702  0.00  0.00    +0.000 A 
ATOM      6  C   UNL     1       0.868   9.727  18.429  0.00  0.00    +0.000 A 
ATOM      7  C   UNL     1       0.790   9.608  19.819  0.00  0.00    +0.000 A 
ATOM      8  C   UNL     1       1.430   8.553  20.482  0.00  0.00    +0.000 A 
BRANCH   7   9
ATOM      9  S   UNL     1      -0.281  10.674  20.749  0.00  0.00    +0.000 S 
ATOM     10  O   UNL     1      -1.274  11.204  19.833  0.00  0.00    +0.000 OA
ATOM     11  O   UNL     1      -0.702   9.991  21.949  0.00  0.00    +0.000 OA
BRANCH   9  12
ATOM     12  N   UNL     1       0.642  11.995  21.189  0.00  0.00    +0.000 N 
ATOM     13  C   UNL     1       1.301  12.824  20.286  0.00  0.00    +0.000 C 
ATOM     14  N   UNL     1       0.867  13.032  19.095  0.00  0.00    +0.000 NA
ATOM     15  C   UNL     1       1.843  13.933  18.474  0.00  0.00    +0.000 C 
ATOM     16  C   UNL     1       2.650  14.546  19.601  0.00  0.00    +0.000 C 
ATOM     17  C   UNL     1       2.561  13.510  20.694  0.00  0.00    +0.000 C 
ATOM     18  H   UNL     1       0.926  11.943  22.163  0.00  0.00    +0.000 HD
ENDBRANCH   9  12
ENDBRANCH   7   9
ENDBRANCH   1   3
BRANCH   1  19
ATOM     19  S   UNL     1       1.894   5.027  20.420  0.00  0.00    +0.000 S 
ATOM     20  O   UNL     1       0.476   5.292  20.280  0.00  0.00    +0.000 OA
ATOM     21  O   UNL     1       2.392   4.309  21.580  0.00  0.00    +0.000 OA
BRANCH  19  28
ATOM     22  C   UNL     1       0.773   2.281  19.122  0.00  0.00    +0.000 C 
ATOM     23  C   UNL     1       1.999   2.932  18.546  0.00  0.00    +0.000 A 
ATOM     24  C   UNL     1       2.638   2.287  17.475  0.00  0.00    +0.000 A 
ATOM     25  C   UNL     1       3.753   2.844  16.843  0.00  0.00    +0.000 A 
ATOM     26  C   UNL     1       4.316   4.049  17.281  0.00  0.00    +0.000 A 
ATOM     27  C   UNL     1       3.678   4.694  18.364  0.00  0.00    +0.000 A 
ATOM     28  C   UNL     1       2.529   4.154  18.988  0.00  0.00    +0.000 A 
BRANCH  26  29
ATOM     29  C   UNL     1       5.550   4.650  16.580  0.00  0.00    +0.000 C 
ATOM     30  C   UNL     1       6.719   4.681  17.585  0.00  0.00    +0.000 C 
ATOM     31  C   UNL     1       5.972   3.826  15.344  0.00  0.00    +0.000 C 
ATOM     32  C   UNL     1       5.319   6.097  16.075  0.00  0.00    +0.000 C 
ENDBRANCH  26  29
ENDBRANCH  19  28
ENDBRANCH   1  19
TORSDOF 6
ENDMDL
MODEL 4
REMARK VINA RESULT:      -8.0      1.799      2.484
REMARK  Name = 
REMARK  10 active torsions:
REMARK  status: ('A' for Active; 'I' for Inactive)
REMARK    1  A    between atoms: C_1  and  C_2
REMARK    2  A    between atoms: C_5  and  C_6
REMARK    3  A    between atoms: C_6  and  C_7
REMARK    4  A    between atoms: C_6  and  C_8
REMARK    5  A    between atoms: C_6  and  C_9
REMARK    6  A    between atoms: C_11  and  S_12
REMARK    7  A    between atoms: S_12  and  N_15
REMARK    8  A    between atoms: N_15  and  C_16
REMARK    9  A    between atoms: C_20  and  S_21
REMARK   10  A    between atoms: S_21  and  N_24
REMARK                            x       y       z     vdW  Elec       q    Type
REMARK                         _______ _______ _______ _____ _____    ______ ____
ROOT
ATOM      1  N   UNL     1       2.678   6.416  20.563  0.00  0.00    +0.000 N 
ATOM      2  H   UNL     1       3.028   6.532  21.514  0.00  0.00    +0.000 HD
ENDROOT
BRANCH   1   3
ATOM      3  C   UNL     1       2.152   7.588  19.945  0.00  0.00    +0.000 A 
ATOM      4  C   UNL     1       2.154   7.731  18.554  0.00  0.00    +0.000 A 
ATOM      5  C   UNL     1       1.528   8.835  17.960  0.00  0.00    +0.000 A 
ATOM      6  C   UNL     1       0.903   9.796  18.756  0.00  0.00    +0.000 A 
ATOM      7  C   UNL     1       0.916   9.650  20.146  0.00  0.00    +0.000 A 
ATOM      8  C   UNL     1       1.532   8.540  20.740  0.00  0.00    +0.000 A 
BRANCH   7   9
ATOM      9  S   UNL     1      -0.014  10.759  21.171  0.00  0.00    +0.000 S 
ATOM     10  O   UNL     1      -0.816   9.951  22.072  0.00  0.00    +0.000 OA
ATOM     11  O   UNL     1       0.872  11.766  21.704  0.00  0.00    +0.000 OA
BRANCH   9  12
ATOM     12  N   UNL     1      -1.121  11.506  20.168  0.00  0.00    +0.000 N 
ATOM     13  C   UNL     1      -2.212  12.243  20.619  0.00  0.00    +0.000 C 
ATOM     14  N   UNL     1      -2.200  12.885  21.732  0.00  0.00    +0.000 NA
ATOM     15  C   UNL     1      -3.525  13.503  21.842  0.00  0.00    +0.000 C 
ATOM     16  C   UNL     1      -4.133  13.483  20.455  0.00  0.00    +0.000 C 
ATOM     17  C   UNL     1      -3.454  12.309  19.796  0.00  0.00    +0.000 C 
ATOM     18  H   UNL     1      -1.100  11.114  19.231  0.00  0.00    +0.000 HD
ENDBRANCH   9  12
ENDBRANCH   7   9
ENDBRANCH   1   3
BRANCH   1  19
ATOM     19  S   UNL     1       1.837   4.955  20.437  0.00  0.00    +0.000 S 
ATOM     20  O   UNL     1       0.425   5.247  20.298  0.00  0.00    +0.000 OA
ATOM     21  O   UNL     1       2.312   4.154  21.551  0.00  0.00    +0.000 OA
BRANCH  19  28
ATOM     22  C   UNL     1       0.757   2.264  18.997  0.00  0.00    +0.000 C 
ATOM     23  C   UNL     1       1.968   2.967  18.452  0.00  0.00    +0.000 A 
ATOM     24  C   UNL     1       2.613   2.391  17.344  0.00  0.00    +0.000 A 
ATOM     25  C   UNL     1       3.715   3.001  16.738  0.00  0.00    +0.000 A 
ATOM     26  C   UNL     1       4.259   4.190  17.239  0.00  0.00    +0.000 A 
ATOM     27  C   UNL     1       3.616   4.764  18.358  0.00  0.00    +0.000 A 
ATOM     28  C   UNL     1       2.480   4.171  18.957  0.00  0.00    +0.000 A 
BRANCH  26  29
ATOM     29  C   UNL     1       5.479   4.849  16.566  0.00  0.00    +0.000 C 
ATOM     30  C   UNL     1       5.676   4.215  15.175  0.00  0.00    +0.000 C 
ATOM     31  C   UNL     1       5.295   6.374  16.402  0.00  0.00    +0.000 C 
ATOM     32  C   UNL     1       6.793   4.658  17.366  0.00  0.00    +0.000 C 
ENDBRANCH  26  29
ENDBRANCH  19  28
ENDBRANCH   1  19
TORSDOF 6
ENDMDL
MODEL 5
REMARK VINA RESULT:      -7.9      1.284      1.860
REMARK  Name = 
REMARK  10 active torsions:
REMARK  status: ('A' for Active; 'I' for Inactive)
REMARK    1  A    between atoms: C_1  and  C_2
REMARK    2  A    between atoms: C_5  and  C_6
REMARK    3  A    between atoms: C_6  and  C_7
REMARK    4  A    between atoms: C_6  and  C_8
REMARK    5  A    between atoms: C_6  and  C_9
REMARK    6  A    between atoms: C_11  and  S_12
REMARK    7  A    between atoms: S_12  and  N_15
REMARK    8  A    between atoms: N_15  and  C_16
REMARK    9  A    between atoms: C_20  and  S_21
REMARK   10  A    between atoms: S_21  and  N_24
REMARK                            x       y       z     vdW  Elec       q    Type
REMARK                         _______ _______ _______ _____ _____    ______ ____
ROOT
ATOM      1  N   UNL     1       2.312   6.562  20.896  0.00  0.00    +0.000 N 
ATOM      2  H   UNL     1       1.968   6.839  21.816  0.00  0.00    +0.000 HD
ENDROOT
BRANCH   1   3
ATOM      3  C   UNL     1       2.148   7.520  19.855  0.00  0.00    +0.000 A 
ATOM      4  C   UNL     1       2.700   7.308  18.588  0.00  0.00    +0.000 A 
ATOM      5  C   UNL     1       2.430   8.202  17.544  0.00  0.00    +0.000 A 
ATOM      6  C   UNL     1       1.611   9.310  17.767  0.00  0.00    +0.000 A 
ATOM      7  C   UNL     1       1.072   9.519  19.039  0.00  0.00    +0.000 A 
ATOM      8  C   UNL     1       1.332   8.619  20.081  0.00  0.00    +0.000 A 
BRANCH   7   9
ATOM      9  S   UNL     1      -0.108  10.816  19.309  0.00  0.00    +0.000 S 
ATOM     10  O   UNL     1      -0.958  10.411  20.413  0.00  0.00    +0.000 OA
ATOM     11  O   UNL     1       0.585  12.081  19.362  0.00  0.00    +0.000 OA
BRANCH   9  12
ATOM     12  N   UNL     1      -1.112  10.820  17.975  0.00  0.00    +0.000 N 
ATOM     13  C   UNL     1      -2.477  11.090  18.025  0.00  0.00    +0.000 C 
ATOM     14  N   UNL     1      -2.996  11.870  18.905  0.00  0.00    +0.000 NA
ATOM     15  C   UNL     1      -4.435  11.872  18.626  0.00  0.00    +0.000 C 
ATOM     16  C   UNL     1      -4.609  11.337  17.220  0.00  0.00    +0.000 C 
ATOM     17  C   UNL     1      -3.393  10.465  17.027  0.00  0.00    +0.000 C 
ATOM     18  H   UNL     1      -0.704  10.308  17.199  0.00  0.00    +0.000 HD
ENDBRANCH   9  12
ENDBRANCH   7   9
ENDBRANCH   1   3
BRANCH   1  19
ATOM     19  S   UNL     1       1.932   4.939  20.608  0.00  0.00    +0.000 S 
ATOM     20  O   UNL     1       0.537   4.854  20.225  0.00  0.00    +0.000 OA
ATOM     21  O   UNL     1       2.412   4.230  21.781  0.00  0.00    +0.000 OA
BRANCH  19  28
ATOM     22  C   UNL     1       1.339   2.709  18.338  0.00  0.00    +0.000 C 
ATOM     23  C   UNL     1       2.666   3.415  18.362  0.00  0.00    +0.000 A 
ATOM     24  C   UNL     1       3.622   3.039  17.403  0.00  0.00    +0.000 A 
ATOM     25  C   UNL     1       4.863   3.676  17.317  0.00  0.00    +0.000 A 
ATOM     26  C   UNL     1       5.231   4.685  18.215  0.00  0.00    +0.000 A 
ATOM     27  C   UNL     1       4.272   5.057  19.184  0.00  0.00    +0.000 A 
ATOM     28  C   UNL     1       3.001   4.441  19.258  0.00  0.00    +0.000 A 
BRANCH  26  29
ATOM     29  C   UNL     1       6.605   5.376  18.114  0.00  0.00    +0.000 C 
ATOM     30  C   UNL     1       6.424   6.729  17.399  0.00  0.00    +0.000 C 
ATOM     31  C   UNL     1       7.233   5.622  19.504  0.00  0.00    +0.000 C 
ATOM     32  C   UNL     1       7.644   4.550  17.313  0.00  0.00    +0.000 C 
ENDBRANCH  26  29
ENDBRANCH  19  28
ENDBRANCH   1  19
TORSDOF 6
ENDMDL
MODEL 6
REMARK VINA RESULT:      -7.9      2.634      8.241
REMARK  Name = 
REMARK  10 active torsions:
REMARK  status: ('A' for Active; 'I' for Inactive)
REMARK    1  A    between atoms: C_1  and  C_2
REMARK    2  A    between atoms: C_5  and  C_6
REMARK    3  A    between atoms: C_6  and  C_7
REMARK    4  A    between atoms: C_6  and  C_8
REMARK    5  A    between atoms: C_6  and  C_9
REMARK    6  A    between atoms: C_11  and  S_12
REMARK    7  A    between atoms: S_12  and  N_15
REMARK    8  A    between atoms: N_15  and  C_16
REMARK    9  A    between atoms: C_20  and  S_21
REMARK   10  A    between atoms: S_21  and  N_24
REMARK                            x       y       z     vdW  Elec       q    Type
REMARK                         _______ _______ _______ _____ _____    ______ ____
ROOT
ATOM      1  N   UNL     1       1.695   8.866  21.314  0.00  0.00    +0.000 N 
ATOM      2  H   UNL     1       2.414   9.571  21.479  0.00  0.00    +0.000 HD
ENDROOT
BRANCH   1   3
ATOM      3  C   UNL     1       1.865   8.063  20.150  0.00  0.00    +0.000 A 
ATOM      4  C   UNL     1       1.995   8.646  18.886  0.00  0.00    +0.000 A 
ATOM      5  C   UNL     1       2.279   7.850  17.768  0.00  0.00    +0.000 A 
ATOM      6  C   UNL     1       2.430   6.470  17.915  0.00  0.00    +0.000 A 
ATOM      7  C   UNL     1       2.288   5.895  19.180  0.00  0.00    +0.000 A 
ATOM      8  C   UNL     1       2.015   6.692  20.300  0.00  0.00    +0.000 A 
BRANCH   7   9
ATOM      9  S   UNL     1       2.644   4.174  19.426  0.00  0.00    +0.000 S 
ATOM     10  O   UNL     1       3.149   4.022  20.778  0.00  0.00    +0.000 OA
ATOM     11  O   UNL     1       1.513   3.390  18.989  0.00  0.00    +0.000 OA
BRANCH   9  12
ATOM     12  N   UNL     1       3.944   3.820  18.440  0.00  0.00    +0.000 N 
ATOM     13  C   UNL     1       5.182   4.453  18.522  0.00  0.00    +0.000 C 
ATOM     14  N   UNL     1       5.645   4.926  19.623  0.00  0.00    +0.000 NA
ATOM     15  C   UNL     1       6.943   5.516  19.280  0.00  0.00    +0.000 C 
ATOM     16  C   UNL     1       7.345   4.939  17.938  0.00  0.00    +0.000 C 
ATOM     17  C   UNL     1       6.022   4.596  17.298  0.00  0.00    +0.000 C 
ATOM     18  H   UNL     1       3.652   3.339  17.595  0.00  0.00    +0.000 HD
ENDBRANCH   9  12
ENDBRANCH   7   9
ENDBRANCH   1   3
BRANCH   1  19
ATOM     19  S   UNL     1       0.172   9.506  21.674  0.00  0.00    +0.000 S 
ATOM     20  O   UNL     1       0.259  10.224  22.930  0.00  0.00    +0.000 OA
ATOM     21  O   UNL     1      -0.745   8.389  21.534  0.00  0.00    +0.000 OA
BRANCH  19  28
ATOM     22  C   UNL     1       1.697  12.257  20.907  0.00  0.00    +0.000 C 
ATOM     23  C   UNL     1       0.495  11.824  20.115  0.00  0.00    +0.000 A 
ATOM     24  C   UNL     1       0.055  12.670  19.083  0.00  0.00    +0.000 A 
ATOM     25  C   UNL     1      -1.022  12.325  18.261  0.00  0.00    +0.000 A 
ATOM     26  C   UNL     1      -1.744  11.143  18.461  0.00  0.00    +0.000 A 
ATOM     27  C   UNL     1      -1.308  10.297  19.505  0.00  0.00    +0.000 A 
ATOM     28  C   UNL     1      -0.198  10.622  20.320  0.00  0.00    +0.000 A 
BRANCH  26  29
ATOM     29  C   UNL     1      -2.935  10.777  17.552  0.00  0.00    +0.000 C 
ATOM     30  C   UNL     1      -4.113  11.713  17.885  0.00  0.00    +0.000 C 
ATOM     31  C   UNL     1      -2.585  10.921  16.055  0.00  0.00    +0.000 C 
ATOM     32  C   UNL     1      -3.420   9.317  17.742  0.00  0.00    +0.000 C 
ENDBRANCH  26  29
ENDBRANCH  19  28
ENDBRANCH   1  19
TORSDOF 6
ENDMDL
MODEL 7
REMARK VINA RESULT:      -7.9      0.742      1.064
REMARK  Name = 
REMARK  10 active torsions:
REMARK  status: ('A' for Active; 'I' for Inactive)
REMARK    1  A    between atoms: C_1  and  C_2
REMARK    2  A    between atoms: C_5  and  C_6
REMARK    3  A    between atoms: C_6  and  C_7
REMARK    4  A    between atoms: C_6  and  C_8
REMARK    5  A    between atoms: C_6  and  C_9
REMARK    6  A    between atoms: C_11  and  S_12
REMARK    7  A    between atoms: S_12  and  N_15
REMARK    8  A    between atoms: N_15  and  C_16
REMARK    9  A    between atoms: C_20  and  S_21
REMARK   10  A    between atoms: S_21  and  N_24
REMARK                            x       y       z     vdW  Elec       q    Type
REMARK                         _______ _______ _______ _____ _____    ______ ____
ROOT
ATOM      1  N   UNL     1       2.424   6.867  20.074  0.00  0.00    +0.000 N 
ATOM      2  H   UNL     1       3.412   6.964  20.308  0.00  0.00    +0.000 HD
ENDROOT
BRANCH   1   3
ATOM      3  C   UNL     1       1.576   7.932  20.496  0.00  0.00    +0.000 A 
ATOM      4  C   UNL     1       1.075   7.980  21.801  0.00  0.00    +0.000 A 
ATOM      5  C   UNL     1       0.342   9.093  22.233  0.00  0.00    +0.000 A 
ATOM      6  C   UNL     1       0.107  10.157  21.359  0.00  0.00    +0.000 A 
ATOM      7  C   UNL     1       0.602  10.094  20.054  0.00  0.00    +0.000 A 
ATOM      8  C   UNL     1       1.345   8.987  19.625  0.00  0.00    +0.000 A 
BRANCH   7   9
ATOM      9  S   UNL     1       0.469  11.499  18.979  0.00  0.00    +0.000 S 
ATOM     10  O   UNL     1      -0.250  12.534  19.699  0.00  0.00    +0.000 OA
ATOM     11  O   UNL     1       1.765  11.785  18.413  0.00  0.00    +0.000 OA
BRANCH   9  12
ATOM     12  N   UNL     1      -0.558  11.046  17.743  0.00  0.00    +0.000 N 
ATOM     13  C   UNL     1      -1.947  11.048  17.840  0.00  0.00    +0.000 C 
ATOM     14  N   UNL     1      -2.586  11.867  18.597  0.00  0.00    +0.000 NA
ATOM     15  C   UNL     1      -4.003  11.532  18.427  0.00  0.00    +0.000 C 
ATOM     16  C   UNL     1      -4.110  10.710  17.159  0.00  0.00    +0.000 C 
ATOM     17  C   UNL     1      -2.747  10.073  17.043  0.00  0.00    +0.000 C 
ATOM     18  H   UNL     1      -0.079  10.483  17.046  0.00  0.00    +0.000 HD
ENDBRANCH   9  12
ENDBRANCH   7   9
ENDBRANCH   1   3
BRANCH   1  19
ATOM     19  S   UNL     1       1.934   5.266  20.309  0.00  0.00    +0.000 S 
ATOM     20  O   UNL     1       0.489   5.209  20.222  0.00  0.00    +0.000 OA
ATOM     21  O   UNL     1       2.611   4.843  21.522  0.00  0.00    +0.000 OA
BRANCH  19  28
ATOM     22  C   UNL     1       1.425   2.172  19.501  0.00  0.00    +0.000 C 
ATOM     23  C   UNL     1       2.443   2.982  18.749  0.00  0.00    +0.000 A 
ATOM     24  C   UNL     1       3.170   2.336  17.735  0.00  0.00    +0.000 A 
ATOM     25  C   UNL     1       4.100   3.021  16.948  0.00  0.00    +0.000 A 
ATOM     26  C   UNL     1       4.387   4.374  17.167  0.00  0.00    +0.000 A 
ATOM     27  C   UNL     1       3.662   5.021  18.193  0.00  0.00    +0.000 A 
ATOM     28  C   UNL     1       2.695   4.344  18.972  0.00  0.00    +0.000 A 
BRANCH  26  29
ATOM     29  C   UNL     1       5.419   5.118  16.298  0.00  0.00    +0.000 C 
ATOM     30  C   UNL     1       6.806   4.984  16.958  0.00  0.00    +0.000 C 
ATOM     31  C   UNL     1       5.488   4.545  14.865  0.00  0.00    +0.000 C 
ATOM     32  C   UNL     1       5.110   6.628  16.143  0.00  0.00    +0.000 C 
ENDBRANCH  26  29
ENDBRANCH  19  28
ENDBRANCH   1  19
TORSDOF 6
ENDMDL
MODEL 8
REMARK VINA RESULT:      -7.8      1.238      2.040
REMARK  Name = 
REMARK  10 active torsions:
REMARK  status: ('A' for Active; 'I' for Inactive)
REMARK    1  A    between atoms: C_1  and  C_2
REMARK    2  A    between atoms: C_5  and  C_6
REMARK    3  A    between atoms: C_6  and  C_7
REMARK    4  A    between atoms: C_6  and  C_8
REMARK    5  A    between atoms: C_6  and  C_9
REMARK    6  A    between atoms: C_11  and  S_12
REMARK    7  A    between atoms: S_12  and  N_15
REMARK    8  A    between atoms: N_15  and  C_16
REMARK    9  A    between atoms: C_20  and  S_21
REMARK   10  A    between atoms: S_21  and  N_24
REMARK                            x       y       z     vdW  Elec       q    Type
REMARK                         _______ _______ _______ _____ _____    ______ ____
ROOT
ATOM      1  N   UNL     1       2.640   6.436  20.588  0.00  0.00    +0.000 N 
ATOM      2  H   UNL     1       2.778   6.685  21.569  0.00  0.00    +0.000 HD
ENDROOT
BRANCH   1   3
ATOM      3  C   UNL     1       2.264   7.503  19.722  0.00  0.00    +0.000 A 
ATOM      4  C   UNL     1       2.692   7.533  18.391  0.00  0.00    +0.000 A 
ATOM      5  C   UNL     1       2.217   8.525  17.522  0.00  0.00    +0.000 A 
ATOM      6  C   UNL     1       1.318   9.488  17.985  0.00  0.00    +0.000 A 
ATOM      7  C   UNL     1       0.906   9.455  19.320  0.00  0.00    +0.000 A 
ATOM      8  C   UNL     1       1.371   8.457  20.186  0.00  0.00    +0.000 A 
BRANCH   7   9
ATOM      9  S   UNL     1      -0.364  10.555  19.891  0.00  0.00    +0.000 S 
ATOM     10  O   UNL     1      -0.474  10.385  21.328  0.00  0.00    +0.000 OA
ATOM     11  O   UNL     1      -0.136  11.868  19.338  0.00  0.00    +0.000 OA
BRANCH   9  12
ATOM     12  N   UNL     1      -1.802   9.967  19.279  0.00  0.00    +0.000 N 
ATOM     13  C   UNL     1      -2.351  10.356  18.061  0.00  0.00    +0.000 C 
ATOM     14  N   UNL     1      -1.628  10.731  17.066  0.00  0.00    +0.000 NA
ATOM     15  C   UNL     1      -2.576  11.068  15.999  0.00  0.00    +0.000 C 
ATOM     16  C   UNL     1      -3.899  10.430  16.372  0.00  0.00    +0.000 C 
ATOM     17  C   UNL     1      -3.831  10.344  17.876  0.00  0.00    +0.000 C 
ATOM     18  H   UNL     1      -2.376   9.552  20.008  0.00  0.00    +0.000 HD
ENDBRANCH   9  12
ENDBRANCH   7   9
ENDBRANCH   1   3
BRANCH   1  19
ATOM     19  S   UNL     1       1.841   4.950  20.482  0.00  0.00    +0.000 S 
ATOM     20  O   UNL     1       0.429   5.200  20.276  0.00  0.00    +0.000 OA
ATOM     21  O   UNL     1       2.289   4.201  21.643  0.00  0.00    +0.000 OA
BRANCH  19  28
ATOM     22  C   UNL     1       0.801   2.260  19.011  0.00  0.00    +0.000 C 
ATOM     23  C   UNL     1       2.060   2.929  18.538  0.00  0.00    +0.000 A 
ATOM     24  C   UNL     1       2.764   2.324  17.483  0.00  0.00    +0.000 A 
ATOM     25  C   UNL     1       3.916   2.902  16.943  0.00  0.00    +0.000 A 
ATOM     26  C   UNL     1       4.451   4.087  17.462  0.00  0.00    +0.000 A 
ATOM     27  C   UNL     1       3.748   4.691  18.528  0.00  0.00    +0.000 A 
ATOM     28  C   UNL     1       2.563   4.131  19.059  0.00  0.00    +0.000 A 
BRANCH  26  29
ATOM     29  C   UNL     1       5.726   4.712  16.862  0.00  0.00    +0.000 C 
ATOM     30  C   UNL     1       6.093   3.942  15.578  0.00  0.00    +0.000 C 
ATOM     31  C   UNL     1       5.532   6.204  16.516  0.00  0.00    +0.000 C 
ATOM     32  C   UNL     1       6.944   4.647  17.819  0.00  0.00    +0.000 C 
ENDBRANCH  26  29
ENDBRANCH  19  28
ENDBRANCH   1  19
TORSDOF 6
ENDMDL
MODEL 9
REMARK VINA RESULT:      -7.8      2.055      2.909
REMARK  Name = 
REMARK  10 active torsions:
REMARK  status: ('A' for Active; 'I' for Inactive)
REMARK    1  A    between atoms: C_1  and  C_2
REMARK    2  A    between atoms: C_5  and  C_6
REMARK    3  A    between atoms: C_6  and  C_7
REMARK    4  A    between atoms: C_6  and  C_8
REMARK    5  A    between atoms: C_6  and  C_9
REMARK    6  A    between atoms: C_11  and  S_12
REMARK    7  A    between atoms: S_12  and  N_15
REMARK    8  A    between atoms: N_15  and  C_16
REMARK    9  A    between atoms: C_20  and  S_21
REMARK   10  A    between atoms: S_21  and  N_24
REMARK                            x       y       z     vdW  Elec       q    Type
REMARK                         _______ _______ _______ _____ _____    ______ ____
ROOT
ATOM      1  N   UNL     1       2.406   6.902  20.441  0.00  0.00    +0.000 N 
ATOM      2  H   UNL     1       3.330   6.959  20.871  0.00  0.00    +0.000 HD
ENDROOT
BRANCH   1   3
ATOM      3  C   UNL     1       1.500   7.953  20.769  0.00  0.00    +0.000 A 
ATOM      4  C   UNL     1       1.197   8.252  22.101  0.00  0.00    +0.000 A 
ATOM      5  C   UNL     1       0.399   9.362  22.409  0.00  0.00    +0.000 A 
ATOM      6  C   UNL     1      -0.099  10.170  21.385  0.00  0.00    +0.000 A 
ATOM      7  C   UNL     1       0.201   9.856  20.057  0.00  0.00    +0.000 A 
ATOM      8  C   UNL     1       1.009   8.753  19.749  0.00  0.00    +0.000 A 
BRANCH   7   9
ATOM      9  S   UNL     1      -0.271  10.958  18.749  0.00  0.00    +0.000 S 
ATOM     10  O   UNL     1      -0.764  10.148  17.651  0.00  0.00    +0.000 OA
ATOM     11  O   UNL     1      -1.096  12.011  19.292  0.00  0.00    +0.000 OA
BRANCH   9  12
ATOM     12  N   UNL     1       1.143  11.638  18.178  0.00  0.00    +0.000 N 
ATOM     13  C   UNL     1       1.832  12.664  18.819  0.00  0.00    +0.000 C 
ATOM     14  N   UNL     1       1.814  12.817  20.095  0.00  0.00    +0.000 NA
ATOM     15  C   UNL     1       2.636  14.002  20.359  0.00  0.00    +0.000 C 
ATOM     16  C   UNL     1       3.467  14.244  19.115  0.00  0.00    +0.000 C 
ATOM     17  C   UNL     1       2.632  13.634  18.016  0.00  0.00    +0.000 C 
ATOM     18  H   UNL     1       1.272  11.455  17.187  0.00  0.00    +0.000 HD
ENDBRANCH   9  12
ENDBRANCH   7   9
ENDBRANCH   1   3
BRANCH   1  19
ATOM     19  S   UNL     1       1.867   5.300  20.451  0.00  0.00    +0.000 S 
ATOM     20  O   UNL     1       0.419   5.300  20.403  0.00  0.00    +0.000 OA
ATOM     21  O   UNL     1       2.561   4.680  21.567  0.00  0.00    +0.000 OA
BRANCH  19  28
ATOM     22  C   UNL     1       0.885   2.614  18.934  0.00  0.00    +0.000 C 
ATOM     23  C   UNL     1       2.089   3.358  18.429  0.00  0.00    +0.000 A 
ATOM     24  C   UNL     1       2.771   2.822  17.324  0.00  0.00    +0.000 A 
ATOM     25  C   UNL     1       3.869   3.472  16.754  0.00  0.00    +0.000 A 
ATOM     26  C   UNL     1       4.372   4.663  17.290  0.00  0.00    +0.000 A 
ATOM     27  C   UNL     1       3.692   5.197  18.407  0.00  0.00    +0.000 A 
ATOM     28  C   UNL     1       2.559   4.564  18.970  0.00  0.00    +0.000 A 
BRANCH  26  29
ATOM     29  C   UNL     1       5.589   5.367  16.656  0.00  0.00    +0.000 C 
ATOM     30  C   UNL     1       5.586   5.085  15.141  0.00  0.00    +0.000 C 
ATOM     31  C   UNL     1       5.556   6.894  16.884  0.00  0.00    +0.000 C 
ATOM     32  C   UNL     1       6.942   4.876  17.228  0.00  0.00    +0.000 C 
ENDBRANCH  26  29
ENDBRANCH  19  28
ENDBRANCH   1  19
TORSDOF 6
ENDMDL
