MODEL 1
REMARK VINA RESULT:      -6.5      0.000      0.000
REMARK  Name = 
REMARK  5 active torsions:
REMARK  status: ('A' for Active; 'I' for Inactive)
REMARK    1  A    between atoms: C_1  and  C_2
REMARK    2  A    between atoms: C_7  and  C_8
REMARK    3  A    between atoms: C_12  and  C_13
REMARK    4  A    between atoms: C_24  and  C_25
REMARK    5  A    between atoms: C_25  and  O_27
REMARK                            x       y       z     vdW  Elec       q    Type
REMARK                         _______ _______ _______ _____ _____    ______ ____
ROOT
ATOM      1  C   UNL     1      -5.558  14.724  21.425  0.00  0.00    +0.000 C 
ATOM      2  O   UNL     1      -5.244  15.359  20.420  0.00  0.00    +0.000 OA
ATOM      3  N   UNL     1      -6.908  14.451  21.813  0.00  0.00    +0.000 N 
ATOM      4  C   UNL     1      -7.858  14.703  20.724  0.00  0.00    +0.000 C 
ATOM      5  C   UNL     1      -7.709  13.581  19.711  0.00  0.00    +0.000 A 
ATOM      6  C   UNL     1      -7.873  13.868  18.353  0.00  0.00    +0.000 A 
ATOM      7  C   UNL     1      -7.403  12.970  17.399  0.00  0.00    +0.000 A 
ATOM      8  C   UNL     1      -6.840  11.758  17.795  0.00  0.00    +0.000 A 
ATOM      9  C   UNL     1      -6.806  11.401  19.144  0.00  0.00    +0.000 A 
ATOM     10  C   UNL     1      -7.224  12.312  20.120  0.00  0.00    +0.000 A 
ATOM     11  C   UNL     1      -6.986  11.979  21.588  0.00  0.00    +0.000 C 
ATOM     12  C   UNL     1      -7.274  13.179  22.492  0.00  0.00    +0.000 C 
ENDROOT
BRANCH   1  21
ATOM     13  C   UNL     1      -5.619  16.905  24.287  0.00  0.00    +0.000 C 
ATOM     14  C   UNL     1      -4.456  15.995  24.341  0.00  0.00    +0.000 A 
ATOM     15  N   UNL     1      -3.589  16.150  25.351  0.00  0.00    +0.000 NA
ATOM     16  O   UNL     1      -2.638  15.166  25.186  0.00  0.00    +0.000 OA
ATOM     17  C   UNL     1      -2.926  14.429  24.080  0.00  0.00    +0.000 A 
ATOM     18  N   UNL     1      -2.162  13.407  23.669  0.00  0.00    +0.000 NA
ATOM     19  C   UNL     1      -2.599  12.769  22.568  0.00  0.00    +0.000 A 
ATOM     20  C   UNL     1      -3.766  13.136  21.905  0.00  0.00    +0.000 A 
ATOM     21  C   UNL     1      -4.456  14.285  22.288  0.00  0.00    +0.000 A 
ATOM     22  C   UNL     1      -4.074  14.929  23.476  0.00  0.00    +0.000 A 
BRANCH  19  23
ATOM     23  C   UNL     1      -1.724  11.698  21.967  0.00  0.00    +0.000 C 
ATOM     24  C   UNL     1      -0.927  10.753  22.833  0.00  0.00    +0.000 C 
ATOM     25  C   UNL     1      -0.223  11.820  22.048  0.00  0.00    +0.000 C 
ENDBRANCH  19  23
ENDBRANCH   1  21
BRANCH  12  26
ATOM     26  C   UNL     1      -6.862  12.992  23.944  0.00  0.00    +0.000 C 
ATOM     27  O   UNL     1      -6.142  12.108  24.370  0.00  0.00    +0.000 OA
BRANCH  26  28
ATOM     28  O   UNL     1      -7.535  13.840  24.786  0.00  0.00    +0.000 OA
ATOM     29  H   UNL     1      -7.137  13.845  25.682  0.00  0.00    +0.000 HD
ENDBRANCH  26  28
ENDBRANCH  12  26
TORSDOF 4
ENDMDL
MODEL 2
REMARK VINA RESULT:      -6.4      3.644      6.456
REMARK  Name = 
REMARK  5 active torsions:
REMARK  status: ('A' for Active; 'I' for Inactive)
REMARK    1  A    between atoms: C_1  and  C_2
REMARK    2  A    between atoms: C_7  and  C_8
REMARK    3  A    between atoms: C_12  and  C_13
REMARK    4  A    between atoms: C_24  and  C_25
REMARK    5  A    between atoms: C_25  and  O_27
REMARK                            x       y       z     vdW  Elec       q    Type
REMARK                         _______ _______ _______ _____ _____    ______ ____
ROOT
ATOM      1  C   UNL     1      -1.151  13.314  20.569  0.00  0.00    +0.000 C 
ATOM      2  O   UNL     1      -1.500  14.453  20.265  0.00  0.00    +0.000 OA
ATOM      3  N   UNL     1      -0.458  12.982  21.776  0.00  0.00    +0.000 N 
ATOM      4  C   UNL     1      -0.513  14.067  22.761  0.00  0.00    +0.000 C 
ATOM      5  C   UNL     1      -1.917  14.099  23.338  0.00  0.00    +0.000 A 
ATOM      6  C   UNL     1      -2.481  15.331  23.682  0.00  0.00    +0.000 A 
ATOM      7  C   UNL     1      -3.856  15.430  23.869  0.00  0.00    +0.000 A 
ATOM      8  C   UNL     1      -4.658  14.293  23.787  0.00  0.00    +0.000 A 
ATOM      9  C   UNL     1      -4.084  13.036  23.588  0.00  0.00    +0.000 A 
ATOM     10  C   UNL     1      -2.711  12.923  23.346  0.00  0.00    +0.000 A 
ATOM     11  C   UNL     1      -2.146  11.571  22.930  0.00  0.00    +0.000 C 
ATOM     12  C   UNL     1      -0.692  11.686  22.468  0.00  0.00    +0.000 C 
ENDROOT
BRANCH   1  21
ATOM     13  C   UNL     1      -4.722  13.296  20.117  0.00  0.00    +0.000 C 
ATOM     14  C   UNL     1      -4.088  12.199  19.357  0.00  0.00    +0.000 A 
ATOM     15  N   UNL     1      -4.890  11.347  18.704  0.00  0.00    +0.000 NA
ATOM     16  O   UNL     1      -4.054  10.461  18.060  0.00  0.00    +0.000 OA
ATOM     17  C   UNL     1      -2.758  10.771  18.329  0.00  0.00    +0.000 A 
ATOM     18  N   UNL     1      -1.726  10.068  17.842  0.00  0.00    +0.000 NA
ATOM     19  C   UNL     1      -0.507  10.521  18.188  0.00  0.00    +0.000 A 
ATOM     20  C   UNL     1      -0.327  11.644  18.989  0.00  0.00    +0.000 A 
ATOM     21  C   UNL     1      -1.426  12.265  19.581  0.00  0.00    +0.000 A 
ATOM     22  C   UNL     1      -2.713  11.869  19.181  0.00  0.00    +0.000 A 
BRANCH  19  23
ATOM     23  C   UNL     1       0.698   9.706  17.791  0.00  0.00    +0.000 C 
ATOM     24  C   UNL     1       1.517   8.958  18.815  0.00  0.00    +0.000 C 
ATOM     25  C   UNL     1       2.082  10.183  18.157  0.00  0.00    +0.000 C 
ENDBRANCH  19  23
ENDBRANCH   1  21
BRANCH  12  26
ATOM     26  C   UNL     1      -0.124  10.422  21.842  0.00  0.00    +0.000 C 
ATOM     27  O   UNL     1      -0.761   9.431  21.537  0.00  0.00    +0.000 OA
BRANCH  26  28
ATOM     28  O   UNL     1       1.248  10.433  21.806  0.00  0.00    +0.000 OA
ATOM     29  H   UNL     1       1.587  10.039  20.975  0.00  0.00    +0.000 HD
ENDBRANCH  26  28
ENDBRANCH  12  26
TORSDOF 4
ENDMDL
MODEL 3
REMARK VINA RESULT:      -6.3     14.225     16.153
REMARK  Name = 
REMARK  5 active torsions:
REMARK  status: ('A' for Active; 'I' for Inactive)
REMARK    1  A    between atoms: C_1  and  C_2
REMARK    2  A    between atoms: C_7  and  C_8
REMARK    3  A    between atoms: C_12  and  C_13
REMARK    4  A    between atoms: C_24  and  C_25
REMARK    5  A    between atoms: C_25  and  O_27
REMARK                            x       y       z     vdW  Elec       q    Type
REMARK                         _______ _______ _______ _____ _____    ______ ____
ROOT
ATOM      1  C   UNL     1       9.229  14.291  18.655  0.00  0.00    +0.000 C 
ATOM      2  O   UNL     1       8.286  15.078  18.716  0.00  0.00    +0.000 OA
ATOM      3  N   UNL     1      10.431  14.534  17.918  0.00  0.00    +0.000 N 
ATOM      4  C   UNL     1      10.568  15.942  17.533  0.00  0.00    +0.000 C 
ATOM      5  C   UNL     1      10.934  16.729  18.779  0.00  0.00    +0.000 A 
ATOM      6  C   UNL     1      10.443  18.029  18.928  0.00  0.00    +0.000 A 
ATOM      7  C   UNL     1      10.459  18.631  20.182  0.00  0.00    +0.000 A 
ATOM      8  C   UNL     1      11.028  17.970  21.270  0.00  0.00    +0.000 A 
ATOM      9  C   UNL     1      11.651  16.733  21.098  0.00  0.00    +0.000 A 
ATOM     10  C   UNL     1      11.599  16.089  19.857  0.00  0.00    +0.000 A 
ATOM     11  C   UNL     1      12.105  14.656  19.750  0.00  0.00    +0.000 C 
ATOM     12  C   UNL     1      11.746  14.031  18.400  0.00  0.00    +0.000 C 
ENDROOT
BRANCH   1  21
ATOM     13  C   UNL     1       8.992  15.076  22.160  0.00  0.00    +0.000 C 
ATOM     14  C   UNL     1       8.996  13.615  21.945  0.00  0.00    +0.000 A 
ATOM     15  N   UNL     1       8.991  12.825  23.028  0.00  0.00    +0.000 NA
ATOM     16  O   UNL     1       8.958  11.532  22.552  0.00  0.00    +0.000 OA
ATOM     17  C   UNL     1       8.951  11.543  21.192  0.00  0.00    +0.000 A 
ATOM     18  N   UNL     1       8.933  10.422  20.457  0.00  0.00    +0.000 NA
ATOM     19  C   UNL     1       8.908  10.608  19.125  0.00  0.00    +0.000 A 
ATOM     20  C   UNL     1       8.895  11.874  18.547  0.00  0.00    +0.000 A 
ATOM     21  C   UNL     1       9.050  13.008  19.343  0.00  0.00    +0.000 A 
ATOM     22  C   UNL     1       9.000  12.856  20.739  0.00  0.00    +0.000 A 
BRANCH  19  23
ATOM     23  C   UNL     1       9.022   9.399  18.231  0.00  0.00    +0.000 C 
ATOM     24  C   UNL     1       7.821   8.833  17.513  0.00  0.00    +0.000 C 
ATOM     25  C   UNL     1       8.423   8.084  18.665  0.00  0.00    +0.000 C 
ENDBRANCH  19  23
ENDBRANCH   1  21
BRANCH  12  26
ATOM     26  C   UNL     1      12.031  12.541  18.295  0.00  0.00    +0.000 C 
ATOM     27  O   UNL     1      12.301  11.802  19.223  0.00  0.00    +0.000 OA
BRANCH  26  28
ATOM     28  O   UNL     1      12.127  12.123  16.992  0.00  0.00    +0.000 OA
ATOM     29  H   UNL     1      12.742  12.688  16.479  0.00  0.00    +0.000 HD
ENDBRANCH  26  28
ENDBRANCH  12  26
TORSDOF 4
ENDMDL
MODEL 4
REMARK VINA RESULT:      -6.1      4.090      6.331
REMARK  Name = 
REMARK  5 active torsions:
REMARK  status: ('A' for Active; 'I' for Inactive)
REMARK    1  A    between atoms: C_1  and  C_2
REMARK    2  A    between atoms: C_7  and  C_8
REMARK    3  A    between atoms: C_12  and  C_13
REMARK    4  A    between atoms: C_24  and  C_25
REMARK    5  A    between atoms: C_25  and  O_27
REMARK                            x       y       z     vdW  Elec       q    Type
REMARK                         _______ _______ _______ _____ _____    ______ ____
ROOT
ATOM      1  C   UNL     1      -0.401  13.757  21.785  0.00  0.00    +0.000 C 
ATOM      2  O   UNL     1      -0.401  14.221  22.923  0.00  0.00    +0.000 OA
ATOM      3  N   UNL     1      -0.703  12.393  21.475  0.00  0.00    +0.000 N 
ATOM      4  C   UNL     1      -1.341  11.699  22.598  0.00  0.00    +0.000 C 
ATOM      5  C   UNL     1      -2.770  12.202  22.701  0.00  0.00    +0.000 A 
ATOM      6  C   UNL     1      -3.356  12.326  23.964  0.00  0.00    +0.000 A 
ATOM      7  C   UNL     1      -4.501  13.101  24.118  0.00  0.00    +0.000 A 
ATOM      8  C   UNL     1      -5.103  13.690  23.008  0.00  0.00    +0.000 A 
ATOM      9  C   UNL     1      -4.608  13.451  21.725  0.00  0.00    +0.000 A 
ATOM     10  C   UNL     1      -3.429  12.719  21.555  0.00  0.00    +0.000 A 
ATOM     11  C   UNL     1      -2.800  12.647  20.168  0.00  0.00    +0.000 C 
ATOM     12  C   UNL     1      -1.403  12.025  20.215  0.00  0.00    +0.000 C 
ENDROOT
BRANCH   1  21
ATOM     13  C   UNL     1      -2.953  16.291  21.654  0.00  0.00    +0.000 C 
ATOM     14  C   UNL     1      -1.976  16.470  20.561  0.00  0.00    +0.000 A 
ATOM     15  N   UNL     1      -2.203  17.448  19.674  0.00  0.00    +0.000 NA
ATOM     16  O   UNL     1      -1.138  17.419  18.800  0.00  0.00    +0.000 OA
ATOM     17  C   UNL     1      -0.279  16.426  19.153  0.00  0.00    +0.000 A 
ATOM     18  N   UNL     1       0.844  16.159  18.471  0.00  0.00    +0.000 NA
ATOM     19  C   UNL     1       1.593  15.157  18.966  0.00  0.00    +0.000 A 
ATOM     20  C   UNL     1       1.235  14.450  20.109  0.00  0.00    +0.000 A 
ATOM     21  C   UNL     1      -0.004  14.671  20.709  0.00  0.00    +0.000 A 
ATOM     22  C   UNL     1      -0.775  15.760  20.268  0.00  0.00    +0.000 A 
BRANCH  19  23
ATOM     23  C   UNL     1       2.799  14.710  18.179  0.00  0.00    +0.000 C 
ATOM     24  C   UNL     1       4.194  15.142  18.559  0.00  0.00    +0.000 C 
ATOM     25  C   UNL     1       3.549  15.701  17.324  0.00  0.00    +0.000 C 
ENDBRANCH  19  23
ENDBRANCH   1  21
BRANCH  12  26
ATOM     26  C   UNL     1      -0.629  12.108  18.908  0.00  0.00    +0.000 C 
ATOM     27  O   UNL     1       0.460  11.610  18.694  0.00  0.00    +0.000 OA
BRANCH  26  28
ATOM     28  O   UNL     1      -1.213  12.970  18.015  0.00  0.00    +0.000 OA
ATOM     29  H   UNL     1      -1.616  13.739  18.471  0.00  0.00    +0.000 HD
ENDBRANCH  26  28
ENDBRANCH  12  26
TORSDOF 4
ENDMDL
MODEL 5
REMARK VINA RESULT:      -6.1     10.903     14.314
REMARK  Name = 
REMARK  5 active torsions:
REMARK  status: ('A' for Active; 'I' for Inactive)
REMARK    1  A    between atoms: C_1  and  C_2
REMARK    2  A    between atoms: C_7  and  C_8
REMARK    3  A    between atoms: C_12  and  C_13
REMARK    4  A    between atoms: C_24  and  C_25
REMARK    5  A    between atoms: C_25  and  O_27
REMARK                            x       y       z     vdW  Elec       q    Type
REMARK                         _______ _______ _______ _____ _____    ______ ____
ROOT
ATOM      1  C   UNL     1       9.233  15.485  20.276  0.00  0.00    +0.000 C 
ATOM      2  O   UNL     1      10.400  15.431  20.656  0.00  0.00    +0.000 OA
ATOM      3  N   UNL     1       8.834  15.885  18.961  0.00  0.00    +0.000 N 
ATOM      4  C   UNL     1       9.959  15.891  18.020  0.00  0.00    +0.000 C 
ATOM      5  C   UNL     1      10.300  14.447  17.696  0.00  0.00    +0.000 A 
ATOM      6  C   UNL     1      11.635  14.098  17.477  0.00  0.00    +0.000 A 
ATOM      7  C   UNL     1      12.014  12.761  17.532  0.00  0.00    +0.000 A 
ATOM      8  C   UNL     1      11.056  11.768  17.731  0.00  0.00    +0.000 A 
ATOM      9  C   UNL     1       9.702  12.098  17.805  0.00  0.00    +0.000 A 
ATOM     10  C   UNL     1       9.307  13.439  17.805  0.00  0.00    +0.000 A 
ATOM     11  C   UNL     1       7.848  13.777  18.092  0.00  0.00    +0.000 C 
ATOM     12  C   UNL     1       7.648  15.280  18.297  0.00  0.00    +0.000 C 
ENDROOT
BRANCH   1  21
ATOM     13  C   UNL     1       9.800  12.059  21.222  0.00  0.00    +0.000 C 
ATOM     14  C   UNL     1       8.584  12.591  21.869  0.00  0.00    +0.000 A 
ATOM     15  N   UNL     1       7.855  11.750  22.616  0.00  0.00    +0.000 NA
ATOM     16  O   UNL     1       6.817  12.499  23.124  0.00  0.00    +0.000 OA
ATOM     17  C   UNL     1       6.914  13.781  22.681  0.00  0.00    +0.000 A 
ATOM     18  N   UNL     1       6.029  14.732  23.009  0.00  0.00    +0.000 NA
ATOM     19  C   UNL     1       6.282  15.953  22.503  0.00  0.00    +0.000 A 
ATOM     20  C   UNL     1       7.389  16.214  21.701  0.00  0.00    +0.000 A 
ATOM     21  C   UNL     1       8.208  15.169  21.277  0.00  0.00    +0.000 A 
ATOM     22  C   UNL     1       8.020  13.899  21.847  0.00  0.00    +0.000 A 
BRANCH  19  23
ATOM     23  C   UNL     1       5.261  17.042  22.716  0.00  0.00    +0.000 C 
ATOM     24  C   UNL     1       4.129  17.263  21.744  0.00  0.00    +0.000 C 
ATOM     25  C   UNL     1       5.254  18.253  21.816  0.00  0.00    +0.000 C 
ENDBRANCH  19  23
ENDBRANCH   1  21
BRANCH  12  26
ATOM     26  C   UNL     1       6.265  15.674  18.792  0.00  0.00    +0.000 C 
ATOM     27  O   UNL     1       5.395  14.904  19.155  0.00  0.00    +0.000 OA
BRANCH  26  28
ATOM     28  O   UNL     1       6.018  17.013  18.626  0.00  0.00    +0.000 OA
ATOM     29  H   UNL     1       6.806  17.552  18.848  0.00  0.00    +0.000 HD
ENDBRANCH  26  28
ENDBRANCH  12  26
TORSDOF 4
ENDMDL
MODEL 6
REMARK VINA RESULT:      -6.0     12.271     15.708
REMARK  Name = 
REMARK  5 active torsions:
REMARK  status: ('A' for Active; 'I' for Inactive)
REMARK    1  A    between atoms: C_1  and  C_2
REMARK    2  A    between atoms: C_7  and  C_8
REMARK    3  A    between atoms: C_12  and  C_13
REMARK    4  A    between atoms: C_24  and  C_25
REMARK    5  A    between atoms: C_25  and  O_27
REMARK                            x       y       z     vdW  Elec       q    Type
REMARK                         _______ _______ _______ _____ _____    ______ ____
ROOT
ATOM      1  C   UNL     1       8.251  14.706  19.842  0.00  0.00    +0.000 C 
ATOM      2  O   UNL     1       7.335  13.978  19.467  0.00  0.00    +0.000 OA
ATOM      3  N   UNL     1       8.132  15.673  20.890  0.00  0.00    +0.000 N 
ATOM      4  C   UNL     1       6.923  15.468  21.695  0.00  0.00    +0.000 C 
ATOM      5  C   UNL     1       7.152  14.249  22.572  0.00  0.00    +0.000 A 
ATOM      6  C   UNL     1       6.073  13.408  22.858  0.00  0.00    +0.000 A 
ATOM      7  C   UNL     1       6.310  12.126  23.342  0.00  0.00    +0.000 A 
ATOM      8  C   UNL     1       7.612  11.708  23.611  0.00  0.00    +0.000 A 
ATOM      9  C   UNL     1       8.683  12.592  23.466  0.00  0.00    +0.000 A 
ATOM     10  C   UNL     1       8.470  13.866  22.931  0.00  0.00    +0.000 A 
ATOM     11  C   UNL     1       9.678  14.733  22.593  0.00  0.00    +0.000 C 
ATOM     12  C   UNL     1       9.274  15.974  21.795  0.00  0.00    +0.000 C 
ENDROOT
BRANCH   1  21
ATOM     13  C   UNL     1       9.412  11.344  20.390  0.00  0.00    +0.000 C 
ATOM     14  C   UNL     1      10.406  12.128  19.628  0.00  0.00    +0.000 A 
ATOM     15  N   UNL     1      11.571  11.537  19.330  0.00  0.00    +0.000 NA
ATOM     16  O   UNL     1      12.285  12.460  18.596  0.00  0.00    +0.000 OA
ATOM     17  C   UNL     1      11.558  13.601  18.460  0.00  0.00    +0.000 A 
ATOM     18  N   UNL     1      12.011  14.676  17.800  0.00  0.00    +0.000 NA
ATOM     19  C   UNL     1      11.158  15.715  17.740  0.00  0.00    +0.000 A 
ATOM     20  C   UNL     1       9.892  15.677  18.315  0.00  0.00    +0.000 A 
ATOM     21  C   UNL     1       9.514  14.592  19.105  0.00  0.00    +0.000 A 
ATOM     22  C   UNL     1      10.345  13.459  19.125  0.00  0.00    +0.000 A 
BRANCH  19  23
ATOM     23  C   UNL     1      11.645  17.006  17.132  0.00  0.00    +0.000 C 
ATOM     24  C   UNL     1      12.333  18.060  17.964  0.00  0.00    +0.000 C 
ATOM     25  C   UNL     1      10.943  18.302  17.454  0.00  0.00    +0.000 C 
ENDBRANCH  19  23
ENDBRANCH   1  21
BRANCH  12  26
ATOM     26  C   UNL     1      10.440  16.779  21.241  0.00  0.00    +0.000 C 
ATOM     27  O   UNL     1      11.606  16.430  21.238  0.00  0.00    +0.000 OA
BRANCH  26  28
ATOM     28  O   UNL     1      10.069  18.051  20.887  0.00  0.00    +0.000 OA
ATOM     29  H   UNL     1      10.849  18.635  20.780  0.00  0.00    +0.000 HD
ENDBRANCH  26  28
ENDBRANCH  12  26
TORSDOF 4
ENDMDL
MODEL 7
REMARK VINA RESULT:      -6.0      3.382      5.701
REMARK  Name = 
REMARK  5 active torsions:
REMARK  status: ('A' for Active; 'I' for Inactive)
REMARK    1  A    between atoms: C_1  and  C_2
REMARK    2  A    between atoms: C_7  and  C_8
REMARK    3  A    between atoms: C_12  and  C_13
REMARK    4  A    between atoms: C_24  and  C_25
REMARK    5  A    between atoms: C_25  and  O_27
REMARK                            x       y       z     vdW  Elec       q    Type
REMARK                         _______ _______ _______ _____ _____    ______ ____
ROOT
ATOM      1  C   UNL     1      -2.518  13.770  20.784  0.00  0.00    +0.000 C 
ATOM      2  O   UNL     1      -3.501  13.301  20.215  0.00  0.00    +0.000 OA
ATOM      3  N   UNL     1      -2.528  14.995  21.525  0.00  0.00    +0.000 N 
ATOM      4  C   UNL     1      -3.890  15.449  21.824  0.00  0.00    +0.000 C 
ATOM      5  C   UNL     1      -4.449  14.550  22.914  0.00  0.00    +0.000 A 
ATOM      6  C   UNL     1      -5.810  14.234  22.900  0.00  0.00    +0.000 A 
ATOM      7  C   UNL     1      -6.273  13.157  23.649  0.00  0.00    +0.000 A 
ATOM      8  C   UNL     1      -5.398  12.443  24.466  0.00  0.00    +0.000 A 
ATOM      9  C   UNL     1      -4.068  12.844  24.597  0.00  0.00    +0.000 A 
ATOM     10  C   UNL     1      -3.572  13.890  23.813  0.00  0.00    +0.000 A 
ATOM     11  C   UNL     1      -2.074  14.172  23.824  0.00  0.00    +0.000 C 
ATOM     12  C   UNL     1      -1.680  15.171  22.734  0.00  0.00    +0.000 C 
ENDROOT
BRANCH   1  21
ATOM     13  C   UNL     1      -0.426  15.839  18.711  0.00  0.00    +0.000 C 
ATOM     14  C   UNL     1       0.222  14.540  18.986  0.00  0.00    +0.000 A 
ATOM     15  N   UNL     1       1.399  14.292  18.396  0.00  0.00    +0.000 NA
ATOM     16  O   UNL     1       1.793  13.051  18.845  0.00  0.00    +0.000 OA
ATOM     17  C   UNL     1       0.856  12.550  19.695  0.00  0.00    +0.000 A 
ATOM     18  N   UNL     1       0.972  11.349  20.277  0.00  0.00    +0.000 NA
ATOM     19  C   UNL     1      -0.033  11.013  21.106  0.00  0.00    +0.000 A 
ATOM     20  C   UNL     1      -1.114  11.854  21.350  0.00  0.00    +0.000 A 
ATOM     21  C   UNL     1      -1.260  13.034  20.622  0.00  0.00    +0.000 A 
ATOM     22  C   UNL     1      -0.194  13.454  19.808  0.00  0.00    +0.000 A 
BRANCH  19  23
ATOM     23  C   UNL     1      -0.042   9.624  21.694  0.00  0.00    +0.000 C 
ATOM     24  C   UNL     1       0.177   9.389  23.168  0.00  0.00    +0.000 C 
ATOM     25  C   UNL     1       1.244   9.007  22.185  0.00  0.00    +0.000 C 
ENDBRANCH  19  23
ENDBRANCH   1  21
BRANCH  12  26
ATOM     26  C   UNL     1      -0.181  15.345  22.545  0.00  0.00    +0.000 C 
ATOM     27  O   UNL     1       0.676  14.560  22.905  0.00  0.00    +0.000 OA
BRANCH  26  28
ATOM     28  O   UNL     1       0.139  16.590  22.067  0.00  0.00    +0.000 OA
ATOM     29  H   UNL     1       0.356  17.209  22.796  0.00  0.00    +0.000 HD
ENDBRANCH  26  28
ENDBRANCH  12  26
TORSDOF 4
ENDMDL
MODEL 8
REMARK VINA RESULT:      -5.9      4.695      7.041
REMARK  Name = 
REMARK  5 active torsions:
REMARK  status: ('A' for Active; 'I' for Inactive)
REMARK    1  A    between atoms: C_1  and  C_2
REMARK    2  A    between atoms: C_7  and  C_8
REMARK    3  A    between atoms: C_12  and  C_13
REMARK    4  A    between atoms: C_24  and  C_25
REMARK    5  A    between atoms: C_25  and  O_27
REMARK                            x       y       z     vdW  Elec       q    Type
REMARK                         _______ _______ _______ _____ _____    ______ ____
ROOT
ATOM      1  C   UNL     1      -1.223  13.121  20.064  0.00  0.00    +0.000 C 
ATOM      2  O   UNL     1      -2.452  13.123  20.059  0.00  0.00    +0.000 OA
ATOM      3  N   UNL     1      -0.418  14.279  19.823  0.00  0.00    +0.000 N 
ATOM      4  C   UNL     1      -1.194  15.520  19.911  0.00  0.00    +0.000 C 
ATOM      5  C   UNL     1      -1.485  15.781  21.379  0.00  0.00    +0.000 A 
ATOM      6  C   UNL     1      -2.701  16.370  21.734  0.00  0.00    +0.000 A 
ATOM      7  C   UNL     1      -3.142  16.296  23.052  0.00  0.00    +0.000 A 
ATOM      8  C   UNL     1      -2.342  15.703  24.026  0.00  0.00    +0.000 A 
ATOM      9  C   UNL     1      -1.063  15.243  23.707  0.00  0.00    +0.000 A 
ATOM     10  C   UNL     1      -0.624  15.261  22.380  0.00  0.00    +0.000 A 
ATOM     11  C   UNL     1       0.688  14.568  22.029  0.00  0.00    +0.000 C 
ATOM     12  C   UNL     1       0.886  14.470  20.515  0.00  0.00    +0.000 C 
ENDROOT
BRANCH   1  21
ATOM     13  C   UNL     1      -2.092  12.118  23.410  0.00  0.00    +0.000 C 
ATOM     14  C   UNL     1      -1.143  11.163  22.803  0.00  0.00    +0.000 A 
ATOM     15  N   UNL     1      -0.700  10.154  23.564  0.00  0.00    +0.000 NA
ATOM     16  O   UNL     1       0.127   9.406  22.755  0.00  0.00    +0.000 OA
ATOM     17  C   UNL     1       0.188   9.964  21.516  0.00  0.00    +0.000 A 
ATOM     18  N   UNL     1       0.929   9.453  20.524  0.00  0.00    +0.000 NA
ATOM     19  C   UNL     1       0.861  10.116  19.355  0.00  0.00    +0.000 A 
ATOM     20  C   UNL     1       0.072  11.249  19.183  0.00  0.00    +0.000 A 
ATOM     21  C   UNL     1      -0.576  11.822  20.275  0.00  0.00    +0.000 A 
ATOM     22  C   UNL     1      -0.591  11.116  21.490  0.00  0.00    +0.000 A 
BRANCH  19  23
ATOM     23  C   UNL     1       1.769   9.681  18.232  0.00  0.00    +0.000 C 
ATOM     24  C   UNL     1       1.429   8.501  17.355  0.00  0.00    +0.000 C 
ATOM     25  C   UNL     1       2.547   8.394  18.350  0.00  0.00    +0.000 C 
ENDBRANCH  19  23
ENDBRANCH   1  21
BRANCH  12  26
ATOM     26  C   UNL     1       2.064  13.610  20.084  0.00  0.00    +0.000 C 
ATOM     27  O   UNL     1       2.453  13.459  18.941  0.00  0.00    +0.000 OA
BRANCH  26  28
ATOM     28  O   UNL     1       2.561  12.858  21.119  0.00  0.00    +0.000 OA
ATOM     29  H   UNL     1       3.396  12.411  20.867  0.00  0.00    +0.000 HD
ENDBRANCH  26  28
ENDBRANCH  12  26
TORSDOF 4
ENDMDL
MODEL 9
REMARK VINA RESULT:      -5.9      1.861      5.526
REMARK  Name = 
REMARK  5 active torsions:
REMARK  status: ('A' for Active; 'I' for Inactive)
REMARK    1  A    between atoms: C_1  and  C_2
REMARK    2  A    between atoms: C_7  and  C_8
REMARK    3  A    between atoms: C_12  and  C_13
REMARK    4  A    between atoms: C_24  and  C_25
REMARK    5  A    between atoms: C_25  and  O_27
REMARK                            x       y       z     vdW  Elec       q    Type
REMARK                         _______ _______ _______ _____ _____    ______ ____
ROOT
ATOM      1  C   UNL     1      -3.177  12.872  22.799  0.00  0.00    +0.000 C 
ATOM      2  O   UNL     1      -3.141  11.815  23.425  0.00  0.00    +0.000 OA
ATOM      3  N   UNL     1      -2.031  13.684  22.527  0.00  0.00    +0.000 N 
ATOM      4  C   UNL     1      -0.775  12.965  22.766  0.00  0.00    +0.000 C 
ATOM      5  C   UNL     1      -0.589  11.969  21.635  0.00  0.00    +0.000 A 
ATOM      6  C   UNL     1       0.013  10.738  21.908  0.00  0.00    +0.000 A 
ATOM      7  C   UNL     1      -0.122   9.690  21.002  0.00  0.00    +0.000 A 
ATOM      8  C   UNL     1      -0.791   9.889  19.795  0.00  0.00    +0.000 A 
ATOM      9  C   UNL     1      -1.268  11.155  19.452  0.00  0.00    +0.000 A 
ATOM     10  C   UNL     1      -1.188  12.206  20.371  0.00  0.00    +0.000 A 
ATOM     11  C   UNL     1      -1.897  13.518  20.052  0.00  0.00    +0.000 C 
ATOM     12  C   UNL     1      -1.915  14.456  21.261  0.00  0.00    +0.000 C 
ENDROOT
BRANCH   1  21
ATOM     13  C   UNL     1      -3.940  15.735  24.842  0.00  0.00    +0.000 C 
ATOM     14  C   UNL     1      -5.088  15.378  23.984  0.00  0.00    +0.000 A 
ATOM     15  N   UNL     1      -6.219  16.080  24.131  0.00  0.00    +0.000 NA
ATOM     16  O   UNL     1      -7.101  15.575  23.200  0.00  0.00    +0.000 OA
ATOM     17  C   UNL     1      -6.507  14.570  22.502  0.00  0.00    +0.000 A 
ATOM     18  N   UNL     1      -7.136  13.887  21.536  0.00  0.00    +0.000 NA
ATOM     19  C   UNL     1      -6.399  12.938  20.929  0.00  0.00    +0.000 A 
ATOM     20  C   UNL     1      -5.075  12.687  21.273  0.00  0.00    +0.000 A 
ATOM     21  C   UNL     1      -4.504  13.328  22.371  0.00  0.00    +0.000 A 
ATOM     22  C   UNL     1      -5.215  14.378  22.977  0.00  0.00    +0.000 A 
BRANCH  19  23
ATOM     23  C   UNL     1      -7.077  12.038  19.927  0.00  0.00    +0.000 C 
ATOM     24  C   UNL     1      -7.502  10.636  20.286  0.00  0.00    +0.000 C 
ATOM     25  C   UNL     1      -6.338  10.849  19.364  0.00  0.00    +0.000 C 
ENDBRANCH  19  23
ENDBRANCH   1  21
BRANCH  12  26
ATOM     26  C   UNL     1      -2.782  15.693  21.089  0.00  0.00    +0.000 C 
ATOM     27  O   UNL     1      -2.802  16.657  21.832  0.00  0.00    +0.000 OA
BRANCH  26  28
ATOM     28  O   UNL     1      -3.697  15.547  20.077  0.00  0.00    +0.000 OA
ATOM     29  H   UNL     1      -3.485  16.127  19.316  0.00  0.00    +0.000 HD
ENDBRANCH  26  28
ENDBRANCH  12  26
TORSDOF 4
ENDMDL
