MODEL 1
REMARK VINA RESULT:     -10.0      0.000      0.000
REMARK  Name = 
REMARK  9 active torsions:
REMARK  status: ('A' for Active; 'I' for Inactive)
REMARK    1  A    between atoms: C_1  and  C_2
REMARK    2  A    between atoms: C_6  and  C_7
REMARK    3  A    between atoms: C_7  and  C_8
REMARK    4  A    between atoms: N_13  and  C_14
REMARK    5  A    between atoms: C_18  and  C_19
REMARK    6  A    between atoms: C_19  and  N_20
REMARK    7  A    between atoms: C_19  and  C_21
REMARK    8  A    between atoms: C_21  and  C_22
REMARK    9  A    between atoms: N_26  and  C_27
REMARK                            x       y       z     vdW  Elec       q    Type
REMARK                         _______ _______ _______ _____ _____    ______ ____
ROOT
ATOM      1  C   UNL     1       2.761   6.266  18.926  0.00  0.00    +0.000 A 
ATOM      2  C   UNL     1       2.268   5.083  19.496  0.00  0.00    +0.000 A 
ATOM      3  C   UNL     1       2.866   3.846  19.262  0.00  0.00    +0.000 A 
ATOM      4  C   UNL     1       3.982   3.762  18.445  0.00  0.00    +0.000 A 
ATOM      5  C   UNL     1       4.511   4.916  17.847  0.00  0.00    +0.000 A 
ATOM      6  C   UNL     1       3.886   6.164  18.091  0.00  0.00    +0.000 A 
ENDROOT
BRANCH   1  15
ATOM      7  C   UNL     1      -0.516  12.932  18.699  0.00  0.00    +0.000 C 
ATOM      8  C   UNL     1      -0.014  11.626  19.244  0.00  0.00    +0.000 A 
ATOM      9  C   UNL     1       0.771  10.793  18.453  0.00  0.00    +0.000 A 
ATOM     10  C   UNL     1       1.203   9.597  19.000  0.00  0.00    +0.000 A 
ATOM     11  C   UNL     1       0.889   9.174  20.289  0.00  0.00    +0.000 A 
ATOM     12  C   UNL     1       0.118   9.997  21.106  0.00  0.00    +0.000 A 
ATOM     13  C   UNL     1      -0.327  11.229  20.562  0.00  0.00    +0.000 A 
ATOM     14  C   UNL     1       1.490   7.811  20.511  0.00  0.00    +0.000 C 
ATOM     15  N   UNL     1       2.156   7.519  19.241  0.00  0.00    +0.000 N 
ATOM     16  C   UNL     1       2.017   8.581  18.348  0.00  0.00    +0.000 C 
ATOM     17  O   UNL     1       2.450   8.753  17.220  0.00  0.00    +0.000 OA
BRANCH  12  18
ATOM     18  C   UNL     1      -0.241   9.637  22.529  0.00  0.00    +0.000 C 
ATOM     19  C   UNL     1      -1.106  10.711  23.171  0.00  0.00    +0.000 C 
ATOM     20  F   UNL     1      -0.929   8.460  22.602  0.00  0.00    +0.000 F 
ATOM     21  F   UNL     1       0.860   9.460  23.312  0.00  0.00    +0.000 F 
ENDBRANCH  12  18
ENDBRANCH   1  15
BRANCH   5  22
ATOM     22  C   UNL     1       5.806   4.842  17.045  0.00  0.00    +0.000 C 
BRANCH  22  23
ATOM     23  N   UNL     1       6.830   4.166  17.869  0.00  0.00    +0.000 NA
ATOM     24  H   UNL     1       7.750   4.540  17.643  0.00  0.00    +0.000 HD
ATOM     25  H   UNL     1       6.864   3.184  17.590  0.00  0.00    +0.000 HD
ENDBRANCH  22  23
BRANCH  22  26
ATOM     26  C   UNL     1       5.685   4.111  15.685  0.00  0.00    +0.000 C 
BRANCH  26  27
ATOM     27  C   UNL     1       6.627   4.641  14.655  0.00  0.00    +0.000 A 
ATOM     28  N   UNL     1       7.619   5.481  14.874  0.00  0.00    +0.000 NA
ATOM     29  N   UNL     1       8.296   5.667  13.694  0.00  0.00    +0.000 NA
ATOM     30  C   UNL     1       7.708   4.934  12.780  0.00  0.00    +0.000 A 
ATOM     31  N   UNL     1       6.653   4.276  13.334  0.00  0.00    +0.000 N 
ATOM     32  C   UNL     1       5.776   3.367  12.646  0.00  0.00    +0.000 C 
ENDBRANCH  26  27
ENDBRANCH  22  26
ENDBRANCH   5  22
TORSDOF 6
ENDMDL
MODEL 2
REMARK VINA RESULT:      -9.6      1.557      2.416
REMARK  Name = 
REMARK  9 active torsions:
REMARK  status: ('A' for Active; 'I' for Inactive)
REMARK    1  A    between atoms: C_1  and  C_2
REMARK    2  A    between atoms: C_6  and  C_7
REMARK    3  A    between atoms: C_7  and  C_8
REMARK    4  A    between atoms: N_13  and  C_14
REMARK    5  A    between atoms: C_18  and  C_19
REMARK    6  A    between atoms: C_19  and  N_20
REMARK    7  A    between atoms: C_19  and  C_21
REMARK    8  A    between atoms: C_21  and  C_22
REMARK    9  A    between atoms: N_26  and  C_27
REMARK                            x       y       z     vdW  Elec       q    Type
REMARK                         _______ _______ _______ _____ _____    ______ ____
ROOT
ATOM      1  C   UNL     1       2.914   6.119  19.102  0.00  0.00    +0.000 A 
ATOM      2  C   UNL     1       2.829   5.088  20.048  0.00  0.00    +0.000 A 
ATOM      3  C   UNL     1       3.487   3.871  19.875  0.00  0.00    +0.000 A 
ATOM      4  C   UNL     1       4.252   3.655  18.741  0.00  0.00    +0.000 A 
ATOM      5  C   UNL     1       4.365   4.654  17.761  0.00  0.00    +0.000 A 
ATOM      6  C   UNL     1       3.684   5.882  17.951  0.00  0.00    +0.000 A 
ENDROOT
BRANCH   1  15
ATOM      7  C   UNL     1      -0.512  12.686  18.507  0.00  0.00    +0.000 C 
ATOM      8  C   UNL     1       0.012  11.421  19.122  0.00  0.00    +0.000 A 
ATOM      9  C   UNL     1       0.827  10.569  18.382  0.00  0.00    +0.000 A 
ATOM     10  C   UNL     1       1.279   9.412  18.993  0.00  0.00    +0.000 A 
ATOM     11  C   UNL     1       0.957   9.045  20.297  0.00  0.00    +0.000 A 
ATOM     12  C   UNL     1       0.156   9.888  21.063  0.00  0.00    +0.000 A 
ATOM     13  C   UNL     1      -0.310  11.081  20.454  0.00  0.00    +0.000 A 
ATOM     14  C   UNL     1       1.586   7.708  20.593  0.00  0.00    +0.000 C 
ATOM     15  N   UNL     1       2.276   7.371  19.347  0.00  0.00    +0.000 N 
ATOM     16  C   UNL     1       2.125   8.385  18.402  0.00  0.00    +0.000 C 
ATOM     17  O   UNL     1       2.569   8.512  17.272  0.00  0.00    +0.000 OA
BRANCH  12  18
ATOM     18  C   UNL     1      -0.215   9.589  22.497  0.00  0.00    +0.000 C 
ATOM     19  C   UNL     1      -1.060  10.703  23.095  0.00  0.00    +0.000 C 
ATOM     20  F   UNL     1      -0.926   8.429  22.611  0.00  0.00    +0.000 F 
ATOM     21  F   UNL     1       0.880   9.420  23.291  0.00  0.00    +0.000 F 
ENDBRANCH  12  18
ENDBRANCH   1  15
BRANCH   5  22
ATOM     22  C   UNL     1       5.299   4.462  16.571  0.00  0.00    +0.000 C 
BRANCH  22  23
ATOM     23  N   UNL     1       5.040   5.539  15.593  0.00  0.00    +0.000 NA
ATOM     24  H   UNL     1       5.923   5.949  15.296  0.00  0.00    +0.000 HD
ATOM     25  H   UNL     1       4.543   6.291  16.074  0.00  0.00    +0.000 HD
ENDBRANCH  22  23
BRANCH  22  26
ATOM     26  C   UNL     1       6.806   4.450  16.926  0.00  0.00    +0.000 C 
BRANCH  26  27
ATOM     27  C   UNL     1       7.332   5.804  17.272  0.00  0.00    +0.000 A 
ATOM     28  N   UNL     1       7.491   6.809  16.433  0.00  0.00    +0.000 NA
ATOM     29  N   UNL     1       7.924   7.901  17.144  0.00  0.00    +0.000 NA
ATOM     30  C   UNL     1       8.015   7.544  18.403  0.00  0.00    +0.000 A 
ATOM     31  N   UNL     1       7.658   6.236  18.532  0.00  0.00    +0.000 N 
ATOM     32  C   UNL     1       7.620   5.495  19.763  0.00  0.00    +0.000 C 
ENDBRANCH  26  27
ENDBRANCH  22  26
ENDBRANCH   5  22
TORSDOF 6
ENDMDL
MODEL 3
REMARK VINA RESULT:      -9.0      1.001      1.267
REMARK  Name = 
REMARK  9 active torsions:
REMARK  status: ('A' for Active; 'I' for Inactive)
REMARK    1  A    between atoms: C_1  and  C_2
REMARK    2  A    between atoms: C_6  and  C_7
REMARK    3  A    between atoms: C_7  and  C_8
REMARK    4  A    between atoms: N_13  and  C_14
REMARK    5  A    between atoms: C_18  and  C_19
REMARK    6  A    between atoms: C_19  and  N_20
REMARK    7  A    between atoms: C_19  and  C_21
REMARK    8  A    between atoms: C_21  and  C_22
REMARK    9  A    between atoms: N_26  and  C_27
REMARK                            x       y       z     vdW  Elec       q    Type
REMARK                         _______ _______ _______ _____ _____    ______ ____
ROOT
ATOM      1  C   UNL     1       3.081   6.446  19.309  0.00  0.00    +0.000 A 
ATOM      2  C   UNL     1       2.537   5.171  19.523  0.00  0.00    +0.000 A 
ATOM      3  C   UNL     1       3.305   4.014  19.423  0.00  0.00    +0.000 A 
ATOM      4  C   UNL     1       4.650   4.104  19.102  0.00  0.00    +0.000 A 
ATOM      5  C   UNL     1       5.242   5.356  18.873  0.00  0.00    +0.000 A 
ATOM      6  C   UNL     1       4.443   6.521  18.974  0.00  0.00    +0.000 A 
ENDROOT
BRANCH   1  15
ATOM      7  C   UNL     1      -1.296  12.374  18.351  0.00  0.00    +0.000 C 
ATOM      8  C   UNL     1      -0.571  11.254  19.040  0.00  0.00    +0.000 A 
ATOM      9  C   UNL     1       0.337  10.470  18.334  0.00  0.00    +0.000 A 
ATOM     10  C   UNL     1       0.974   9.446  19.014  0.00  0.00    +0.000 A 
ATOM     11  C   UNL     1       0.753   9.149  20.355  0.00  0.00    +0.000 A 
ATOM     12  C   UNL     1      -0.139   9.928  21.088  0.00  0.00    +0.000 A 
ATOM     13  C   UNL     1      -0.796  10.986  20.407  0.00  0.00    +0.000 A 
ATOM     14  C   UNL     1       1.582   7.947  20.728  0.00  0.00    +0.000 C 
ATOM     15  N   UNL     1       2.273   7.609  19.483  0.00  0.00    +0.000 N 
ATOM     16  C   UNL     1       1.943   8.507  18.468  0.00  0.00    +0.000 C 
ATOM     17  O   UNL     1       2.327   8.600  17.314  0.00  0.00    +0.000 OA
BRANCH  12  18
ATOM     18  C   UNL     1      -0.414   9.702  22.556  0.00  0.00    +0.000 C 
ATOM     19  C   UNL     1      -1.242  10.833  23.145  0.00  0.00    +0.000 C 
ATOM     20  F   UNL     1      -1.095   8.539  22.776  0.00  0.00    +0.000 F 
ATOM     21  F   UNL     1       0.731   9.593  23.287  0.00  0.00    +0.000 F 
ENDBRANCH  12  18
ENDBRANCH   1  15
BRANCH   5  22
ATOM     22  C   UNL     1       6.745   5.464  18.636  0.00  0.00    +0.000 C 
BRANCH  22  23
ATOM     23  N   UNL     1       7.432   5.382  19.942  0.00  0.00    +0.000 NA
ATOM     24  H   UNL     1       8.431   5.529  19.811  0.00  0.00    +0.000 HD
ATOM     25  H   UNL     1       7.345   4.425  20.287  0.00  0.00    +0.000 HD
ENDBRANCH  22  23
BRANCH  22  26
ATOM     26  C   UNL     1       7.330   4.391  17.686  0.00  0.00    +0.000 C 
BRANCH  26  27
ATOM     27  C   UNL     1       7.083   4.694  16.245  0.00  0.00    +0.000 A 
ATOM     28  N   UNL     1       7.799   5.506  15.492  0.00  0.00    +0.000 NA
ATOM     29  N   UNL     1       7.301   5.460  14.213  0.00  0.00    +0.000 NA
ATOM     30  C   UNL     1       6.295   4.619  14.209  0.00  0.00    +0.000 A 
ATOM     31  N   UNL     1       6.117   4.116  15.462  0.00  0.00    +0.000 N 
ATOM     32  C   UNL     1       5.120   3.154  15.846  0.00  0.00    +0.000 C 
ENDBRANCH  26  27
ENDBRANCH  22  26
ENDBRANCH   5  22
TORSDOF 6
ENDMDL
MODEL 4
REMARK VINA RESULT:      -8.9      3.950      9.085
REMARK  Name = 
REMARK  9 active torsions:
REMARK  status: ('A' for Active; 'I' for Inactive)
REMARK    1  A    between atoms: C_1  and  C_2
REMARK    2  A    between atoms: C_6  and  C_7
REMARK    3  A    between atoms: C_7  and  C_8
REMARK    4  A    between atoms: N_13  and  C_14
REMARK    5  A    between atoms: C_18  and  C_19
REMARK    6  A    between atoms: C_19  and  N_20
REMARK    7  A    between atoms: C_19  and  C_21
REMARK    8  A    between atoms: C_21  and  C_22
REMARK    9  A    between atoms: N_26  and  C_27
REMARK                            x       y       z     vdW  Elec       q    Type
REMARK                         _______ _______ _______ _____ _____    ______ ____
ROOT
ATOM      1  C   UNL     1       1.549   8.342  20.057  0.00  0.00    +0.000 A 
ATOM      2  C   UNL     1       1.459   8.519  21.445  0.00  0.00    +0.000 A 
ATOM      3  C   UNL     1       0.732   9.565  22.011  0.00  0.00    +0.000 A 
ATOM      4  C   UNL     1       0.072  10.468  21.193  0.00  0.00    +0.000 A 
ATOM      5  C   UNL     1       0.135  10.337  19.797  0.00  0.00    +0.000 A 
ATOM      6  C   UNL     1       0.884   9.271  19.240  0.00  0.00    +0.000 A 
ENDROOT
BRANCH   1  15
ATOM      7  C   UNL     1       3.756   1.556  17.983  0.00  0.00    +0.000 C 
ATOM      8  C   UNL     1       3.677   3.055  18.047  0.00  0.00    +0.000 A 
ATOM      9  C   UNL     1       2.870   3.672  18.997  0.00  0.00    +0.000 A 
ATOM     10  C   UNL     1       2.827   5.056  19.010  0.00  0.00    +0.000 A 
ATOM     11  C   UNL     1       3.533   5.863  18.123  0.00  0.00    +0.000 A 
ATOM     12  C   UNL     1       4.360   5.270  17.172  0.00  0.00    +0.000 A 
ATOM     13  C   UNL     1       4.420   3.852  17.150  0.00  0.00    +0.000 A 
ATOM     14  C   UNL     1       3.199   7.304  18.409  0.00  0.00    +0.000 C 
ATOM     15  N   UNL     1       2.252   7.222  19.522  0.00  0.00    +0.000 N 
ATOM     16  C   UNL     1       2.045   5.897  19.905  0.00  0.00    +0.000 C 
ATOM     17  O   UNL     1       1.376   5.408  20.801  0.00  0.00    +0.000 OA
BRANCH  12  18
ATOM     18  C   UNL     1       5.190   6.067  16.194  0.00  0.00    +0.000 C 
ATOM     19  C   UNL     1       5.697   5.193  15.056  0.00  0.00    +0.000 C 
ATOM     20  F   UNL     1       4.481   7.093  15.637  0.00  0.00    +0.000 F 
ATOM     21  F   UNL     1       6.269   6.653  16.786  0.00  0.00    +0.000 F 
ENDBRANCH  12  18
ENDBRANCH   1  15
BRANCH   5  22
ATOM     22  C   UNL     1      -0.686  11.259  18.901  0.00  0.00    +0.000 C 
BRANCH  22  23
ATOM     23  N   UNL     1       0.224  12.253  18.293  0.00  0.00    +0.000 NA
ATOM     24  H   UNL     1       0.041  12.315  17.293  0.00  0.00    +0.000 HD
ATOM     25  H   UNL     1       1.178  11.898  18.370  0.00  0.00    +0.000 HD
ENDBRANCH  22  23
BRANCH  22  26
ATOM     26  C   UNL     1      -1.473  10.539  17.779  0.00  0.00    +0.000 C 
BRANCH  26  27
ATOM     27  C   UNL     1      -2.872  11.040  17.638  0.00  0.00    +0.000 A 
ATOM     28  N   UNL     1      -3.601  11.577  18.597  0.00  0.00    +0.000 NA
ATOM     29  N   UNL     1      -4.798  11.977  18.057  0.00  0.00    +0.000 NA
ATOM     30  C   UNL     1      -4.775  11.684  16.779  0.00  0.00    +0.000 A 
ATOM     31  N   UNL     1      -3.589  11.090  16.471  0.00  0.00    +0.000 N 
ATOM     32  C   UNL     1      -3.191  10.640  15.165  0.00  0.00    +0.000 C 
ENDBRANCH  26  27
ENDBRANCH  22  26
ENDBRANCH   5  22
TORSDOF 6
ENDMDL
MODEL 5
REMARK VINA RESULT:      -8.9      1.981      2.523
REMARK  Name = 
REMARK  9 active torsions:
REMARK  status: ('A' for Active; 'I' for Inactive)
REMARK    1  A    between atoms: C_1  and  C_2
REMARK    2  A    between atoms: C_6  and  C_7
REMARK    3  A    between atoms: C_7  and  C_8
REMARK    4  A    between atoms: N_13  and  C_14
REMARK    5  A    between atoms: C_18  and  C_19
REMARK    6  A    between atoms: C_19  and  N_20
REMARK    7  A    between atoms: C_19  and  C_21
REMARK    8  A    between atoms: C_21  and  C_22
REMARK    9  A    between atoms: N_26  and  C_27
REMARK                            x       y       z     vdW  Elec       q    Type
REMARK                         _______ _______ _______ _____ _____    ______ ____
ROOT
ATOM      1  C   UNL     1       2.335   6.480  18.673  0.00  0.00    +0.000 A 
ATOM      2  C   UNL     1       1.460   5.614  18.001  0.00  0.00    +0.000 A 
ATOM      3  C   UNL     1       1.848   4.335  17.604  0.00  0.00    +0.000 A 
ATOM      4  C   UNL     1       3.131   3.888  17.872  0.00  0.00    +0.000 A 
ATOM      5  C   UNL     1       4.046   4.718  18.538  0.00  0.00    +0.000 A 
ATOM      6  C   UNL     1       3.637   6.017  18.928  0.00  0.00    +0.000 A 
ENDROOT
BRANCH   1  15
ATOM      7  C   UNL     1      -0.125  13.476  19.141  0.00  0.00    +0.000 C 
ATOM      8  C   UNL     1       0.211  12.070  19.547  0.00  0.00    +0.000 A 
ATOM      9  C   UNL     1       0.902  11.236  18.674  0.00  0.00    +0.000 A 
ATOM     10  C   UNL     1       1.182   9.947  19.093  0.00  0.00    +0.000 A 
ATOM     11  C   UNL     1       0.803   9.433  20.331  0.00  0.00    +0.000 A 
ATOM     12  C   UNL     1       0.124  10.253  21.229  0.00  0.00    +0.000 A 
ATOM     13  C   UNL     1      -0.165  11.579  20.816  0.00  0.00    +0.000 A 
ATOM     14  C   UNL     1       1.235   7.992  20.410  0.00  0.00    +0.000 C 
ATOM     15  N   UNL     1       1.879   7.757  19.117  0.00  0.00    +0.000 N 
ATOM     16  C   UNL     1       1.878   8.915  18.339  0.00  0.00    +0.000 C 
ATOM     17  O   UNL     1       2.344   9.149  17.236  0.00  0.00    +0.000 OA
BRANCH  12  18
ATOM     18  C   UNL     1      -0.294   9.793  22.606  0.00  0.00    +0.000 C 
ATOM     19  C   UNL     1      -1.197  10.814  23.281  0.00  0.00    +0.000 C 
ATOM     20  F   UNL     1      -0.972   8.609  22.567  0.00  0.00    +0.000 F 
ATOM     21  F   UNL     1       0.773   9.570  23.424  0.00  0.00    +0.000 F 
ENDBRANCH  12  18
ENDBRANCH   1  15
BRANCH   5  22
ATOM     22  C   UNL     1       5.419   4.186  18.936  0.00  0.00    +0.000 C 
BRANCH  22  23
ATOM     23  N   UNL     1       5.271   2.775  19.350  0.00  0.00    +0.000 NA
ATOM     24  H   UNL     1       5.380   2.169  18.538  0.00  0.00    +0.000 HD
ATOM     25  H   UNL     1       4.309   2.634  19.662  0.00  0.00    +0.000 HD
ENDBRANCH  22  23
BRANCH  22  26
ATOM     26  C   UNL     1       6.497   4.281  17.830  0.00  0.00    +0.000 C 
BRANCH  26  27
ATOM     27  C   UNL     1       7.032   5.664  17.658  0.00  0.00    +0.000 A 
ATOM     28  N   UNL     1       6.806   6.458  16.630  0.00  0.00    +0.000 NA
ATOM     29  N   UNL     1       7.408   7.668  16.878  0.00  0.00    +0.000 NA
ATOM     30  C   UNL     1       7.984   7.590  18.053  0.00  0.00    +0.000 A 
ATOM     31  N   UNL     1       7.780   6.351  18.579  0.00  0.00    +0.000 N 
ATOM     32  C   UNL     1       8.250   5.896  19.859  0.00  0.00    +0.000 C 
ENDBRANCH  26  27
ENDBRANCH  22  26
ENDBRANCH   5  22
TORSDOF 6
ENDMDL
MODEL 6
REMARK VINA RESULT:      -8.9      3.715      8.541
REMARK  Name = 
REMARK  9 active torsions:
REMARK  status: ('A' for Active; 'I' for Inactive)
REMARK    1  A    between atoms: C_1  and  C_2
REMARK    2  A    between atoms: C_6  and  C_7
REMARK    3  A    between atoms: C_7  and  C_8
REMARK    4  A    between atoms: N_13  and  C_14
REMARK    5  A    between atoms: C_18  and  C_19
REMARK    6  A    between atoms: C_19  and  N_20
REMARK    7  A    between atoms: C_19  and  C_21
REMARK    8  A    between atoms: C_21  and  C_22
REMARK    9  A    between atoms: N_26  and  C_27
REMARK                            x       y       z     vdW  Elec       q    Type
REMARK                         _______ _______ _______ _____ _____    ______ ____
ROOT
ATOM      1  C   UNL     1       0.832   9.600  20.049  0.00  0.00    +0.000 A 
ATOM      2  C   UNL     1       1.049  10.037  21.364  0.00  0.00    +0.000 A 
ATOM      3  C   UNL     1       0.414  11.164  21.883  0.00  0.00    +0.000 A 
ATOM      4  C   UNL     1      -0.463  11.888  21.091  0.00  0.00    +0.000 A 
ATOM      5  C   UNL     1      -0.711  11.495  19.767  0.00  0.00    +0.000 A 
ATOM      6  C   UNL     1      -0.051  10.351  19.254  0.00  0.00    +0.000 A 
ENDROOT
BRANCH   1  15
ATOM      7  C   UNL     1       5.151   4.600  16.651  0.00  0.00    +0.000 C 
ATOM      8  C   UNL     1       4.171   5.184  17.627  0.00  0.00    +0.000 A 
ATOM      9  C   UNL     1       3.729   6.494  17.473  0.00  0.00    +0.000 A 
ATOM     10  C   UNL     1       2.830   6.988  18.404  0.00  0.00    +0.000 A 
ATOM     11  C   UNL     1       2.353   6.256  19.487  0.00  0.00    +0.000 A 
ATOM     12  C   UNL     1       2.768   4.937  19.654  0.00  0.00    +0.000 A 
ATOM     13  C   UNL     1       3.684   4.414  18.705  0.00  0.00    +0.000 A 
ATOM     14  C   UNL     1       1.439   7.134  20.301  0.00  0.00    +0.000 C 
ATOM     15  N   UNL     1       1.455   8.407  19.578  0.00  0.00    +0.000 N 
ATOM     16  C   UNL     1       2.253   8.324  18.437  0.00  0.00    +0.000 C 
ATOM     17  O   UNL     1       2.495   9.134  17.557  0.00  0.00    +0.000 OA
BRANCH  12  18
ATOM     18  C   UNL     1       2.275   4.056  20.778  0.00  0.00    +0.000 C 
ATOM     19  C   UNL     1       2.943   2.690  20.746  0.00  0.00    +0.000 C 
ATOM     20  F   UNL     1       2.523   4.604  22.004  0.00  0.00    +0.000 F 
ATOM     21  F   UNL     1       0.927   3.866  20.734  0.00  0.00    +0.000 F 
ENDBRANCH  12  18
ENDBRANCH   1  15
BRANCH   5  22
ATOM     22  C   UNL     1      -1.763  12.220  18.934  0.00  0.00    +0.000 C 
BRANCH  22  23
ATOM     23  N   UNL     1      -1.141  12.647  17.662  0.00  0.00    +0.000 NA
ATOM     24  H   UNL     1      -1.141  11.868  17.005  0.00  0.00    +0.000 HD
ATOM     25  H   UNL     1      -0.155  12.845  17.842  0.00  0.00    +0.000 HD
ENDBRANCH  22  23
BRANCH  22  26
ATOM     26  C   UNL     1      -3.031  11.389  18.625  0.00  0.00    +0.000 C 
BRANCH  26  27
ATOM     27  C   UNL     1      -3.134  10.999  17.187  0.00  0.00    +0.000 A 
ATOM     28  N   UNL     1      -2.286  10.232  16.531  0.00  0.00    +0.000 NA
ATOM     29  N   UNL     1      -2.765  10.048  15.258  0.00  0.00    +0.000 NA
ATOM     30  C   UNL     1      -3.898  10.700  15.162  0.00  0.00    +0.000 A 
ATOM     31  N   UNL     1      -4.169  11.317  16.345  0.00  0.00    +0.000 N 
ATOM     32  C   UNL     1      -5.331  12.114  16.629  0.00  0.00    +0.000 C 
ENDBRANCH  26  27
ENDBRANCH  22  26
ENDBRANCH   5  22
TORSDOF 6
ENDMDL
MODEL 7
REMARK VINA RESULT:      -8.7      1.520      2.672
REMARK  Name = 
REMARK  9 active torsions:
REMARK  status: ('A' for Active; 'I' for Inactive)
REMARK    1  A    between atoms: C_1  and  C_2
REMARK    2  A    between atoms: C_6  and  C_7
REMARK    3  A    between atoms: C_7  and  C_8
REMARK    4  A    between atoms: N_13  and  C_14
REMARK    5  A    between atoms: C_18  and  C_19
REMARK    6  A    between atoms: C_19  and  N_20
REMARK    7  A    between atoms: C_19  and  C_21
REMARK    8  A    between atoms: C_21  and  C_22
REMARK    9  A    between atoms: N_26  and  C_27
REMARK                            x       y       z     vdW  Elec       q    Type
REMARK                         _______ _______ _______ _____ _____    ______ ____
ROOT
ATOM      1  C   UNL     1       2.893   5.859  18.179  0.00  0.00    +0.000 A 
ATOM      2  C   UNL     1       2.305   4.689  18.683  0.00  0.00    +0.000 A 
ATOM      3  C   UNL     1       2.756   3.421  18.320  0.00  0.00    +0.000 A 
ATOM      4  C   UNL     1       3.816   3.291  17.436  0.00  0.00    +0.000 A 
ATOM      5  C   UNL     1       4.435   4.431  16.900  0.00  0.00    +0.000 A 
ATOM      6  C   UNL     1       3.959   5.712  17.276  0.00  0.00    +0.000 A 
ENDROOT
BRANCH   1  15
ATOM      7  C   UNL     1       0.527  12.886  18.661  0.00  0.00    +0.000 C 
ATOM      8  C   UNL     1       0.827  11.469  19.059  0.00  0.00    +0.000 A 
ATOM      9  C   UNL     1       1.535  10.637  18.198  0.00  0.00    +0.000 A 
ATOM     10  C   UNL     1       1.780   9.337  18.609  0.00  0.00    +0.000 A 
ATOM     11  C   UNL     1       1.350   8.813  19.825  0.00  0.00    +0.000 A 
ATOM     12  C   UNL     1       0.653   9.631  20.710  0.00  0.00    +0.000 A 
ATOM     13  C   UNL     1       0.400  10.967  20.307  0.00  0.00    +0.000 A 
ATOM     14  C   UNL     1       1.757   7.365  19.898  0.00  0.00    +0.000 C 
ATOM     15  N   UNL     1       2.441   7.136  18.625  0.00  0.00    +0.000 N 
ATOM     16  C   UNL     1       2.486   8.305  17.865  0.00  0.00    +0.000 C 
ATOM     17  O   UNL     1       2.993   8.547  16.782  0.00  0.00    +0.000 OA
BRANCH  12  18
ATOM     18  C   UNL     1       0.180   9.159  22.065  0.00  0.00    +0.000 C 
ATOM     19  C   UNL     1      -0.545  10.266  22.816  0.00  0.00    +0.000 C 
ATOM     20  F   UNL     1      -0.677   8.101  21.969  0.00  0.00    +0.000 F 
ATOM     21  F   UNL     1       1.206   8.722  22.849  0.00  0.00    +0.000 F 
ENDBRANCH  12  18
ENDBRANCH   1  15
BRANCH   5  22
ATOM     22  C   UNL     1       5.673   4.292  16.021  0.00  0.00    +0.000 C 
BRANCH  22  23
ATOM     23  N   UNL     1       5.238   4.177  14.614  0.00  0.00    +0.000 NA
ATOM     24  H   UNL     1       4.338   3.702  14.573  0.00  0.00    +0.000 HD
ATOM     25  H   UNL     1       5.890   3.559  14.129  0.00  0.00    +0.000 HD
ENDBRANCH  22  23
BRANCH  22  26
ATOM     26  C   UNL     1       6.690   5.453  16.146  0.00  0.00    +0.000 C 
BRANCH  26  27
ATOM     27  C   UNL     1       7.265   5.576  17.518  0.00  0.00    +0.000 A 
ATOM     28  N   UNL     1       7.522   4.579  18.341  0.00  0.00    +0.000 NA
ATOM     29  N   UNL     1       8.112   5.091  19.470  0.00  0.00    +0.000 NA
ATOM     30  C   UNL     1       8.210   6.389  19.312  0.00  0.00    +0.000 A 
ATOM     31  N   UNL     1       7.688   6.741  18.105  0.00  0.00    +0.000 N 
ATOM     32  C   UNL     1       7.629   8.076  17.573  0.00  0.00    +0.000 C 
ENDBRANCH  26  27
ENDBRANCH  22  26
ENDBRANCH   5  22
TORSDOF 6
ENDMDL
MODEL 8
REMARK VINA RESULT:      -8.7      3.930      8.839
REMARK  Name = 
REMARK  9 active torsions:
REMARK  status: ('A' for Active; 'I' for Inactive)
REMARK    1  A    between atoms: C_1  and  C_2
REMARK    2  A    between atoms: C_6  and  C_7
REMARK    3  A    between atoms: C_7  and  C_8
REMARK    4  A    between atoms: N_13  and  C_14
REMARK    5  A    between atoms: C_18  and  C_19
REMARK    6  A    between atoms: C_19  and  N_20
REMARK    7  A    between atoms: C_19  and  C_21
REMARK    8  A    between atoms: C_21  and  C_22
REMARK    9  A    between atoms: N_26  and  C_27
REMARK                            x       y       z     vdW  Elec       q    Type
REMARK                         _______ _______ _______ _____ _____    ______ ____
ROOT
ATOM      1  C   UNL     1       1.412   8.466  20.065  0.00  0.00    +0.000 A 
ATOM      2  C   UNL     1       1.511   8.779  21.429  0.00  0.00    +0.000 A 
ATOM      3  C   UNL     1       0.776   9.814  22.004  0.00  0.00    +0.000 A 
ATOM      4  C   UNL     1      -0.083  10.568  21.221  0.00  0.00    +0.000 A 
ATOM      5  C   UNL     1      -0.214  10.299  19.850  0.00  0.00    +0.000 A 
ATOM      6  C   UNL     1       0.546   9.247  19.282  0.00  0.00    +0.000 A 
ENDROOT
BRANCH   1  15
ATOM      7  C   UNL     1       3.727   1.724  17.966  0.00  0.00    +0.000 C 
ATOM      8  C   UNL     1       3.629   3.221  18.040  0.00  0.00    +0.000 A 
ATOM      9  C   UNL     1       2.803   3.821  18.986  0.00  0.00    +0.000 A 
ATOM     10  C   UNL     1       2.742   5.204  19.009  0.00  0.00    +0.000 A 
ATOM     11  C   UNL     1       3.449   6.027  18.136  0.00  0.00    +0.000 A 
ATOM     12  C   UNL     1       4.295   5.451  17.191  0.00  0.00    +0.000 A 
ATOM     13  C   UNL     1       4.372   4.035  17.159  0.00  0.00    +0.000 A 
ATOM     14  C   UNL     1       3.094   7.462  18.429  0.00  0.00    +0.000 C 
ATOM     15  N   UNL     1       2.135   7.359  19.530  0.00  0.00    +0.000 N 
ATOM     16  C   UNL     1       1.940   6.028  19.900  0.00  0.00    +0.000 C 
ATOM     17  O   UNL     1       1.266   5.525  20.784  0.00  0.00    +0.000 OA
BRANCH  12  18
ATOM     18  C   UNL     1       5.127   6.266  16.229  0.00  0.00    +0.000 C 
ATOM     19  C   UNL     1       5.808   5.379  15.197  0.00  0.00    +0.000 C 
ATOM     20  F   UNL     1       4.375   7.181  15.549  0.00  0.00    +0.000 F 
ATOM     21  F   UNL     1       6.091   6.990  16.863  0.00  0.00    +0.000 F 
ENDBRANCH  12  18
ENDBRANCH   1  15
BRANCH   5  22
ATOM     22  C   UNL     1      -1.244  11.050  19.014  0.00  0.00    +0.000 C 
BRANCH  22  23
ATOM     23  N   UNL     1      -0.569  11.596  17.818  0.00  0.00    +0.000 NA
ATOM     24  H   UNL     1      -1.024  12.462  17.535  0.00  0.00    +0.000 HD
ATOM     25  H   UNL     1      -0.721  10.948  17.044  0.00  0.00    +0.000 HD
ENDBRANCH  22  23
BRANCH  22  26
ATOM     26  C   UNL     1      -2.460  10.202  18.568  0.00  0.00    +0.000 C 
BRANCH  26  27
ATOM     27  C   UNL     1      -2.770  10.351  17.115  0.00  0.00    +0.000 A 
ATOM     28  N   UNL     1      -2.109   9.789  16.122  0.00  0.00    +0.000 NA
ATOM     29  N   UNL     1      -2.744  10.106  14.946  0.00  0.00    +0.000 NA
ATOM     30  C   UNL     1      -3.782  10.849  15.244  0.00  0.00    +0.000 A 
ATOM     31  N   UNL     1      -3.838  11.035  16.592  0.00  0.00    +0.000 N 
ATOM     32  C   UNL     1      -4.843  11.784  17.295  0.00  0.00    +0.000 C 
ENDBRANCH  26  27
ENDBRANCH  22  26
ENDBRANCH   5  22
TORSDOF 6
ENDMDL
MODEL 9
REMARK VINA RESULT:      -8.7      3.967     10.005
REMARK  Name = 
REMARK  9 active torsions:
REMARK  status: ('A' for Active; 'I' for Inactive)
REMARK    1  A    between atoms: C_1  and  C_2
REMARK    2  A    between atoms: C_6  and  C_7
REMARK    3  A    between atoms: C_7  and  C_8
REMARK    4  A    between atoms: N_13  and  C_14
REMARK    5  A    between atoms: C_18  and  C_19
REMARK    6  A    between atoms: C_19  and  N_20
REMARK    7  A    between atoms: C_19  and  C_21
REMARK    8  A    between atoms: C_21  and  C_22
REMARK    9  A    between atoms: N_26  and  C_27
REMARK                            x       y       z     vdW  Elec       q    Type
REMARK                         _______ _______ _______ _____ _____    ______ ____
ROOT
ATOM      1  C   UNL     1       1.466   8.952  19.451  0.00  0.00    +0.000 A 
ATOM      2  C   UNL     1       1.506  10.065  18.598  0.00  0.00    +0.000 A 
ATOM      3  C   UNL     1       0.860  11.260  18.912  0.00  0.00    +0.000 A 
ATOM      4  C   UNL     1       0.153  11.371  20.098  0.00  0.00    +0.000 A 
ATOM      5  C   UNL     1       0.079  10.285  20.984  0.00  0.00    +0.000 A 
ATOM      6  C   UNL     1       0.736   9.076  20.644  0.00  0.00    +0.000 A 
ENDROOT
BRANCH   1  15
ATOM      7  C   UNL     1       3.786   1.951  18.551  0.00  0.00    +0.000 C 
ATOM      8  C   UNL     1       3.693   3.439  18.371  0.00  0.00    +0.000 A 
ATOM      9  C   UNL     1       2.855   4.191  19.190  0.00  0.00    +0.000 A 
ATOM     10  C   UNL     1       2.799   5.558  18.979  0.00  0.00    +0.000 A 
ATOM     11  C   UNL     1       3.521   6.221  17.991  0.00  0.00    +0.000 A 
ATOM     12  C   UNL     1       4.378   5.493  17.168  0.00  0.00    +0.000 A 
ATOM     13  C   UNL     1       4.452   4.092  17.376  0.00  0.00    +0.000 A 
ATOM     14  C   UNL     1       3.168   7.685  18.032  0.00  0.00    +0.000 C 
ATOM     15  N   UNL     1       2.193   7.770  19.121  0.00  0.00    +0.000 N 
ATOM     16  C   UNL     1       1.987   6.521  19.707  0.00  0.00    +0.000 C 
ATOM     17  O   UNL     1       1.299   6.174  20.653  0.00  0.00    +0.000 OA
BRANCH  12  18
ATOM     18  C   UNL     1       5.227   6.133  16.095  0.00  0.00    +0.000 C 
ATOM     19  C   UNL     1       5.735   5.100  15.101  0.00  0.00    +0.000 C 
ATOM     20  F   UNL     1       4.536   7.075  15.389  0.00  0.00    +0.000 F 
ATOM     21  F   UNL     1       6.306   6.788  16.609  0.00  0.00    +0.000 F 
ENDBRANCH  12  18
ENDBRANCH   1  15
BRANCH   5  22
ATOM     22  C   UNL     1      -0.600  10.444  22.340  0.00  0.00    +0.000 C 
BRANCH  22  23
ATOM     23  N   UNL     1       0.291   9.883  23.378  0.00  0.00    +0.000 NA
ATOM     24  H   UNL     1       0.591  10.626  24.006  0.00  0.00    +0.000 HD
ATOM     25  H   UNL     1       1.144   9.557  22.921  0.00  0.00    +0.000 HD
ENDBRANCH  22  23
BRANCH  22  26
ATOM     26  C   UNL     1      -0.963  11.901  22.716  0.00  0.00    +0.000 C 
BRANCH  26  27
ATOM     27  C   UNL     1      -2.436  12.142  22.750  0.00  0.00    +0.000 A 
ATOM     28  N   UNL     1      -3.243  11.860  23.755  0.00  0.00    +0.000 NA
ATOM     29  N   UNL     1      -4.504  12.297  23.432  0.00  0.00    +0.000 NA
ATOM     30  C   UNL     1      -4.442  12.842  22.241  0.00  0.00    +0.000 A 
ATOM     31  N   UNL     1      -3.167  12.764  21.771  0.00  0.00    +0.000 N 
ATOM     32  C   UNL     1      -2.707  13.267  20.505  0.00  0.00    +0.000 C 
ENDBRANCH  26  27
ENDBRANCH  22  26
ENDBRANCH   5  22
TORSDOF 6
ENDMDL
