MODEL 1
REMARK VINA RESULT:      -8.8      0.000      0.000
REMARK  Name = 
REMARK  6 active torsions:
REMARK  status: ('A' for Active; 'I' for Inactive)
REMARK    1  A    between atoms: C_1  and  N_2
REMARK    2  A    between atoms: C_6  and  C_7
REMARK    3  A    between atoms: C_7  and  C_8
REMARK    4  A    between atoms: C_8  and  C_9
REMARK    5  A    between atoms: C_13  and  N_14
REMARK    6  A    between atoms: C_22  and  C_23
REMARK                            x       y       z     vdW  Elec       q    Type
REMARK                         _______ _______ _______ _____ _____    ______ ____
ROOT
ATOM      1  C   UNL     1       7.885   7.725  17.846  0.00  0.00    +0.000 A 
ATOM      2  C   UNL     1       7.984   6.897  18.974  0.00  0.00    +0.000 A 
ATOM      3  C   UNL     1       7.831   5.521  18.852  0.00  0.00    +0.000 A 
ATOM      4  C   UNL     1       7.454   4.972  17.632  0.00  0.00    +0.000 A 
ATOM      5  C   UNL     1       7.100   5.822  16.572  0.00  0.00    +0.000 A 
ATOM      6  C   UNL     1       7.461   7.171  16.634  0.00  0.00    +0.000 A 
ENDROOT
BRANCH   5   7
ATOM      7  N   UNL     1       5.991   5.456  15.699  0.00  0.00    +0.000 N 
ATOM      8  C   UNL     1       4.821   6.325  15.969  0.00  0.00    +0.000 C 
ATOM      9  C   UNL     1       4.081   5.527  17.002  0.00  0.00    +0.000 A 
ATOM     10  C   UNL     1       4.394   4.179  16.798  0.00  0.00    +0.000 A 
ATOM     11  C   UNL     1       4.021   3.183  17.677  0.00  0.00    +0.000 A 
ATOM     12  C   UNL     1       3.326   3.585  18.810  0.00  0.00    +0.000 A 
ATOM     13  F   UNL     1       3.020   2.677  19.746  0.00  0.00    +0.000 F 
ATOM     14  C   UNL     1       3.022   4.936  19.053  0.00  0.00    +0.000 A 
ATOM     15  C   UNL     1       3.395   5.939  18.142  0.00  0.00    +0.000 A 
ATOM     16  C   UNL     1       5.519   4.124  15.837  0.00  0.00    +0.000 C 
ATOM     17  O   UNL     1       6.036   3.090  15.455  0.00  0.00    +0.000 OA
BRANCH  15  18
ATOM     18  C   UNL     1       3.214   7.393  18.481  0.00  0.00    +0.000 C 
ATOM     19  F   UNL     1       2.534   8.073  17.515  0.00  0.00    +0.000 F 
ATOM     20  F   UNL     1       2.511   7.583  19.631  0.00  0.00    +0.000 F 
ENDBRANCH  15  18
ENDBRANCH   5   7
BRANCH   1  21
ATOM     21  C   UNL     1       8.110   9.214  17.962  0.00  0.00    +0.000 C 
BRANCH  21  22
ATOM     22  C   UNL     1       9.098   9.564  19.080  0.00  0.00    +0.000 C 
BRANCH  22  28
ATOM     23  C   UNL     1       9.230  11.791  21.209  0.00  0.00    +0.000 C 
ATOM     24  N   UNL     1       9.726  11.877  19.869  0.00  0.00    +0.000 N 
ATOM     25  C   UNL     1      10.317  12.964  19.295  0.00  0.00    +0.000 A 
ATOM     26  N   UNL     1      10.635  12.690  18.051  0.00  0.00    +0.000 NA
ATOM     27  N   UNL     1      10.235  11.406  17.795  0.00  0.00    +0.000 NA
ATOM     28  C   UNL     1       9.692  10.917  18.889  0.00  0.00    +0.000 A 
ENDBRANCH  22  28
ENDBRANCH  21  22
ENDBRANCH   1  21
TORSDOF 5
ENDMDL
MODEL 2
REMARK VINA RESULT:      -8.6      4.655      6.713
REMARK  Name = 
REMARK  6 active torsions:
REMARK  status: ('A' for Active; 'I' for Inactive)
REMARK    1  A    between atoms: C_1  and  N_2
REMARK    2  A    between atoms: C_6  and  C_7
REMARK    3  A    between atoms: C_7  and  C_8
REMARK    4  A    between atoms: C_8  and  C_9
REMARK    5  A    between atoms: C_13  and  N_14
REMARK    6  A    between atoms: C_22  and  C_23
REMARK                            x       y       z     vdW  Elec       q    Type
REMARK                         _______ _______ _______ _____ _____    ______ ____
ROOT
ATOM      1  C   UNL     1       1.922   7.284  19.915  0.00  0.00    +0.000 A 
ATOM      2  C   UNL     1       2.362   8.205  18.955  0.00  0.00    +0.000 A 
ATOM      3  C   UNL     1       3.086   7.776  17.848  0.00  0.00    +0.000 A 
ATOM      4  C   UNL     1       3.485   6.447  17.755  0.00  0.00    +0.000 A 
ATOM      5  C   UNL     1       3.271   5.584  18.841  0.00  0.00    +0.000 A 
ATOM      6  C   UNL     1       2.365   5.959  19.839  0.00  0.00    +0.000 A 
ENDROOT
BRANCH   5   7
ATOM      7  N   UNL     1       4.287   4.597  19.185  0.00  0.00    +0.000 N 
ATOM      8  C   UNL     1       5.628   5.231  19.207  0.00  0.00    +0.000 C 
ATOM      9  C   UNL     1       6.093   5.008  17.798  0.00  0.00    +0.000 A 
ATOM     10  C   UNL     1       5.457   3.858  17.320  0.00  0.00    +0.000 A 
ATOM     11  C   UNL     1       5.525   3.459  16.001  0.00  0.00    +0.000 A 
ATOM     12  C   UNL     1       6.249   4.277  15.143  0.00  0.00    +0.000 A 
ATOM     13  F   UNL     1       6.272   3.993  13.835  0.00  0.00    +0.000 F 
ATOM     14  C   UNL     1       6.876   5.452  15.593  0.00  0.00    +0.000 A 
ATOM     15  C   UNL     1       6.811   5.839  16.942  0.00  0.00    +0.000 A 
ATOM     16  C   UNL     1       4.398   3.499  18.291  0.00  0.00    +0.000 C 
ATOM     17  O   UNL     1       3.653   2.546  18.161  0.00  0.00    +0.000 OA
BRANCH  15  18
ATOM     18  C   UNL     1       7.341   7.175  17.386  0.00  0.00    +0.000 C 
ATOM     19  F   UNL     1       6.345   8.058  17.681  0.00  0.00    +0.000 F 
ATOM     20  F   UNL     1       8.106   7.093  18.509  0.00  0.00    +0.000 F 
ENDBRANCH  15  18
ENDBRANCH   5   7
BRANCH   1  21
ATOM     21  C   UNL     1       1.084   7.735  21.088  0.00  0.00    +0.000 C 
BRANCH  21  22
ATOM     22  C   UNL     1       1.613   9.032  21.710  0.00  0.00    +0.000 C 
BRANCH  22  28
ATOM     23  C   UNL     1       0.184  11.137  19.968  0.00  0.00    +0.000 C 
ATOM     24  N   UNL     1      -0.100  10.847  21.341  0.00  0.00    +0.000 N 
ATOM     25  C   UNL     1      -1.030  11.469  22.122  0.00  0.00    +0.000 A 
ATOM     26  N   UNL     1      -1.007  10.956  23.330  0.00  0.00    +0.000 NA
ATOM     27  N   UNL     1      -0.038   9.991  23.351  0.00  0.00    +0.000 NA
ATOM     28  C   UNL     1       0.505   9.924  22.155  0.00  0.00    +0.000 A 
ENDBRANCH  22  28
ENDBRANCH  21  22
ENDBRANCH   1  21
TORSDOF 5
ENDMDL
MODEL 3
REMARK VINA RESULT:      -8.3      4.486      6.540
REMARK  Name = 
REMARK  6 active torsions:
REMARK  status: ('A' for Active; 'I' for Inactive)
REMARK    1  A    between atoms: C_1  and  N_2
REMARK    2  A    between atoms: C_6  and  C_7
REMARK    3  A    between atoms: C_7  and  C_8
REMARK    4  A    between atoms: C_8  and  C_9
REMARK    5  A    between atoms: C_13  and  N_14
REMARK    6  A    between atoms: C_22  and  C_23
REMARK                            x       y       z     vdW  Elec       q    Type
REMARK                         _______ _______ _______ _____ _____    ______ ____
ROOT
ATOM      1  C   UNL     1       2.091   7.452  19.906  0.00  0.00    +0.000 A 
ATOM      2  C   UNL     1       2.459   8.223  18.795  0.00  0.00    +0.000 A 
ATOM      3  C   UNL     1       2.939   7.612  17.642  0.00  0.00    +0.000 A 
ATOM      4  C   UNL     1       3.175   6.242  17.632  0.00  0.00    +0.000 A 
ATOM      5  C   UNL     1       3.055   5.512  18.825  0.00  0.00    +0.000 A 
ATOM      6  C   UNL     1       2.373   6.082  19.905  0.00  0.00    +0.000 A 
ENDROOT
BRANCH   5   7
ATOM      7  N   UNL     1       4.005   4.444  19.111  0.00  0.00    +0.000 N 
ATOM      8  C   UNL     1       5.357   5.009  19.336  0.00  0.00    +0.000 C 
ATOM      9  C   UNL     1       5.940   4.963  17.955  0.00  0.00    +0.000 A 
ATOM     10  C   UNL     1       5.314   3.918  17.267  0.00  0.00    +0.000 A 
ATOM     11  C   UNL     1       5.488   3.703  15.915  0.00  0.00    +0.000 A 
ATOM     12  C   UNL     1       6.312   4.599  15.246  0.00  0.00    +0.000 A 
ATOM     13  F   UNL     1       6.444   4.497  13.917  0.00  0.00    +0.000 F 
ATOM     14  C   UNL     1       6.932   5.672  15.908  0.00  0.00    +0.000 A 
ATOM     15  C   UNL     1       6.758   5.871  17.288  0.00  0.00    +0.000 A 
ATOM     16  C   UNL     1       4.161   3.475  18.084  0.00  0.00    +0.000 C 
ATOM     17  O   UNL     1       3.401   2.583  17.757  0.00  0.00    +0.000 OA
BRANCH  15  18
ATOM     18  C   UNL     1       7.288   7.109  17.960  0.00  0.00    +0.000 C 
ATOM     19  F   UNL     1       8.201   6.824  18.932  0.00  0.00    +0.000 F 
ATOM     20  F   UNL     1       7.918   7.950  17.095  0.00  0.00    +0.000 F 
ENDBRANCH  15  18
ENDBRANCH   5   7
BRANCH   1  21
ATOM     21  C   UNL     1       1.513   8.105  21.139  0.00  0.00    +0.000 C 
BRANCH  21  22
ATOM     22  C   UNL     1       0.163   8.774  20.860  0.00  0.00    +0.000 C 
BRANCH  22  28
ATOM     23  C   UNL     1      -0.992  10.536  23.112  0.00  0.00    +0.000 C 
ATOM     24  N   UNL     1      -0.276  11.001  21.963  0.00  0.00    +0.000 N 
ATOM     25  C   UNL     1      -0.006  12.301  21.651  0.00  0.00    +0.000 A 
ATOM     26  N   UNL     1       0.657  12.356  20.520  0.00  0.00    +0.000 NA
ATOM     27  N   UNL     1       0.814  11.074  20.069  0.00  0.00    +0.000 NA
ATOM     28  C   UNL     1       0.256  10.259  20.938  0.00  0.00    +0.000 A 
ENDBRANCH  22  28
ENDBRANCH  21  22
ENDBRANCH   1  21
TORSDOF 5
ENDMDL
MODEL 4
REMARK VINA RESULT:      -8.3      0.610      1.173
REMARK  Name = 
REMARK  6 active torsions:
REMARK  status: ('A' for Active; 'I' for Inactive)
REMARK    1  A    between atoms: C_1  and  N_2
REMARK    2  A    between atoms: C_6  and  C_7
REMARK    3  A    between atoms: C_7  and  C_8
REMARK    4  A    between atoms: C_8  and  C_9
REMARK    5  A    between atoms: C_13  and  N_14
REMARK    6  A    between atoms: C_22  and  C_23
REMARK                            x       y       z     vdW  Elec       q    Type
REMARK                         _______ _______ _______ _____ _____    ______ ____
ROOT
ATOM      1  C   UNL     1       7.940   7.762  17.959  0.00  0.00    +0.000 A 
ATOM      2  C   UNL     1       8.033   6.890  19.053  0.00  0.00    +0.000 A 
ATOM      3  C   UNL     1       7.852   5.522  18.881  0.00  0.00    +0.000 A 
ATOM      4  C   UNL     1       7.452   5.028  17.644  0.00  0.00    +0.000 A 
ATOM      5  C   UNL     1       7.105   5.924  16.621  0.00  0.00    +0.000 A 
ATOM      6  C   UNL     1       7.493   7.263  16.730  0.00  0.00    +0.000 A 
ENDROOT
BRANCH   5   7
ATOM      7  N   UNL     1       5.981   5.614  15.746  0.00  0.00    +0.000 N 
ATOM      8  C   UNL     1       4.800   6.427  16.124  0.00  0.00    +0.000 C 
ATOM      9  C   UNL     1       4.105   5.522  17.098  0.00  0.00    +0.000 A 
ATOM     10  C   UNL     1       4.440   4.205  16.764  0.00  0.00    +0.000 A 
ATOM     11  C   UNL     1       4.112   3.126  17.558  0.00  0.00    +0.000 A 
ATOM     12  C   UNL     1       3.440   3.408  18.740  0.00  0.00    +0.000 A 
ATOM     13  F   UNL     1       3.178   2.412  19.596  0.00  0.00    +0.000 F 
ATOM     14  C   UNL     1       3.114   4.724  19.112  0.00  0.00    +0.000 A 
ATOM     15  C   UNL     1       3.442   5.813  18.287  0.00  0.00    +0.000 A 
ATOM     16  C   UNL     1       5.540   4.264  15.774  0.00  0.00    +0.000 C 
ATOM     17  O   UNL     1       6.068   3.281  15.287  0.00  0.00    +0.000 OA
BRANCH  15  18
ATOM     18  C   UNL     1       3.240   7.226  18.762  0.00  0.00    +0.000 C 
ATOM     19  F   UNL     1       2.604   8.001  17.837  0.00  0.00    +0.000 F 
ATOM     20  F   UNL     1       2.482   7.300  19.890  0.00  0.00    +0.000 F 
ENDBRANCH  15  18
ENDBRANCH   5   7
BRANCH   1  21
ATOM     21  C   UNL     1       8.194   9.241  18.128  0.00  0.00    +0.000 C 
BRANCH  21  22
ATOM     22  C   UNL     1       9.362   9.520  19.080  0.00  0.00    +0.000 C 
BRANCH  22  28
ATOM     23  C   UNL     1      10.426  12.004  17.595  0.00  0.00    +0.000 C 
ATOM     24  N   UNL     1       9.822  11.994  18.893  0.00  0.00    +0.000 N 
ATOM     25  C   UNL     1       9.639  13.073  19.707  0.00  0.00    +0.000 A 
ATOM     26  N   UNL     1       9.068  12.692  20.825  0.00  0.00    +0.000 NA
ATOM     27  N   UNL     1       8.884  11.338  20.755  0.00  0.00    +0.000 NA
ATOM     28  C   UNL     1       9.335  10.919  19.593  0.00  0.00    +0.000 A 
ENDBRANCH  22  28
ENDBRANCH  21  22
ENDBRANCH   1  21
TORSDOF 5
ENDMDL
MODEL 5
REMARK VINA RESULT:      -8.2      4.348      6.487
REMARK  Name = 
REMARK  6 active torsions:
REMARK  status: ('A' for Active; 'I' for Inactive)
REMARK    1  A    between atoms: C_1  and  N_2
REMARK    2  A    between atoms: C_6  and  C_7
REMARK    3  A    between atoms: C_7  and  C_8
REMARK    4  A    between atoms: C_8  and  C_9
REMARK    5  A    between atoms: C_13  and  N_14
REMARK    6  A    between atoms: C_22  and  C_23
REMARK                            x       y       z     vdW  Elec       q    Type
REMARK                         _______ _______ _______ _____ _____    ______ ____
ROOT
ATOM      1  C   UNL     1       1.970   7.614  19.959  0.00  0.00    +0.000 A 
ATOM      2  C   UNL     1       2.355   8.398  18.863  0.00  0.00    +0.000 A 
ATOM      3  C   UNL     1       2.924   7.807  17.740  0.00  0.00    +0.000 A 
ATOM      4  C   UNL     1       3.230   6.451  17.752  0.00  0.00    +0.000 A 
ATOM      5  C   UNL     1       3.087   5.721  18.943  0.00  0.00    +0.000 A 
ATOM      6  C   UNL     1       2.322   6.260  19.982  0.00  0.00    +0.000 A 
ENDROOT
BRANCH   5   7
ATOM      7  N   UNL     1       4.075   4.705  19.284  0.00  0.00    +0.000 N 
ATOM      8  C   UNL     1       5.437   5.290  19.269  0.00  0.00    +0.000 C 
ATOM      9  C   UNL     1       5.866   5.027  17.856  0.00  0.00    +0.000 A 
ATOM     10  C   UNL     1       5.180   3.892  17.411  0.00  0.00    +0.000 A 
ATOM     11  C   UNL     1       5.208   3.469  16.098  0.00  0.00    +0.000 A 
ATOM     12  C   UNL     1       5.943   4.245  15.212  0.00  0.00    +0.000 A 
ATOM     13  F   UNL     1       5.930   3.938  13.909  0.00  0.00    +0.000 F 
ATOM     14  C   UNL     1       6.620   5.405  15.628  0.00  0.00    +0.000 A 
ATOM     15  C   UNL     1       6.595   5.817  16.971  0.00  0.00    +0.000 A 
ATOM     16  C   UNL     1       4.129   3.588  18.408  0.00  0.00    +0.000 C 
ATOM     17  O   UNL     1       3.348   2.660  18.310  0.00  0.00    +0.000 OA
BRANCH  15  18
ATOM     18  C   UNL     1       7.181   7.141  17.381  0.00  0.00    +0.000 C 
ATOM     19  F   UNL     1       6.223   8.057  17.701  0.00  0.00    +0.000 F 
ATOM     20  F   UNL     1       7.983   7.047  18.476  0.00  0.00    +0.000 F 
ENDBRANCH  15  18
ENDBRANCH   5   7
BRANCH   1  21
ATOM     21  C   UNL     1       1.297   8.241  21.157  0.00  0.00    +0.000 C 
BRANCH  21  22
ATOM     22  C   UNL     1       0.028   9.008  20.769  0.00  0.00    +0.000 C 
BRANCH  22  28
ATOM     23  C   UNL     1      -1.346  11.100  18.968  0.00  0.00    +0.000 C 
ATOM     24  N   UNL     1      -0.405  11.375  20.011  0.00  0.00    +0.000 N 
ATOM     25  C   UNL     1       0.067  12.604  20.369  0.00  0.00    +0.000 A 
ATOM     26  N   UNL     1       0.924  12.478  21.355  0.00  0.00    +0.000 NA
ATOM     27  N   UNL     1       1.031  11.145  21.643  0.00  0.00    +0.000 NA
ATOM     28  C   UNL     1       0.230  10.483  20.837  0.00  0.00    +0.000 A 
ENDBRANCH  22  28
ENDBRANCH  21  22
ENDBRANCH   1  21
TORSDOF 5
ENDMDL
MODEL 6
REMARK VINA RESULT:      -7.8      4.586      6.780
REMARK  Name = 
REMARK  6 active torsions:
REMARK  status: ('A' for Active; 'I' for Inactive)
REMARK    1  A    between atoms: C_1  and  N_2
REMARK    2  A    between atoms: C_6  and  C_7
REMARK    3  A    between atoms: C_7  and  C_8
REMARK    4  A    between atoms: C_8  and  C_9
REMARK    5  A    between atoms: C_13  and  N_14
REMARK    6  A    between atoms: C_22  and  C_23
REMARK                            x       y       z     vdW  Elec       q    Type
REMARK                         _______ _______ _______ _____ _____    ______ ____
ROOT
ATOM      1  C   UNL     1       1.909   7.661  19.731  0.00  0.00    +0.000 A 
ATOM      2  C   UNL     1       2.454   8.481  18.733  0.00  0.00    +0.000 A 
ATOM      3  C   UNL     1       3.152   7.923  17.668  0.00  0.00    +0.000 A 
ATOM      4  C   UNL     1       3.422   6.559  17.655  0.00  0.00    +0.000 A 
ATOM      5  C   UNL     1       3.106   5.783  18.781  0.00  0.00    +0.000 A 
ATOM      6  C   UNL     1       2.223   6.298  19.736  0.00  0.00    +0.000 A 
ENDROOT
BRANCH   5   7
ATOM      7  N   UNL     1       4.016   4.724  19.201  0.00  0.00    +0.000 N 
ATOM      8  C   UNL     1       5.375   5.274  19.418  0.00  0.00    +0.000 C 
ATOM      9  C   UNL     1       6.001   5.080  18.068  0.00  0.00    +0.000 A 
ATOM     10  C   UNL     1       5.369   3.990  17.462  0.00  0.00    +0.000 A 
ATOM     11  C   UNL     1       5.580   3.641  16.144  0.00  0.00    +0.000 A 
ATOM     12  C   UNL     1       6.449   4.448  15.421  0.00  0.00    +0.000 A 
ATOM     13  F   UNL     1       6.621   4.215  14.114  0.00  0.00    +0.000 F 
ATOM     14  C   UNL     1       7.078   5.564  15.999  0.00  0.00    +0.000 A 
ATOM     15  C   UNL     1       6.865   5.900  17.347  0.00  0.00    +0.000 A 
ATOM     16  C   UNL     1       4.178   3.657  18.277  0.00  0.00    +0.000 C 
ATOM     17  O   UNL     1       3.404   2.756  18.011  0.00  0.00    +0.000 OA
BRANCH  15  18
ATOM     18  C   UNL     1       7.407   7.183  17.915  0.00  0.00    +0.000 C 
ATOM     19  F   UNL     1       8.330   6.970  18.896  0.00  0.00    +0.000 F 
ATOM     20  F   UNL     1       8.032   7.952  16.981  0.00  0.00    +0.000 F 
ENDBRANCH  15  18
ENDBRANCH   5   7
BRANCH   1  21
ATOM     21  C   UNL     1       1.098   8.255  20.859  0.00  0.00    +0.000 C 
BRANCH  21  22
ATOM     22  C   UNL     1       1.184   9.784  20.888  0.00  0.00    +0.000 C 
BRANCH  22  28
ATOM     23  C   UNL     1      -0.222  12.336  21.898  0.00  0.00    +0.000 C 
ATOM     24  N   UNL     1      -0.608  11.555  20.761  0.00  0.00    +0.000 N 
ATOM     25  C   UNL     1      -1.679  11.788  19.948  0.00  0.00    +0.000 A 
ATOM     26  N   UNL     1      -1.735  10.865  19.017  0.00  0.00    +0.000 NA
ATOM     27  N   UNL     1      -0.695  10.000  19.227  0.00  0.00    +0.000 NA
ATOM     28  C   UNL     1      -0.017  10.418  20.274  0.00  0.00    +0.000 A 
ENDBRANCH  22  28
ENDBRANCH  21  22
ENDBRANCH   1  21
TORSDOF 5
ENDMDL
MODEL 7
REMARK VINA RESULT:      -7.8      1.188      1.537
REMARK  Name = 
REMARK  6 active torsions:
REMARK  status: ('A' for Active; 'I' for Inactive)
REMARK    1  A    between atoms: C_1  and  N_2
REMARK    2  A    between atoms: C_6  and  C_7
REMARK    3  A    between atoms: C_7  and  C_8
REMARK    4  A    between atoms: C_8  and  C_9
REMARK    5  A    between atoms: C_13  and  N_14
REMARK    6  A    between atoms: C_22  and  C_23
REMARK                            x       y       z     vdW  Elec       q    Type
REMARK                         _______ _______ _______ _____ _____    ______ ____
ROOT
ATOM      1  C   UNL     1       8.042   7.268  18.340  0.00  0.00    +0.000 A 
ATOM      2  C   UNL     1       8.157   6.123  19.141  0.00  0.00    +0.000 A 
ATOM      3  C   UNL     1       7.865   4.868  18.621  0.00  0.00    +0.000 A 
ATOM      4  C   UNL     1       7.336   4.755  17.340  0.00  0.00    +0.000 A 
ATOM      5  C   UNL     1       6.975   5.916  16.638  0.00  0.00    +0.000 A 
ATOM      6  C   UNL     1       7.467   7.152  17.070  0.00  0.00    +0.000 A 
ENDROOT
BRANCH   5   7
ATOM      7  N   UNL     1       5.767   5.915  15.822  0.00  0.00    +0.000 N 
ATOM      8  C   UNL     1       4.613   6.399  16.617  0.00  0.00    +0.000 C 
ATOM      9  C   UNL     1       4.067   5.117  17.172  0.00  0.00    +0.000 A 
ATOM     10  C   UNL     1       4.402   4.093  16.279  0.00  0.00    +0.000 A 
ATOM     11  C   UNL     1       4.204   2.758  16.564  0.00  0.00    +0.000 A 
ATOM     12  C   UNL     1       3.666   2.463  17.810  0.00  0.00    +0.000 A 
ATOM     13  F   UNL     1       3.538   1.183  18.180  0.00  0.00    +0.000 F 
ATOM     14  C   UNL     1       3.344   3.472  18.736  0.00  0.00    +0.000 A 
ATOM     15  C   UNL     1       3.538   4.828  18.427  0.00  0.00    +0.000 A 
ATOM     16  C   UNL     1       5.376   4.648  15.312  0.00  0.00    +0.000 C 
ATOM     17  O   UNL     1       5.874   4.006  14.406  0.00  0.00    +0.000 OA
BRANCH  15  18
ATOM     18  C   UNL     1       3.348   5.891  19.476  0.00  0.00    +0.000 C 
ATOM     19  F   UNL     1       4.520   6.497  19.821  0.00  0.00    +0.000 F 
ATOM     20  F   UNL     1       2.520   6.892  19.069  0.00  0.00    +0.000 F 
ENDBRANCH  15  18
ENDBRANCH   5   7
BRANCH   1  21
ATOM     21  C   UNL     1       8.415   8.628  18.881  0.00  0.00    +0.000 C 
BRANCH  21  22
ATOM     22  C   UNL     1       8.540   9.677  17.770  0.00  0.00    +0.000 C 
BRANCH  22  28
ATOM     23  C   UNL     1       7.664  12.567  17.148  0.00  0.00    +0.000 C 
ATOM     24  N   UNL     1       8.787  12.182  17.948  0.00  0.00    +0.000 N 
ATOM     25  C   UNL     1       9.678  13.023  18.548  0.00  0.00    +0.000 A 
ATOM     26  N   UNL     1      10.585  12.323  19.188  0.00  0.00    +0.000 NA
ATOM     27  N   UNL     1      10.297  10.999  18.996  0.00  0.00    +0.000 NA
ATOM     28  C   UNL     1       9.215  10.915  18.253  0.00  0.00    +0.000 A 
ENDBRANCH  22  28
ENDBRANCH  21  22
ENDBRANCH   1  21
TORSDOF 5
ENDMDL
MODEL 8
REMARK VINA RESULT:      -7.8      4.831      7.369
REMARK  Name = 
REMARK  6 active torsions:
REMARK  status: ('A' for Active; 'I' for Inactive)
REMARK    1  A    between atoms: C_1  and  N_2
REMARK    2  A    between atoms: C_6  and  C_7
REMARK    3  A    between atoms: C_7  and  C_8
REMARK    4  A    between atoms: C_8  and  C_9
REMARK    5  A    between atoms: C_13  and  N_14
REMARK    6  A    between atoms: C_22  and  C_23
REMARK                            x       y       z     vdW  Elec       q    Type
REMARK                         _______ _______ _______ _____ _____    ______ ____
ROOT
ATOM      1  C   UNL     1       1.945   3.886  18.491  0.00  0.00    +0.000 A 
ATOM      2  C   UNL     1       1.581   3.402  19.755  0.00  0.00    +0.000 A 
ATOM      3  C   UNL     1       1.138   4.275  20.742  0.00  0.00    +0.000 A 
ATOM      4  C   UNL     1       1.175   5.647  20.520  0.00  0.00    +0.000 A 
ATOM      5  C   UNL     1       1.785   6.141  19.356  0.00  0.00    +0.000 A 
ATOM      6  C   UNL     1       2.024   5.268  18.290  0.00  0.00    +0.000 A 
ENDROOT
BRANCH   5   7
ATOM      7  N   UNL     1       2.583   7.359  19.426  0.00  0.00    +0.000 N 
ATOM      8  C   UNL     1       2.168   8.176  20.592  0.00  0.00    +0.000 C 
ATOM      9  C   UNL     1       1.124   9.066  19.984  0.00  0.00    +0.000 A 
ATOM     10  C   UNL     1       1.431   9.210  18.627  0.00  0.00    +0.000 A 
ATOM     11  C   UNL     1       0.582   9.825  17.730  0.00  0.00    +0.000 A 
ATOM     12  C   UNL     1      -0.626  10.287  18.236  0.00  0.00    +0.000 A 
ATOM     13  F   UNL     1      -1.530  10.807  17.397  0.00  0.00    +0.000 F 
ATOM     14  C   UNL     1      -0.970  10.132  19.591  0.00  0.00    +0.000 A 
ATOM     15  C   UNL     1      -0.090   9.516  20.497  0.00  0.00    +0.000 A 
ATOM     16  C   UNL     1       2.483   8.220  18.301  0.00  0.00    +0.000 C 
ATOM     17  O   UNL     1       2.964   8.082  17.192  0.00  0.00    +0.000 OA
BRANCH  15  18
ATOM     18  C   UNL     1      -0.526   9.206  21.903  0.00  0.00    +0.000 C 
ATOM     19  F   UNL     1      -0.837   7.889  22.072  0.00  0.00    +0.000 F 
ATOM     20  F   UNL     1       0.436   9.480  22.826  0.00  0.00    +0.000 F 
ENDBRANCH  15  18
ENDBRANCH   5   7
BRANCH   1  21
ATOM     21  C   UNL     1       2.371   2.936  17.396  0.00  0.00    +0.000 C 
BRANCH  21  22
ATOM     22  C   UNL     1       3.741   2.310  17.675  0.00  0.00    +0.000 C 
BRANCH  22  28
ATOM     23  C   UNL     1       5.213   4.274  15.807  0.00  0.00    +0.000 C 
ATOM     24  N   UNL     1       5.370   4.185  17.228  0.00  0.00    +0.000 N 
ATOM     25  C   UNL     1       6.216   4.932  17.995  0.00  0.00    +0.000 A 
ATOM     26  N   UNL     1       6.105   4.572  19.252  0.00  0.00    +0.000 NA
ATOM     27  N   UNL     1       5.183   3.562  19.315  0.00  0.00    +0.000 NA
ATOM     28  C   UNL     1       4.740   3.332  18.098  0.00  0.00    +0.000 A 
ENDBRANCH  22  28
ENDBRANCH  21  22
ENDBRANCH   1  21
TORSDOF 5
ENDMDL
MODEL 9
REMARK VINA RESULT:      -7.8      4.501      6.563
REMARK  Name = 
REMARK  6 active torsions:
REMARK  status: ('A' for Active; 'I' for Inactive)
REMARK    1  A    between atoms: C_1  and  N_2
REMARK    2  A    between atoms: C_6  and  C_7
REMARK    3  A    between atoms: C_7  and  C_8
REMARK    4  A    between atoms: C_8  and  C_9
REMARK    5  A    between atoms: C_13  and  N_14
REMARK    6  A    between atoms: C_22  and  C_23
REMARK                            x       y       z     vdW  Elec       q    Type
REMARK                         _______ _______ _______ _____ _____    ______ ____
ROOT
ATOM      1  C   UNL     1       2.340   5.976  19.996  0.00  0.00    +0.000 A 
ATOM      2  C   UNL     1       1.243   5.296  20.544  0.00  0.00    +0.000 A 
ATOM      3  C   UNL     1       1.374   3.981  20.975  0.00  0.00    +0.000 A 
ATOM      4  C   UNL     1       2.561   3.293  20.748  0.00  0.00    +0.000 A 
ATOM      5  C   UNL     1       3.564   3.887  19.967  0.00  0.00    +0.000 A 
ATOM      6  C   UNL     1       3.514   5.264  19.729  0.00  0.00    +0.000 A 
ENDROOT
BRANCH   5   7
ATOM      7  N   UNL     1       4.330   3.066  19.037  0.00  0.00    +0.000 N 
ATOM      8  C   UNL     1       5.763   3.443  19.084  0.00  0.00    +0.000 C 
ATOM      9  C   UNL     1       5.841   4.483  18.006  0.00  0.00    +0.000 A 
ATOM     10  C   UNL     1       4.835   4.202  17.076  0.00  0.00    +0.000 A 
ATOM     11  C   UNL     1       4.510   5.059  16.044  0.00  0.00    +0.000 A 
ATOM     12  C   UNL     1       5.225   6.248  15.977  0.00  0.00    +0.000 A 
ATOM     13  F   UNL     1       4.892   7.160  15.055  0.00  0.00    +0.000 F 
ATOM     14  C   UNL     1       6.224   6.566  16.915  0.00  0.00    +0.000 A 
ATOM     15  C   UNL     1       6.554   5.678  17.952  0.00  0.00    +0.000 A 
ATOM     16  C   UNL     1       3.951   3.175  17.673  0.00  0.00    +0.000 C 
ATOM     17  O   UNL     1       2.969   2.719  17.117  0.00  0.00    +0.000 OA
BRANCH  15  18
ATOM     18  C   UNL     1       7.502   6.090  19.045  0.00  0.00    +0.000 C 
ATOM     19  F   UNL     1       8.452   5.144  19.294  0.00  0.00    +0.000 F 
ATOM     20  F   UNL     1       8.185   7.230  18.749  0.00  0.00    +0.000 F 
ENDBRANCH  15  18
ENDBRANCH   5   7
BRANCH   1  21
ATOM     21  C   UNL     1       2.220   7.423  19.580  0.00  0.00    +0.000 C 
BRANCH  21  22
ATOM     22  C   UNL     1       1.496   8.268  20.634  0.00  0.00    +0.000 C 
BRANCH  22  28
ATOM     23  C   UNL     1      -0.304  10.272  22.134  0.00  0.00    +0.000 C 
ATOM     24  N   UNL     1      -0.038  10.269  20.728  0.00  0.00    +0.000 N 
ATOM     25  C   UNL     1      -0.555  11.132  19.806  0.00  0.00    +0.000 A 
ATOM     26  N   UNL     1      -0.105  10.825  18.612  0.00  0.00    +0.000 NA
ATOM     27  N   UNL     1       0.710   9.734  18.744  0.00  0.00    +0.000 NA
ATOM     28  C   UNL     1       0.752   9.402  20.016  0.00  0.00    +0.000 A 
ENDBRANCH  22  28
ENDBRANCH  21  22
ENDBRANCH   1  21
TORSDOF 5
ENDMDL
