MODEL 1
REMARK VINA RESULT:      -8.0      0.000      0.000
REMARK  Name = 
REMARK  7 active torsions:
REMARK  status: ('A' for Active; 'I' for Inactive)
REMARK    1  A    between atoms: C_1  and  N_2
REMARK    2  A    between atoms: C_6  and  C_7
REMARK    3  A    between atoms: C_7  and  C_8
REMARK    4  A    between atoms: C_8  and  C_9
REMARK    5  A    between atoms: C_13  and  N_14
REMARK    6  A    between atoms: C_21  and  C_22
REMARK    7  A    between atoms: C_22  and  C_23
REMARK                            x       y       z     vdW  Elec       q    Type
REMARK                         _______ _______ _______ _____ _____    ______ ____
ROOT
ATOM      1  C   UNL     1       7.798   7.631  17.779  0.00  0.00    +0.000 A 
ATOM      2  C   UNL     1       7.832   6.802  18.910  0.00  0.00    +0.000 A 
ATOM      3  C   UNL     1       7.727   5.422  18.781  0.00  0.00    +0.000 A 
ATOM      4  C   UNL     1       7.455   4.867  17.537  0.00  0.00    +0.000 A 
ATOM      5  C   UNL     1       7.141   5.712  16.460  0.00  0.00    +0.000 A 
ATOM      6  C   UNL     1       7.474   7.070  16.540  0.00  0.00    +0.000 A 
ENDROOT
BRANCH   5   7
ATOM      7  N   UNL     1       6.068   5.333  15.541  0.00  0.00    +0.000 N 
ATOM      8  C   UNL     1       4.883   6.196  15.764  0.00  0.00    +0.000 C 
ATOM      9  C   UNL     1       4.121   5.426  16.799  0.00  0.00    +0.000 A 
ATOM     10  C   UNL     1       4.446   4.076  16.631  0.00  0.00    +0.000 A 
ATOM     11  C   UNL     1       4.050   3.088  17.511  0.00  0.00    +0.000 A 
ATOM     12  C   UNL     1       3.313   3.487  18.625  0.00  0.00    +0.000 A 
ATOM     13  C   UNL     1       2.996   4.846  18.821  0.00  0.00    +0.000 A 
ATOM     14  C   UNL     1       3.390   5.844  17.906  0.00  0.00    +0.000 A 
ATOM     15  C   UNL     1       5.592   4.000  15.690  0.00  0.00    +0.000 C 
ATOM     16  O   UNL     1       6.105   2.969  15.320  0.00  0.00    +0.000 OA
BRANCH  14  17
ATOM     17  C   UNL     1       3.072   7.294  18.192  0.00  0.00    +0.000 C 
ATOM     18  C   UNL     1       2.413   7.432  19.553  0.00  0.00    +0.000 C 
ATOM     19  F   UNL     1       4.189   8.080  18.188  0.00  0.00    +0.000 F 
ATOM     20  F   UNL     1       2.240   7.858  17.272  0.00  0.00    +0.000 F 
ENDBRANCH  14  17
ENDBRANCH   5   7
BRANCH   1  21
ATOM     21  C   UNL     1       7.991   9.122  17.922  0.00  0.00    +0.000 C 
BRANCH  21  22
ATOM     22  C   UNL     1       9.037   9.436  18.988  0.00  0.00    +0.000 C 
BRANCH  22  28
ATOM     23  C   UNL     1       9.091  11.572  21.259  0.00  0.00    +0.000 C 
ATOM     24  N   UNL     1       9.518  11.758  19.895  0.00  0.00    +0.000 N 
ATOM     25  C   UNL     1       9.974  12.919  19.351  0.00  0.00    +0.000 A 
ATOM     26  N   UNL     1      10.299  12.716  18.099  0.00  0.00    +0.000 NA
ATOM     27  N   UNL     1      10.029  11.400  17.807  0.00  0.00    +0.000 NA
ATOM     28  C   UNL     1       9.541  10.833  18.890  0.00  0.00    +0.000 A 
ENDBRANCH  22  28
ENDBRANCH  21  22
ENDBRANCH   1  21
TORSDOF 5
ENDMDL
MODEL 2
REMARK VINA RESULT:      -7.7      8.353     11.891
REMARK  Name = 
REMARK  7 active torsions:
REMARK  status: ('A' for Active; 'I' for Inactive)
REMARK    1  A    between atoms: C_1  and  N_2
REMARK    2  A    between atoms: C_6  and  C_7
REMARK    3  A    between atoms: C_7  and  C_8
REMARK    4  A    between atoms: C_8  and  C_9
REMARK    5  A    between atoms: C_13  and  N_14
REMARK    6  A    between atoms: C_21  and  C_22
REMARK    7  A    between atoms: C_22  and  C_23
REMARK                            x       y       z     vdW  Elec       q    Type
REMARK                         _______ _______ _______ _____ _____    ______ ____
ROOT
ATOM      1  C   UNL     1      -4.504  11.561  17.528  0.00  0.00    +0.000 A 
ATOM      2  C   UNL     1      -4.015  10.941  16.369  0.00  0.00    +0.000 A 
ATOM      3  C   UNL     1      -2.773  10.318  16.368  0.00  0.00    +0.000 A 
ATOM      4  C   UNL     1      -1.951  10.423  17.483  0.00  0.00    +0.000 A 
ATOM      5  C   UNL     1      -2.320  11.279  18.533  0.00  0.00    +0.000 A 
ATOM      6  C   UNL     1      -3.651  11.705  18.627  0.00  0.00    +0.000 A 
ENDROOT
BRANCH   5   7
ATOM      7  N   UNL     1      -1.299  12.104  19.179  0.00  0.00    +0.000 N 
ATOM      8  C   UNL     1       0.050  11.671  18.743  0.00  0.00    +0.000 C 
ATOM      9  C   UNL     1       0.396  10.634  19.767  0.00  0.00    +0.000 A 
ATOM     10  C   UNL     1      -0.298  10.962  20.937  0.00  0.00    +0.000 A 
ATOM     11  C   UNL     1      -0.343  10.138  22.045  0.00  0.00    +0.000 A 
ATOM     12  C   UNL     1       0.324   8.917  21.956  0.00  0.00    +0.000 A 
ATOM     13  C   UNL     1       1.008   8.562  20.778  0.00  0.00    +0.000 A 
ATOM     14  C   UNL     1       1.064   9.418  19.659  0.00  0.00    +0.000 A 
ATOM     15  C   UNL     1      -1.276  12.027  20.600  0.00  0.00    +0.000 C 
ATOM     16  O   UNL     1      -2.023  12.546  21.397  0.00  0.00    +0.000 OA
BRANCH  14  17
ATOM     17  C   UNL     1       1.765   8.966  18.399  0.00  0.00    +0.000 C 
ATOM     18  C   UNL     1       2.423   7.614  18.617  0.00  0.00    +0.000 C 
ATOM     19  F   UNL     1       0.908   8.846  17.343  0.00  0.00    +0.000 F 
ATOM     20  F   UNL     1       2.729   9.830  17.975  0.00  0.00    +0.000 F 
ENDBRANCH  14  17
ENDBRANCH   5   7
BRANCH   1  21
ATOM     21  C   UNL     1      -5.887  12.166  17.543  0.00  0.00    +0.000 C 
BRANCH  21  22
ATOM     22  C   UNL     1      -6.405  12.308  18.972  0.00  0.00    +0.000 C 
BRANCH  22  28
ATOM     23  C   UNL     1      -7.887  11.884  21.682  0.00  0.00    +0.000 C 
ATOM     24  N   UNL     1      -7.541  10.864  20.722  0.00  0.00    +0.000 N 
ATOM     25  C   UNL     1      -7.761   9.528  20.862  0.00  0.00    +0.000 A 
ATOM     26  N   UNL     1      -7.347   8.904  19.787  0.00  0.00    +0.000 NA
ATOM     27  N   UNL     1      -6.823   9.847  18.934  0.00  0.00    +0.000 NA
ATOM     28  C   UNL     1      -6.927  11.024  19.513  0.00  0.00    +0.000 A 
ENDBRANCH  22  28
ENDBRANCH  21  22
ENDBRANCH   1  21
TORSDOF 5
ENDMDL
MODEL 3
REMARK VINA RESULT:      -7.7      4.550      6.093
REMARK  Name = 
REMARK  7 active torsions:
REMARK  status: ('A' for Active; 'I' for Inactive)
REMARK    1  A    between atoms: C_1  and  N_2
REMARK    2  A    between atoms: C_6  and  C_7
REMARK    3  A    between atoms: C_7  and  C_8
REMARK    4  A    between atoms: C_8  and  C_9
REMARK    5  A    between atoms: C_13  and  N_14
REMARK    6  A    between atoms: C_21  and  C_22
REMARK    7  A    between atoms: C_22  and  C_23
REMARK                            x       y       z     vdW  Elec       q    Type
REMARK                         _______ _______ _______ _____ _____    ______ ____
ROOT
ATOM      1  C   UNL     1       1.318   8.901  19.619  0.00  0.00    +0.000 A 
ATOM      2  C   UNL     1       1.853   9.234  18.365  0.00  0.00    +0.000 A 
ATOM      3  C   UNL     1       2.452   8.264  17.570  0.00  0.00    +0.000 A 
ATOM      4  C   UNL     1       2.640   6.983  18.073  0.00  0.00    +0.000 A 
ATOM      5  C   UNL     1       2.362   6.726  19.425  0.00  0.00    +0.000 A 
ATOM      6  C   UNL     1       1.556   7.623  20.136  0.00  0.00    +0.000 A 
ENDROOT
BRANCH   5   7
ATOM      7  N   UNL     1       3.270   5.877  20.196  0.00  0.00    +0.000 N 
ATOM      8  C   UNL     1       4.507   5.625  19.419  0.00  0.00    +0.000 C 
ATOM      9  C   UNL     1       4.158   4.379  18.664  0.00  0.00    +0.000 A 
ATOM     10  C   UNL     1       3.213   3.686  19.426  0.00  0.00    +0.000 A 
ATOM     11  C   UNL     1       2.546   2.566  18.967  0.00  0.00    +0.000 A 
ATOM     12  C   UNL     1       2.830   2.145  17.670  0.00  0.00    +0.000 A 
ATOM     13  C   UNL     1       3.763   2.845  16.881  0.00  0.00    +0.000 A 
ATOM     14  C   UNL     1       4.452   3.975  17.365  0.00  0.00    +0.000 A 
ATOM     15  C   UNL     1       2.760   4.587  20.516  0.00  0.00    +0.000 C 
ATOM     16  O   UNL     1       1.954   4.283  21.364  0.00  0.00    +0.000 OA
BRANCH  14  17
ATOM     17  C   UNL     1       5.402   4.723  16.458  0.00  0.00    +0.000 C 
ATOM     18  C   UNL     1       5.709   3.900  15.219  0.00  0.00    +0.000 C 
ATOM     19  F   UNL     1       4.890   5.921  16.046  0.00  0.00    +0.000 F 
ATOM     20  F   UNL     1       6.589   5.032  17.052  0.00  0.00    +0.000 F 
ENDBRANCH  14  17
ENDBRANCH   5   7
BRANCH   1  21
ATOM     21  C   UNL     1       0.599   9.944  20.441  0.00  0.00    +0.000 C 
BRANCH  21  22
ATOM     22  C   UNL     1       0.424  11.236  19.650  0.00  0.00    +0.000 C 
BRANCH  22  28
ATOM     23  C   UNL     1       2.562  12.884  18.089  0.00  0.00    +0.000 C 
ATOM     24  N   UNL     1       2.219  13.023  19.483  0.00  0.00    +0.000 N 
ATOM     25  C   UNL     1       2.809  13.869  20.370  0.00  0.00    +0.000 A 
ATOM     26  N   UNL     1       2.227  13.751  21.538  0.00  0.00    +0.000 NA
ATOM     27  N   UNL     1       1.250  12.791  21.421  0.00  0.00    +0.000 NA
ATOM     28  C   UNL     1       1.263  12.343  20.183  0.00  0.00    +0.000 A 
ENDBRANCH  22  28
ENDBRANCH  21  22
ENDBRANCH   1  21
TORSDOF 5
ENDMDL
MODEL 4
REMARK VINA RESULT:      -7.7      0.616      1.166
REMARK  Name = 
REMARK  7 active torsions:
REMARK  status: ('A' for Active; 'I' for Inactive)
REMARK    1  A    between atoms: C_1  and  N_2
REMARK    2  A    between atoms: C_6  and  C_7
REMARK    3  A    between atoms: C_7  and  C_8
REMARK    4  A    between atoms: C_8  and  C_9
REMARK    5  A    between atoms: C_13  and  N_14
REMARK    6  A    between atoms: C_21  and  C_22
REMARK    7  A    between atoms: C_22  and  C_23
REMARK                            x       y       z     vdW  Elec       q    Type
REMARK                         _______ _______ _______ _____ _____    ______ ____
ROOT
ATOM      1  C   UNL     1       7.763   7.703  17.881  0.00  0.00    +0.000 A 
ATOM      2  C   UNL     1       7.809   6.838  18.984  0.00  0.00    +0.000 A 
ATOM      3  C   UNL     1       7.741   5.461  18.809  0.00  0.00    +0.000 A 
ATOM      4  C   UNL     1       7.495   4.940  17.545  0.00  0.00    +0.000 A 
ATOM      5  C   UNL     1       7.167   5.812  16.493  0.00  0.00    +0.000 A 
ATOM      6  C   UNL     1       7.465   7.174  16.621  0.00  0.00    +0.000 A 
ENDROOT
BRANCH   5   7
ATOM      7  N   UNL     1       6.113   5.436  15.552  0.00  0.00    +0.000 N 
ATOM      8  C   UNL     1       4.915   6.282  15.771  0.00  0.00    +0.000 C 
ATOM      9  C   UNL     1       4.147   5.488  16.782  0.00  0.00    +0.000 A 
ATOM     10  C   UNL     1       4.488   4.144  16.598  0.00  0.00    +0.000 A 
ATOM     11  C   UNL     1       4.090   3.139  17.457  0.00  0.00    +0.000 A 
ATOM     12  C   UNL     1       3.332   3.512  18.565  0.00  0.00    +0.000 A 
ATOM     13  C   UNL     1       2.998   4.864  18.777  0.00  0.00    +0.000 A 
ATOM     14  C   UNL     1       3.394   5.881  17.884  0.00  0.00    +0.000 A 
ATOM     15  C   UNL     1       5.650   4.095  15.674  0.00  0.00    +0.000 C 
ATOM     16  O   UNL     1       6.180   3.076  15.295  0.00  0.00    +0.000 OA
BRANCH  14  17
ATOM     17  C   UNL     1       3.056   7.322  18.187  0.00  0.00    +0.000 C 
ATOM     18  C   UNL     1       2.391   7.435  19.548  0.00  0.00    +0.000 C 
ATOM     19  F   UNL     1       4.163   8.123  18.197  0.00  0.00    +0.000 F 
ATOM     20  F   UNL     1       2.219   7.887  17.272  0.00  0.00    +0.000 F 
ENDBRANCH  14  17
ENDBRANCH   5   7
BRANCH   1  21
ATOM     21  C   UNL     1       7.916   9.193  18.074  0.00  0.00    +0.000 C 
BRANCH  21  22
ATOM     22  C   UNL     1       9.272   9.526  18.689  0.00  0.00    +0.000 C 
BRANCH  22  28
ATOM     23  C   UNL     1       9.306  12.480  17.691  0.00  0.00    +0.000 C 
ATOM     24  N   UNL     1       9.278  12.037  19.064  0.00  0.00    +0.000 N 
ATOM     25  C   UNL     1       9.312  12.838  20.163  0.00  0.00    +0.000 A 
ATOM     26  N   UNL     1       9.242  12.099  21.242  0.00  0.00    +0.000 NA
ATOM     27  N   UNL     1       9.184  10.784  20.845  0.00  0.00    +0.000 NA
ATOM     28  C   UNL     1       9.225  10.753  19.529  0.00  0.00    +0.000 A 
ENDBRANCH  22  28
ENDBRANCH  21  22
ENDBRANCH   1  21
TORSDOF 5
ENDMDL
MODEL 5
REMARK VINA RESULT:      -7.7      4.882      6.571
REMARK  Name = 
REMARK  7 active torsions:
REMARK  status: ('A' for Active; 'I' for Inactive)
REMARK    1  A    between atoms: C_1  and  N_2
REMARK    2  A    between atoms: C_6  and  C_7
REMARK    3  A    between atoms: C_7  and  C_8
REMARK    4  A    between atoms: C_8  and  C_9
REMARK    5  A    between atoms: C_13  and  N_14
REMARK    6  A    between atoms: C_21  and  C_22
REMARK    7  A    between atoms: C_22  and  C_23
REMARK                            x       y       z     vdW  Elec       q    Type
REMARK                         _______ _______ _______ _____ _____    ______ ____
ROOT
ATOM      1  C   UNL     1       1.200   8.734  19.984  0.00  0.00    +0.000 A 
ATOM      2  C   UNL     1       1.694   9.251  18.778  0.00  0.00    +0.000 A 
ATOM      3  C   UNL     1       2.344   8.427  17.867  0.00  0.00    +0.000 A 
ATOM      4  C   UNL     1       2.623   7.110  18.209  0.00  0.00    +0.000 A 
ATOM      5  C   UNL     1       2.383   6.673  19.522  0.00  0.00    +0.000 A 
ATOM      6  C   UNL     1       1.529   7.422  20.342  0.00  0.00    +0.000 A 
ENDROOT
BRANCH   5   7
ATOM      7  N   UNL     1       3.356   5.801  20.178  0.00  0.00    +0.000 N 
ATOM      8  C   UNL     1       4.487   5.526  19.259  0.00  0.00    +0.000 C 
ATOM      9  C   UNL     1       4.024   4.292  18.547  0.00  0.00    +0.000 A 
ATOM     10  C   UNL     1       3.160   3.615  19.415  0.00  0.00    +0.000 A 
ATOM     11  C   UNL     1       2.419   2.513  19.035  0.00  0.00    +0.000 A 
ATOM     12  C   UNL     1       2.538   2.092  17.712  0.00  0.00    +0.000 A 
ATOM     13  C   UNL     1       3.387   2.776  16.819  0.00  0.00    +0.000 A 
ATOM     14  C   UNL     1       4.154   3.888  17.222  0.00  0.00    +0.000 A 
ATOM     15  C   UNL     1       2.859   4.521  20.552  0.00  0.00    +0.000 C 
ATOM     16  O   UNL     1       2.152   4.230  21.489  0.00  0.00    +0.000 OA
BRANCH  14  17
ATOM     17  C   UNL     1       5.007   4.620  16.212  0.00  0.00    +0.000 C 
ATOM     18  C   UNL     1       6.476   4.501  16.576  0.00  0.00    +0.000 C 
ATOM     19  F   UNL     1       4.850   4.127  14.947  0.00  0.00    +0.000 F 
ATOM     20  F   UNL     1       4.713   5.947  16.112  0.00  0.00    +0.000 F 
ENDBRANCH  14  17
ENDBRANCH   5   7
BRANCH   1  21
ATOM     21  C   UNL     1       0.427   9.619  20.933  0.00  0.00    +0.000 C 
BRANCH  21  22
ATOM     22  C   UNL     1      -0.292  10.732  20.175  0.00  0.00    +0.000 C 
BRANCH  22  28
ATOM     23  C   UNL     1      -0.359  13.271  18.368  0.00  0.00    +0.000 C 
ATOM     24  N   UNL     1       0.234  13.165  19.678  0.00  0.00    +0.000 N 
ATOM     25  C   UNL     1       0.912  14.148  20.331  0.00  0.00    +0.000 A 
ATOM     26  N   UNL     1       1.285  13.711  21.508  0.00  0.00    +0.000 NA
ATOM     27  N   UNL     1       0.863  12.407  21.622  0.00  0.00    +0.000 NA
ATOM     28  C   UNL     1       0.246  12.079  20.507  0.00  0.00    +0.000 A 
ENDBRANCH  22  28
ENDBRANCH  21  22
ENDBRANCH   1  21
TORSDOF 5
ENDMDL
MODEL 6
REMARK VINA RESULT:      -7.7      4.166      6.482
REMARK  Name = 
REMARK  7 active torsions:
REMARK  status: ('A' for Active; 'I' for Inactive)
REMARK    1  A    between atoms: C_1  and  N_2
REMARK    2  A    between atoms: C_6  and  C_7
REMARK    3  A    between atoms: C_7  and  C_8
REMARK    4  A    between atoms: C_8  and  C_9
REMARK    5  A    between atoms: C_13  and  N_14
REMARK    6  A    between atoms: C_21  and  C_22
REMARK    7  A    between atoms: C_22  and  C_23
REMARK                            x       y       z     vdW  Elec       q    Type
REMARK                         _______ _______ _______ _____ _____    ______ ____
ROOT
ATOM      1  C   UNL     1       1.982   7.424  20.121  0.00  0.00    +0.000 A 
ATOM      2  C   UNL     1       2.332   8.190  18.999  0.00  0.00    +0.000 A 
ATOM      3  C   UNL     1       2.709   7.575  17.811  0.00  0.00    +0.000 A 
ATOM      4  C   UNL     1       2.868   6.196  17.770  0.00  0.00    +0.000 A 
ATOM      5  C   UNL     1       2.793   5.459  18.963  0.00  0.00    +0.000 A 
ATOM      6  C   UNL     1       2.193   6.041  20.086  0.00  0.00    +0.000 A 
ENDROOT
BRANCH   5   7
ATOM      7  N   UNL     1       3.740   4.368  19.193  0.00  0.00    +0.000 N 
ATOM      8  C   UNL     1       5.123   4.901  19.235  0.00  0.00    +0.000 C 
ATOM      9  C   UNL     1       5.540   4.815  17.799  0.00  0.00    +0.000 A 
ATOM     10  C   UNL     1       4.812   3.769  17.221  0.00  0.00    +0.000 A 
ATOM     11  C   UNL     1       4.822   3.502  15.865  0.00  0.00    +0.000 A 
ATOM     12  C   UNL     1       5.583   4.344  15.057  0.00  0.00    +0.000 A 
ATOM     13  C   UNL     1       6.304   5.414  15.620  0.00  0.00    +0.000 A 
ATOM     14  C   UNL     1       6.302   5.668  17.007  0.00  0.00    +0.000 A 
ATOM     15  C   UNL     1       3.757   3.365  18.184  0.00  0.00    +0.000 C 
ATOM     16  O   UNL     1       2.964   2.471  17.994  0.00  0.00    +0.000 OA
BRANCH  14  17
ATOM     17  C   UNL     1       7.048   6.863  17.555  0.00  0.00    +0.000 C 
ATOM     18  C   UNL     1       7.878   6.460  18.762  0.00  0.00    +0.000 C 
ATOM     19  F   UNL     1       7.893   7.412  16.633  0.00  0.00    +0.000 F 
ATOM     20  F   UNL     1       6.231   7.884  17.938  0.00  0.00    +0.000 F 
ENDBRANCH  14  17
ENDBRANCH   5   7
BRANCH   1  21
ATOM     21  C   UNL     1       1.498   8.098  21.382  0.00  0.00    +0.000 C 
BRANCH  21  22
ATOM     22  C   UNL     1       0.056   8.572  21.228  0.00  0.00    +0.000 C 
BRANCH  22  28
ATOM     23  C   UNL     1      -0.693  10.460  18.863  0.00  0.00    +0.000 C 
ATOM     24  N   UNL     1      -0.353  10.859  20.207  0.00  0.00    +0.000 N 
ATOM     25  C   UNL     1      -0.254  12.139  20.659  0.00  0.00    +0.000 A 
ATOM     26  N   UNL     1       0.044  12.127  21.935  0.00  0.00    +0.000 NA
ATOM     27  N   UNL     1       0.165  10.814  22.323  0.00  0.00    +0.000 NA
ATOM     28  C   UNL     1      -0.058  10.055  21.271  0.00  0.00    +0.000 A 
ENDBRANCH  22  28
ENDBRANCH  21  22
ENDBRANCH   1  21
TORSDOF 5
ENDMDL
MODEL 7
REMARK VINA RESULT:      -7.6      4.696      7.286
REMARK  Name = 
REMARK  7 active torsions:
REMARK  status: ('A' for Active; 'I' for Inactive)
REMARK    1  A    between atoms: C_1  and  N_2
REMARK    2  A    between atoms: C_6  and  C_7
REMARK    3  A    between atoms: C_7  and  C_8
REMARK    4  A    between atoms: C_8  and  C_9
REMARK    5  A    between atoms: C_13  and  N_14
REMARK    6  A    between atoms: C_21  and  C_22
REMARK    7  A    between atoms: C_22  and  C_23
REMARK                            x       y       z     vdW  Elec       q    Type
REMARK                         _______ _______ _______ _____ _____    ______ ____
ROOT
ATOM      1  C   UNL     1       1.941   3.844  18.510  0.00  0.00    +0.000 A 
ATOM      2  C   UNL     1       1.600   3.418  19.802  0.00  0.00    +0.000 A 
ATOM      3  C   UNL     1       1.162   4.329  20.756  0.00  0.00    +0.000 A 
ATOM      4  C   UNL     1       1.184   5.688  20.471  0.00  0.00    +0.000 A 
ATOM      5  C   UNL     1       1.790   6.132  19.284  0.00  0.00    +0.000 A 
ATOM      6  C   UNL     1       2.009   5.216  18.247  0.00  0.00    +0.000 A 
ENDROOT
BRANCH   5   7
ATOM      7  N   UNL     1       2.623   7.334  19.310  0.00  0.00    +0.000 N 
ATOM      8  C   UNL     1       2.329   8.126  20.529  0.00  0.00    +0.000 C 
ATOM      9  C   UNL     1       1.230   9.029  20.063  0.00  0.00    +0.000 A 
ATOM     10  C   UNL     1       1.398   9.207  18.686  0.00  0.00    +0.000 A 
ATOM     11  C   UNL     1       0.474   9.856  17.890  0.00  0.00    +0.000 A 
ATOM     12  C   UNL     1      -0.682  10.325  18.510  0.00  0.00    +0.000 A 
ATOM     13  C   UNL     1      -0.878  10.134  19.892  0.00  0.00    +0.000 A 
ATOM     14  C   UNL     1       0.080   9.487  20.699  0.00  0.00    +0.000 A 
ATOM     15  C   UNL     1       2.417   8.231  18.224  0.00  0.00    +0.000 C 
ATOM     16  O   UNL     1       2.805   8.136  17.083  0.00  0.00    +0.000 OA
BRANCH  14  17
ATOM     17  C   UNL     1      -0.203   9.260  22.166  0.00  0.00    +0.000 C 
ATOM     18  C   UNL     1      -0.914  10.463  22.760  0.00  0.00    +0.000 C 
ATOM     19  F   UNL     1      -0.991   8.164  22.379  0.00  0.00    +0.000 F 
ATOM     20  F   UNL     1       0.919   9.036  22.907  0.00  0.00    +0.000 F 
ENDBRANCH  14  17
ENDBRANCH   5   7
BRANCH   1  21
ATOM     21  C   UNL     1       2.341   2.838  17.457  0.00  0.00    +0.000 C 
BRANCH  21  22
ATOM     22  C   UNL     1       3.722   2.261  17.752  0.00  0.00    +0.000 C 
BRANCH  22  28
ATOM     23  C   UNL     1       5.128   4.251  15.806  0.00  0.00    +0.000 C 
ATOM     24  N   UNL     1       5.337   4.149  17.230  0.00  0.00    +0.000 N 
ATOM     25  C   UNL     1       6.224   4.876  17.961  0.00  0.00    +0.000 A 
ATOM     26  N   UNL     1       6.124   4.543  19.224  0.00  0.00    +0.000 NA
ATOM     27  N   UNL     1       5.167   3.560  19.321  0.00  0.00    +0.000 NA
ATOM     28  C   UNL     1       4.709   3.315  18.111  0.00  0.00    +0.000 A 
ENDBRANCH  22  28
ENDBRANCH  21  22
ENDBRANCH   1  21
TORSDOF 5
ENDMDL
MODEL 8
REMARK VINA RESULT:      -7.6      4.972      7.395
REMARK  Name = 
REMARK  7 active torsions:
REMARK  status: ('A' for Active; 'I' for Inactive)
REMARK    1  A    between atoms: C_1  and  N_2
REMARK    2  A    between atoms: C_6  and  C_7
REMARK    3  A    between atoms: C_7  and  C_8
REMARK    4  A    between atoms: C_8  and  C_9
REMARK    5  A    between atoms: C_13  and  N_14
REMARK    6  A    between atoms: C_21  and  C_22
REMARK    7  A    between atoms: C_22  and  C_23
REMARK                            x       y       z     vdW  Elec       q    Type
REMARK                         _______ _______ _______ _____ _____    ______ ____
ROOT
ATOM      1  C   UNL     1       1.276   8.945  19.688  0.00  0.00    +0.000 A 
ATOM      2  C   UNL     1       1.843   9.328  18.464  0.00  0.00    +0.000 A 
ATOM      3  C   UNL     1       2.471   8.393  17.650  0.00  0.00    +0.000 A 
ATOM      4  C   UNL     1       2.655   7.095  18.109  0.00  0.00    +0.000 A 
ATOM      5  C   UNL     1       2.341   6.786  19.443  0.00  0.00    +0.000 A 
ATOM      6  C   UNL     1       1.509   7.651  20.164  0.00  0.00    +0.000 A 
ENDROOT
BRANCH   5   7
ATOM      7  N   UNL     1       3.235   5.915  20.206  0.00  0.00    +0.000 N 
ATOM      8  C   UNL     1       4.461   5.636  19.421  0.00  0.00    +0.000 C 
ATOM      9  C   UNL     1       4.078   4.400  18.666  0.00  0.00    +0.000 A 
ATOM     10  C   UNL     1       3.123   3.727  19.433  0.00  0.00    +0.000 A 
ATOM     11  C   UNL     1       2.427   2.624  18.976  0.00  0.00    +0.000 A 
ATOM     12  C   UNL     1       2.693   2.198  17.676  0.00  0.00    +0.000 A 
ATOM     13  C   UNL     1       3.637   2.878  16.882  0.00  0.00    +0.000 A 
ATOM     14  C   UNL     1       4.355   3.992  17.365  0.00  0.00    +0.000 A 
ATOM     15  C   UNL     1       2.697   4.636  20.527  0.00  0.00    +0.000 C 
ATOM     16  O   UNL     1       1.889   4.349  21.380  0.00  0.00    +0.000 OA
BRANCH  14  17
ATOM     17  C   UNL     1       5.317   4.719  16.454  0.00  0.00    +0.000 C 
ATOM     18  C   UNL     1       5.661   3.857  15.252  0.00  0.00    +0.000 C 
ATOM     19  F   UNL     1       4.800   5.895  15.988  0.00  0.00    +0.000 F 
ATOM     20  F   UNL     1       6.486   5.064  17.062  0.00  0.00    +0.000 F 
ENDBRANCH  14  17
ENDBRANCH   5   7
BRANCH   1  21
ATOM     21  C   UNL     1       0.527   9.952  20.529  0.00  0.00    +0.000 C 
BRANCH  21  22
ATOM     22  C   UNL     1       0.279  11.238  19.747  0.00  0.00    +0.000 C 
BRANCH  22  28
ATOM     23  C   UNL     1      -1.624  10.218  17.497  0.00  0.00    +0.000 C 
ATOM     24  N   UNL     1      -1.971  11.105  18.580  0.00  0.00    +0.000 N 
ATOM     25  C   UNL     1      -3.184  11.691  18.776  0.00  0.00    +0.000 A 
ATOM     26  N   UNL     1      -3.149  12.409  19.871  0.00  0.00    +0.000 NA
ATOM     27  N   UNL     1      -1.881  12.312  20.393  0.00  0.00    +0.000 NA
ATOM     28  C   UNL     1      -1.170  11.538  19.599  0.00  0.00    +0.000 A 
ENDBRANCH  22  28
ENDBRANCH  21  22
ENDBRANCH   1  21
TORSDOF 5
ENDMDL
MODEL 9
REMARK VINA RESULT:      -7.6      1.216      1.514
REMARK  Name = 
REMARK  7 active torsions:
REMARK  status: ('A' for Active; 'I' for Inactive)
REMARK    1  A    between atoms: C_1  and  N_2
REMARK    2  A    between atoms: C_6  and  C_7
REMARK    3  A    between atoms: C_7  and  C_8
REMARK    4  A    between atoms: C_8  and  C_9
REMARK    5  A    between atoms: C_13  and  N_14
REMARK    6  A    between atoms: C_21  and  C_22
REMARK    7  A    between atoms: C_22  and  C_23
REMARK                            x       y       z     vdW  Elec       q    Type
REMARK                         _______ _______ _______ _____ _____    ______ ____
ROOT
ATOM      1  C   UNL     1       8.046   7.221  18.361  0.00  0.00    +0.000 A 
ATOM      2  C   UNL     1       8.071   6.084  19.181  0.00  0.00    +0.000 A 
ATOM      3  C   UNL     1       7.759   4.831  18.666  0.00  0.00    +0.000 A 
ATOM      4  C   UNL     1       7.293   4.721  17.362  0.00  0.00    +0.000 A 
ATOM      5  C   UNL     1       6.999   5.886  16.635  0.00  0.00    +0.000 A 
ATOM      6  C   UNL     1       7.528   7.109  17.066  0.00  0.00    +0.000 A 
ENDROOT
BRANCH   5   7
ATOM      7  N   UNL     1       5.800   5.926  15.799  0.00  0.00    +0.000 N 
ATOM      8  C   UNL     1       4.647   6.414  16.593  0.00  0.00    +0.000 C 
ATOM      9  C   UNL     1       4.084   5.143  17.149  0.00  0.00    +0.000 A 
ATOM     10  C   UNL     1       4.410   4.120  16.252  0.00  0.00    +0.000 A 
ATOM     11  C   UNL     1       4.188   2.783  16.518  0.00  0.00    +0.000 A 
ATOM     12  C   UNL     1       3.634   2.465  17.757  0.00  0.00    +0.000 A 
ATOM     13  C   UNL     1       3.320   3.480  18.680  0.00  0.00    +0.000 A 
ATOM     14  C   UNL     1       3.534   4.844  18.392  0.00  0.00    +0.000 A 
ATOM     15  C   UNL     1       5.388   4.667  15.278  0.00  0.00    +0.000 C 
ATOM     16  O   UNL     1       5.859   4.040  14.357  0.00  0.00    +0.000 OA
BRANCH  14  17
ATOM     17  C   UNL     1       3.231   5.891  19.439  0.00  0.00    +0.000 C 
ATOM     18  C   UNL     1       2.339   5.312  20.523  0.00  0.00    +0.000 C 
ATOM     19  F   UNL     1       4.363   6.364  20.040  0.00  0.00    +0.000 F 
ATOM     20  F   UNL     1       2.609   6.995  18.939  0.00  0.00    +0.000 F 
ENDBRANCH  14  17
ENDBRANCH   5   7
BRANCH   1  21
ATOM     21  C   UNL     1       8.463   8.565  18.909  0.00  0.00    +0.000 C 
BRANCH  21  22
ATOM     22  C   UNL     1       8.399   9.639  17.827  0.00  0.00    +0.000 C 
BRANCH  22  28
ATOM     23  C   UNL     1       7.627  12.582  17.147  0.00  0.00    +0.000 C 
ATOM     24  N   UNL     1       8.801  12.145  17.863  0.00  0.00    +0.000 N 
ATOM     25  C   UNL     1       9.801  12.945  18.322  0.00  0.00    +0.000 A 
ATOM     26  N   UNL     1      10.690  12.215  18.948  0.00  0.00    +0.000 NA
ATOM     27  N   UNL     1      10.276  10.905  18.879  0.00  0.00    +0.000 NA
ATOM     28  C   UNL     1       9.145  10.869  18.207  0.00  0.00    +0.000 A 
ENDBRANCH  22  28
ENDBRANCH  21  22
ENDBRANCH   1  21
TORSDOF 5
ENDMDL
