MODEL 1
REMARK VINA RESULT:      -8.6      0.000      0.000
REMARK  Name = 
REMARK  7 active torsions:
REMARK  status: ('A' for Active; 'I' for Inactive)
REMARK    1  A    between atoms: C_1  and  C_2
REMARK    2  A    between atoms: N_6  and  C_7
REMARK    3  A    between atoms: C_7  and  C_8
REMARK    4  A    between atoms: C_12  and  C_13
REMARK    5  A    between atoms: N_19  and  C_20
REMARK    6  A    between atoms: C_20  and  C_21
REMARK    7  A    between atoms: N_25  and  C_26
REMARK                            x       y       z     vdW  Elec       q    Type
REMARK                         _______ _______ _______ _____ _____    ______ ____
ROOT
ATOM      1  C   UNL     1       0.011  11.045  19.119  0.00  0.00    +0.000 A 
ATOM      2  C   UNL     1       0.934  10.214  18.473  0.00  0.00    +0.000 A 
ATOM      3  C   UNL     1       1.387   9.102  19.148  0.00  0.00    +0.000 A 
ATOM      4  C   UNL     1       1.031   8.802  20.464  0.00  0.00    +0.000 A 
ATOM      5  C   UNL     1       0.157   9.640  21.154  0.00  0.00    +0.000 A 
ATOM      6  C   UNL     1      -0.366  10.755  20.453  0.00  0.00    +0.000 A 
ATOM      7  C   UNL     1       1.713   7.529  20.877  0.00  0.00    +0.000 C 
ATOM      8  N   UNL     1       2.458   7.172  19.673  0.00  0.00    +0.000 N 
ATOM      9  C   UNL     1       2.254   8.046  18.633  0.00  0.00    +0.000 C 
ATOM     10  O   UNL     1       2.684   7.984  17.496  0.00  0.00    +0.000 OA
ENDROOT
BRANCH   5  11
ATOM     11  C   UNL     1      -0.240   9.403  22.589  0.00  0.00    +0.000 C 
ATOM     12  F   UNL     1      -0.938   8.249  22.781  0.00  0.00    +0.000 F 
ATOM     13  F   UNL     1       0.839   9.324  23.417  0.00  0.00    +0.000 F 
ATOM     14  F   UNL     1      -1.023  10.398  23.089  0.00  0.00    +0.000 F 
ENDBRANCH   5  11
BRANCH   1  15
ATOM     15  C   UNL     1      -0.598  12.198  18.347  0.00  0.00    +0.000 C 
BRANCH  15  21
ATOM     16  C   UNL     1      -3.392  10.836  15.235  0.00  0.00    +0.000 C 
ATOM     17  C   UNL     1      -3.180  10.072  16.546  0.00  0.00    +0.000 C 
ATOM     18  C   UNL     1      -4.355  10.260  17.509  0.00  0.00    +0.000 C 
ATOM     19  C   UNL     1      -4.388  11.681  18.053  0.00  0.00    +0.000 C 
ATOM     20  C   UNL     1      -3.036  12.094  18.637  0.00  0.00    +0.000 C 
ATOM     21  N   UNL     1      -1.900  11.886  17.717  0.00  0.00    +0.000 NA
ATOM     22  C   UNL     1      -1.873  10.490  17.239  0.00  0.00    +0.000 C 
ENDBRANCH  15  21
ENDBRANCH   1  15
BRANCH   8  23
ATOM     23  C   UNL     1       3.209   5.944  19.542  0.00  0.00    +0.000 C 
BRANCH  23  24
ATOM     24  C   UNL     1       2.317   4.831  19.136  0.00  0.00    +0.000 A 
ATOM     25  N   UNL     1       1.869   4.604  17.911  0.00  0.00    +0.000 NA
ATOM     26  N   UNL     1       1.130   3.447  17.936  0.00  0.00    +0.000 NA
ATOM     27  C   UNL     1       1.137   2.996  19.166  0.00  0.00    +0.000 A 
ATOM     28  N   UNL     1       1.838   3.849  19.961  0.00  0.00    +0.000 N 
ATOM     29  C   UNL     1       2.021   3.719  21.382  0.00  0.00    +0.000 C 
ENDBRANCH  23  24
ENDBRANCH   8  23
TORSDOF 5
ENDMDL
MODEL 2
REMARK VINA RESULT:      -8.2      0.560      1.246
REMARK  Name = 
REMARK  7 active torsions:
REMARK  status: ('A' for Active; 'I' for Inactive)
REMARK    1  A    between atoms: C_1  and  C_2
REMARK    2  A    between atoms: N_6  and  C_7
REMARK    3  A    between atoms: C_7  and  C_8
REMARK    4  A    between atoms: C_12  and  C_13
REMARK    5  A    between atoms: N_19  and  C_20
REMARK    6  A    between atoms: C_20  and  C_21
REMARK    7  A    between atoms: N_25  and  C_26
REMARK                            x       y       z     vdW  Elec       q    Type
REMARK                         _______ _______ _______ _____ _____    ______ ____
ROOT
ATOM      1  C   UNL     1       0.076  10.977  19.105  0.00  0.00    +0.000 A 
ATOM      2  C   UNL     1       0.984  10.108  18.489  0.00  0.00    +0.000 A 
ATOM      3  C   UNL     1       1.423   9.017  19.207  0.00  0.00    +0.000 A 
ATOM      4  C   UNL     1       1.069   8.775  20.535  0.00  0.00    +0.000 A 
ATOM      5  C   UNL     1       0.211   9.653  21.194  0.00  0.00    +0.000 A 
ATOM      6  C   UNL     1      -0.299  10.746  20.450  0.00  0.00    +0.000 A 
ATOM      7  C   UNL     1       1.734   7.509  20.996  0.00  0.00    +0.000 C 
ATOM      8  N   UNL     1       2.468   7.093  19.804  0.00  0.00    +0.000 N 
ATOM      9  C   UNL     1       2.273   7.928  18.731  0.00  0.00    +0.000 C 
ATOM     10  O   UNL     1       2.697   7.814  17.596  0.00  0.00    +0.000 OA
ENDROOT
BRANCH   5  11
ATOM     11  C   UNL     1      -0.185   9.479  22.639  0.00  0.00    +0.000 C 
ATOM     12  F   UNL     1       0.874   9.335  23.483  0.00  0.00    +0.000 F 
ATOM     13  F   UNL     1      -0.893  10.542  23.111  0.00  0.00    +0.000 F 
ATOM     14  F   UNL     1      -0.971   8.386  22.840  0.00  0.00    +0.000 F 
ENDBRANCH   5  11
BRANCH   1  15
ATOM     15  C   UNL     1      -0.518  12.108  18.289  0.00  0.00    +0.000 C 
BRANCH  15  21
ATOM     16  C   UNL     1      -3.352  10.688  15.240  0.00  0.00    +0.000 C 
ATOM     17  C   UNL     1      -3.136   9.959  16.569  0.00  0.00    +0.000 C 
ATOM     18  C   UNL     1      -4.301  10.185  17.537  0.00  0.00    +0.000 C 
ATOM     19  C   UNL     1      -4.316  11.620  18.042  0.00  0.00    +0.000 C 
ATOM     20  C   UNL     1      -2.954  12.036  18.603  0.00  0.00    +0.000 C 
ATOM     21  N   UNL     1      -1.829  11.792  17.679  0.00  0.00    +0.000 NA
ATOM     22  C   UNL     1      -1.819  10.383  17.239  0.00  0.00    +0.000 C 
ENDBRANCH  15  21
ENDBRANCH   1  15
BRANCH   8  23
ATOM     23  C   UNL     1       3.200   5.850  19.720  0.00  0.00    +0.000 C 
BRANCH  23  24
ATOM     24  C   UNL     1       2.269   4.710  19.536  0.00  0.00    +0.000 A 
ATOM     25  N   UNL     1       1.326   4.336  20.386  0.00  0.00    +0.000 NA
ATOM     26  N   UNL     1       0.640   3.287  19.825  0.00  0.00    +0.000 NA
ATOM     27  C   UNL     1       1.175   3.041  18.656  0.00  0.00    +0.000 A 
ATOM     28  N   UNL     1       2.223   3.883  18.447  0.00  0.00    +0.000 N 
ATOM     29  C   UNL     1       3.091   3.881  17.299  0.00  0.00    +0.000 C 
ENDBRANCH  23  24
ENDBRANCH   8  23
TORSDOF 5
ENDMDL
MODEL 3
REMARK VINA RESULT:      -8.2      1.738      3.085
REMARK  Name = 
REMARK  7 active torsions:
REMARK  status: ('A' for Active; 'I' for Inactive)
REMARK    1  A    between atoms: C_1  and  C_2
REMARK    2  A    between atoms: N_6  and  C_7
REMARK    3  A    between atoms: C_7  and  C_8
REMARK    4  A    between atoms: C_12  and  C_13
REMARK    5  A    between atoms: N_19  and  C_20
REMARK    6  A    between atoms: C_20  and  C_21
REMARK    7  A    between atoms: N_25  and  C_26
REMARK                            x       y       z     vdW  Elec       q    Type
REMARK                         _______ _______ _______ _____ _____    ______ ____
ROOT
ATOM      1  C   UNL     1      -0.234  11.232  19.020  0.00  0.00    +0.000 A 
ATOM      2  C   UNL     1       0.698  10.441  18.338  0.00  0.00    +0.000 A 
ATOM      3  C   UNL     1       1.215   9.344  18.991  0.00  0.00    +0.000 A 
ATOM      4  C   UNL     1       0.915   9.023  20.316  0.00  0.00    +0.000 A 
ATOM      5  C   UNL     1       0.033   9.824  21.040  0.00  0.00    +0.000 A 
ATOM      6  C   UNL     1      -0.555  10.921  20.363  0.00  0.00    +0.000 A 
ATOM      7  C   UNL     1       1.657   7.775  20.698  0.00  0.00    +0.000 C 
ATOM      8  N   UNL     1       2.375   7.453  19.468  0.00  0.00    +0.000 N 
ATOM      9  C   UNL     1       2.104   8.324  18.440  0.00  0.00    +0.000 C 
ATOM     10  O   UNL     1       2.498   8.284  17.290  0.00  0.00    +0.000 OA
ENDROOT
BRANCH   5  11
ATOM     11  C   UNL     1      -0.308   9.564  22.485  0.00  0.00    +0.000 C 
ATOM     12  F   UNL     1      -0.973   8.394  22.690  0.00  0.00    +0.000 F 
ATOM     13  F   UNL     1       0.801   9.501  23.273  0.00  0.00    +0.000 F 
ATOM     14  F   UNL     1      -1.094  10.537  23.023  0.00  0.00    +0.000 F 
ENDBRANCH   5  11
BRANCH   1  15
ATOM     15  C   UNL     1      -0.911  12.366  18.275  0.00  0.00    +0.000 C 
BRANCH  15  21
ATOM     16  C   UNL     1      -0.496  16.730  18.631  0.00  0.00    +0.000 C 
ATOM     17  C   UNL     1      -0.142  15.772  19.772  0.00  0.00    +0.000 C 
ATOM     18  C   UNL     1       1.372  15.620  19.938  0.00  0.00    +0.000 C 
ATOM     19  C   UNL     1       1.972  14.849  18.772  0.00  0.00    +0.000 C 
ATOM     20  C   UNL     1       1.239  13.527  18.534  0.00  0.00    +0.000 C 
ATOM     21  N   UNL     1      -0.224  13.670  18.401  0.00  0.00    +0.000 NA
ATOM     22  C   UNL     1      -0.779  14.388  19.566  0.00  0.00    +0.000 C 
ENDBRANCH  15  21
ENDBRANCH   1  15
BRANCH   8  23
ATOM     23  C   UNL     1       3.167   6.254  19.304  0.00  0.00    +0.000 C 
BRANCH  23  24
ATOM     24  C   UNL     1       2.301   5.104  18.951  0.00  0.00    +0.000 A 
ATOM     25  N   UNL     1       1.853   4.815  17.739  0.00  0.00    +0.000 NA
ATOM     26  N   UNL     1       1.143   3.642  17.817  0.00  0.00    +0.000 NA
ATOM     27  C   UNL     1       1.168   3.243  19.064  0.00  0.00    +0.000 A 
ATOM     28  N   UNL     1       1.850   4.146  19.819  0.00  0.00    +0.000 N 
ATOM     29  C   UNL     1       2.043   4.081  21.243  0.00  0.00    +0.000 C 
ENDBRANCH  23  24
ENDBRANCH   8  23
TORSDOF 5
ENDMDL
MODEL 4
REMARK VINA RESULT:      -8.1      3.671      7.766
REMARK  Name = 
REMARK  7 active torsions:
REMARK  status: ('A' for Active; 'I' for Inactive)
REMARK    1  A    between atoms: C_1  and  C_2
REMARK    2  A    between atoms: N_6  and  C_7
REMARK    3  A    between atoms: C_7  and  C_8
REMARK    4  A    between atoms: C_12  and  C_13
REMARK    5  A    between atoms: N_19  and  C_20
REMARK    6  A    between atoms: C_20  and  C_21
REMARK    7  A    between atoms: N_25  and  C_26
REMARK                            x       y       z     vdW  Elec       q    Type
REMARK                         _______ _______ _______ _____ _____    ______ ____
ROOT
ATOM      1  C   UNL     1       1.063   9.792  18.388  0.00  0.00    +0.000 A 
ATOM      2  C   UNL     1       1.178  10.779  19.374  0.00  0.00    +0.000 A 
ATOM      3  C   UNL     1       0.054  11.510  19.690  0.00  0.00    +0.000 A 
ATOM      4  C   UNL     1      -1.169  11.368  19.031  0.00  0.00    +0.000 A 
ATOM      5  C   UNL     1      -1.299  10.431  18.007  0.00  0.00    +0.000 A 
ATOM      6  C   UNL     1      -0.169   9.628  17.712  0.00  0.00    +0.000 A 
ATOM      7  C   UNL     1      -2.161  12.323  19.630  0.00  0.00    +0.000 C 
ATOM      8  N   UNL     1      -1.370  12.984  20.664  0.00  0.00    +0.000 N 
ATOM      9  C   UNL     1      -0.087  12.501  20.753  0.00  0.00    +0.000 C 
ATOM     10  O   UNL     1       0.784  12.806  21.548  0.00  0.00    +0.000 OA
ENDROOT
BRANCH   5  11
ATOM     11  C   UNL     1      -2.575  10.249  17.225  0.00  0.00    +0.000 C 
ATOM     12  F   UNL     1      -3.133  11.418  16.806  0.00  0.00    +0.000 F 
ATOM     13  F   UNL     1      -2.387   9.504  16.100  0.00  0.00    +0.000 F 
ATOM     14  F   UNL     1      -3.542   9.610  17.939  0.00  0.00    +0.000 F 
ENDBRANCH   5  11
BRANCH   1  15
ATOM     15  C   UNL     1       2.252   8.890  18.118  0.00  0.00    +0.000 C 
BRANCH  15  21
ATOM     16  C   UNL     1       1.837   4.526  17.761  0.00  0.00    +0.000 C 
ATOM     17  C   UNL     1       3.055   5.189  18.414  0.00  0.00    +0.000 C 
ATOM     18  C   UNL     1       3.022   5.061  19.939  0.00  0.00    +0.000 C 
ATOM     19  C   UNL     1       1.921   5.926  20.532  0.00  0.00    +0.000 C 
ATOM     20  C   UNL     1       2.007   7.370  20.033  0.00  0.00    +0.000 C 
ATOM     21  N   UNL     1       2.066   7.491  18.564  0.00  0.00    +0.000 NA
ATOM     22  C   UNL     1       3.168   6.671  18.023  0.00  0.00    +0.000 C 
ENDBRANCH  15  21
ENDBRANCH   1  15
BRANCH   8  23
ATOM     23  C   UNL     1      -1.926  13.938  21.597  0.00  0.00    +0.000 C 
BRANCH  23  24
ATOM     24  C   UNL     1      -2.905  13.278  22.494  0.00  0.00    +0.000 A 
ATOM     25  N   UNL     1      -2.653  12.253  23.294  0.00  0.00    +0.000 NA
ATOM     26  N   UNL     1      -3.796  11.978  24.004  0.00  0.00    +0.000 NA
ATOM     27  C   UNL     1      -4.716  12.829  23.624  0.00  0.00    +0.000 A 
ATOM     28  N   UNL     1      -4.215  13.639  22.653  0.00  0.00    +0.000 N 
ATOM     29  C   UNL     1      -4.942  14.663  21.950  0.00  0.00    +0.000 C 
ENDBRANCH  23  24
ENDBRANCH   8  23
TORSDOF 5
ENDMDL
MODEL 5
REMARK VINA RESULT:      -8.0      1.765      3.321
REMARK  Name = 
REMARK  7 active torsions:
REMARK  status: ('A' for Active; 'I' for Inactive)
REMARK    1  A    between atoms: C_1  and  C_2
REMARK    2  A    between atoms: N_6  and  C_7
REMARK    3  A    between atoms: C_7  and  C_8
REMARK    4  A    between atoms: C_12  and  C_13
REMARK    5  A    between atoms: N_19  and  C_20
REMARK    6  A    between atoms: C_20  and  C_21
REMARK    7  A    between atoms: N_25  and  C_26
REMARK                            x       y       z     vdW  Elec       q    Type
REMARK                         _______ _______ _______ _____ _____    ______ ____
ROOT
ATOM      1  C   UNL     1      -0.221  11.112  19.085  0.00  0.00    +0.000 A 
ATOM      2  C   UNL     1       0.712  10.288  18.447  0.00  0.00    +0.000 A 
ATOM      3  C   UNL     1       1.215   9.216  19.151  0.00  0.00    +0.000 A 
ATOM      4  C   UNL     1       0.899   8.953  20.485  0.00  0.00    +0.000 A 
ATOM      5  C   UNL     1       0.015   9.789  21.165  0.00  0.00    +0.000 A 
ATOM      6  C   UNL     1      -0.559  10.860  20.436  0.00  0.00    +0.000 A 
ATOM      7  C   UNL     1       1.630   7.717  20.926  0.00  0.00    +0.000 C 
ATOM      8  N   UNL     1       2.358   7.340  19.719  0.00  0.00    +0.000 N 
ATOM      9  C   UNL     1       2.103   8.168  18.653  0.00  0.00    +0.000 C 
ATOM     10  O   UNL     1       2.509   8.078  17.509  0.00  0.00    +0.000 OA
ENDROOT
BRANCH   5  11
ATOM     11  C   UNL     1      -0.342   9.592  22.616  0.00  0.00    +0.000 C 
ATOM     12  F   UNL     1       0.738   9.527  23.443  0.00  0.00    +0.000 F 
ATOM     13  F   UNL     1      -1.116  10.603  23.098  0.00  0.00    +0.000 F 
ATOM     14  F   UNL     1      -1.046   8.446  22.833  0.00  0.00    +0.000 F 
ENDBRANCH   5  11
BRANCH   1  15
ATOM     15  C   UNL     1      -0.883  12.218  18.286  0.00  0.00    +0.000 C 
BRANCH  15  21
ATOM     16  C   UNL     1      -0.435  16.588  18.502  0.00  0.00    +0.000 C 
ATOM     17  C   UNL     1      -0.065  15.662  19.665  0.00  0.00    +0.000 C 
ATOM     18  C   UNL     1       1.451  15.505  19.806  0.00  0.00    +0.000 C 
ATOM     19  C   UNL     1       2.023  14.695  18.653  0.00  0.00    +0.000 C 
ATOM     20  C   UNL     1       1.278  13.371  18.469  0.00  0.00    +0.000 C 
ATOM     21  N   UNL     1      -0.186  13.521  18.360  0.00  0.00    +0.000 NA
ATOM     22  C   UNL     1      -0.714  14.276  19.513  0.00  0.00    +0.000 C 
ENDBRANCH  15  21
ENDBRANCH   1  15
BRANCH   8  23
ATOM     23  C   UNL     1       3.144   6.131  19.614  0.00  0.00    +0.000 C 
BRANCH  23  24
ATOM     24  C   UNL     1       2.325   4.946  19.966  0.00  0.00    +0.000 A 
ATOM     25  N   UNL     1       2.174   4.441  21.180  0.00  0.00    +0.000 NA
ATOM     26  N   UNL     1       1.291   3.393  21.098  0.00  0.00    +0.000 NA
ATOM     27  C   UNL     1       0.926   3.277  19.847  0.00  0.00    +0.000 A 
ATOM     28  N   UNL     1       1.575   4.205  19.093  0.00  0.00    +0.000 N 
ATOM     29  C   UNL     1       1.475   4.353  17.665  0.00  0.00    +0.000 C 
ENDBRANCH  23  24
ENDBRANCH   8  23
TORSDOF 5
ENDMDL
MODEL 6
REMARK VINA RESULT:      -7.8      4.385      6.242
REMARK  Name = 
REMARK  7 active torsions:
REMARK  status: ('A' for Active; 'I' for Inactive)
REMARK    1  A    between atoms: C_1  and  C_2
REMARK    2  A    between atoms: N_6  and  C_7
REMARK    3  A    between atoms: C_7  and  C_8
REMARK    4  A    between atoms: C_12  and  C_13
REMARK    5  A    between atoms: N_19  and  C_20
REMARK    6  A    between atoms: C_20  and  C_21
REMARK    7  A    between atoms: N_25  and  C_26
REMARK                            x       y       z     vdW  Elec       q    Type
REMARK                         _______ _______ _______ _____ _____    ______ ____
ROOT
ATOM      1  C   UNL     1       2.314   7.626  18.039  0.00  0.00    +0.000 A 
ATOM      2  C   UNL     1       3.633   7.709  17.577  0.00  0.00    +0.000 A 
ATOM      3  C   UNL     1       4.329   6.534  17.397  0.00  0.00    +0.000 A 
ATOM      4  C   UNL     1       3.815   5.276  17.719  0.00  0.00    +0.000 A 
ATOM      5  C   UNL     1       2.525   5.166  18.235  0.00  0.00    +0.000 A 
ATOM      6  C   UNL     1       1.773   6.360  18.367  0.00  0.00    +0.000 A 
ATOM      7  C   UNL     1       4.846   4.231  17.400  0.00  0.00    +0.000 C 
ATOM      8  N   UNL     1       5.949   5.032  16.877  0.00  0.00    +0.000 N 
ATOM      9  C   UNL     1       5.662   6.375  16.822  0.00  0.00    +0.000 C 
ATOM     10  O   UNL     1       6.349   7.278  16.382  0.00  0.00    +0.000 OA
ENDROOT
BRANCH   5  11
ATOM     11  C   UNL     1       1.919   3.848  18.643  0.00  0.00    +0.000 C 
ATOM     12  F   UNL     1       0.722   3.969  19.282  0.00  0.00    +0.000 F 
ATOM     13  F   UNL     1       1.687   3.035  17.576  0.00  0.00    +0.000 F 
ATOM     14  F   UNL     1       2.720   3.140  19.486  0.00  0.00    +0.000 F 
ENDBRANCH   5  11
BRANCH   1  15
ATOM     15  C   UNL     1       1.489   8.896  18.119  0.00  0.00    +0.000 C 
BRANCH  15  21
ATOM     16  C   UNL     1       0.373  11.722  21.298  0.00  0.00    +0.000 C 
ATOM     17  C   UNL     1      -0.436  10.456  20.998  0.00  0.00    +0.000 C 
ATOM     18  C   UNL     1      -0.205   9.371  22.052  0.00  0.00    +0.000 C 
ATOM     19  C   UNL     1       1.200   8.799  21.944  0.00  0.00    +0.000 C 
ATOM     20  C   UNL     1       1.519   8.353  20.515  0.00  0.00    +0.000 C 
ATOM     21  N   UNL     1       1.270   9.391  19.496  0.00  0.00    +0.000 NA
ATOM     22  C   UNL     1      -0.113   9.897  19.603  0.00  0.00    +0.000 C 
ENDBRANCH  15  21
ENDBRANCH   1  15
BRANCH   8  23
ATOM     23  C   UNL     1       7.157   4.455  16.333  0.00  0.00    +0.000 C 
BRANCH  23  24
ATOM     24  C   UNL     1       7.293   4.795  14.896  0.00  0.00    +0.000 A 
ATOM     25  N   UNL     1       8.205   5.599  14.373  0.00  0.00    +0.000 NA
ATOM     26  N   UNL     1       8.038   5.602  13.010  0.00  0.00    +0.000 NA
ATOM     27  C   UNL     1       7.034   4.810  12.730  0.00  0.00    +0.000 A 
ATOM     28  N   UNL     1       6.511   4.310  13.882  0.00  0.00    +0.000 N 
ATOM     29  C   UNL     1       5.365   3.446  13.984  0.00  0.00    +0.000 C 
ENDBRANCH  23  24
ENDBRANCH   8  23
TORSDOF 5
ENDMDL
MODEL 7
REMARK VINA RESULT:      -7.8      3.706      7.758
REMARK  Name = 
REMARK  7 active torsions:
REMARK  status: ('A' for Active; 'I' for Inactive)
REMARK    1  A    between atoms: C_1  and  C_2
REMARK    2  A    between atoms: N_6  and  C_7
REMARK    3  A    between atoms: C_7  and  C_8
REMARK    4  A    between atoms: C_12  and  C_13
REMARK    5  A    between atoms: N_19  and  C_20
REMARK    6  A    between atoms: C_20  and  C_21
REMARK    7  A    between atoms: N_25  and  C_26
REMARK                            x       y       z     vdW  Elec       q    Type
REMARK                         _______ _______ _______ _____ _____    ______ ____
ROOT
ATOM      1  C   UNL     1       0.833   9.952  18.445  0.00  0.00    +0.000 A 
ATOM      2  C   UNL     1       0.799  11.024  19.345  0.00  0.00    +0.000 A 
ATOM      3  C   UNL     1      -0.403  11.669  19.537  0.00  0.00    +0.000 A 
ATOM      4  C   UNL     1      -1.566  11.358  18.831  0.00  0.00    +0.000 A 
ATOM      5  C   UNL     1      -1.550  10.332  17.888  0.00  0.00    +0.000 A 
ATOM      6  C   UNL     1      -0.338   9.618  17.723  0.00  0.00    +0.000 A 
ATOM      7  C   UNL     1      -2.674  12.261  19.291  0.00  0.00    +0.000 C 
ATOM      8  N   UNL     1      -2.009  13.076  20.304  0.00  0.00    +0.000 N 
ATOM      9  C   UNL     1      -0.695  12.727  20.501  0.00  0.00    +0.000 C 
ATOM     10  O   UNL     1       0.095  13.177  21.310  0.00  0.00    +0.000 OA
ENDROOT
BRANCH   5  11
ATOM     11  C   UNL     1      -2.756   9.966  17.059  0.00  0.00    +0.000 C 
ATOM     12  F   UNL     1      -3.473  11.040  16.630  0.00  0.00    +0.000 F 
ATOM     13  F   UNL     1      -2.418   9.274  15.936  0.00  0.00    +0.000 F 
ATOM     14  F   UNL     1      -3.637   9.177  17.733  0.00  0.00    +0.000 F 
ENDBRANCH   5  11
BRANCH   1  15
ATOM     15  C   UNL     1       2.111   9.149  18.317  0.00  0.00    +0.000 C 
BRANCH  15  21
ATOM     16  C   UNL     1       1.810   4.798  17.747  0.00  0.00    +0.000 C 
ATOM     17  C   UNL     1       3.022   5.462  18.409  0.00  0.00    +0.000 C 
ATOM     18  C   UNL     1       3.024   5.256  19.925  0.00  0.00    +0.000 C 
ATOM     19  C   UNL     1       1.911   6.059  20.583  0.00  0.00    +0.000 C 
ATOM     20  C   UNL     1       1.947   7.528  20.157  0.00  0.00    +0.000 C 
ATOM     21  N   UNL     1       1.973   7.724  18.694  0.00  0.00    +0.000 NA
ATOM     22  C   UNL     1       3.086   6.964  18.091  0.00  0.00    +0.000 C 
ENDBRANCH  15  21
ENDBRANCH   1  15
BRANCH   8  23
ATOM     23  C   UNL     1      -2.704  14.047  21.119  0.00  0.00    +0.000 C 
BRANCH  23  24
ATOM     24  C   UNL     1      -3.276  13.399  22.324  0.00  0.00    +0.000 A 
ATOM     25  N   UNL     1      -4.299  12.559  22.339  0.00  0.00    +0.000 NA
ATOM     26  N   UNL     1      -4.479  12.132  23.632  0.00  0.00    +0.000 NA
ATOM     27  C   UNL     1      -3.573  12.717  24.374  0.00  0.00    +0.000 A 
ATOM     28  N   UNL     1      -2.820  13.549  23.606  0.00  0.00    +0.000 N 
ATOM     29  C   UNL     1      -1.761  14.403  24.074  0.00  0.00    +0.000 C 
ENDBRANCH  23  24
ENDBRANCH   8  23
TORSDOF 5
ENDMDL
MODEL 8
REMARK VINA RESULT:      -7.8      2.001      3.376
REMARK  Name = 
REMARK  7 active torsions:
REMARK  status: ('A' for Active; 'I' for Inactive)
REMARK    1  A    between atoms: C_1  and  C_2
REMARK    2  A    between atoms: N_6  and  C_7
REMARK    3  A    between atoms: C_7  and  C_8
REMARK    4  A    between atoms: C_12  and  C_13
REMARK    5  A    between atoms: N_19  and  C_20
REMARK    6  A    between atoms: C_20  and  C_21
REMARK    7  A    between atoms: N_25  and  C_26
REMARK                            x       y       z     vdW  Elec       q    Type
REMARK                         _______ _______ _______ _____ _____    ______ ____
ROOT
ATOM      1  C   UNL     1       0.411  11.147  19.175  0.00  0.00    +0.000 A 
ATOM      2  C   UNL     1       1.316  10.288  18.540  0.00  0.00    +0.000 A 
ATOM      3  C   UNL     1       1.624   9.099  19.162  0.00  0.00    +0.000 A 
ATOM      4  C   UNL     1       1.140   8.740  20.422  0.00  0.00    +0.000 A 
ATOM      5  C   UNL     1       0.281   9.600  21.105  0.00  0.00    +0.000 A 
ATOM      6  C   UNL     1      -0.095  10.799  20.450  0.00  0.00    +0.000 A 
ATOM      7  C   UNL     1       1.685   7.390  20.789  0.00  0.00    +0.000 C 
ATOM      8  N   UNL     1       2.495   7.055  19.621  0.00  0.00    +0.000 N 
ATOM      9  C   UNL     1       2.445   8.012  18.637  0.00  0.00    +0.000 C 
ATOM     10  O   UNL     1       2.960   7.992  17.534  0.00  0.00    +0.000 OA
ENDROOT
BRANCH   5  11
ATOM     11  C   UNL     1      -0.249   9.299  22.483  0.00  0.00    +0.000 C 
ATOM     12  F   UNL     1       0.724   9.136  23.422  0.00  0.00    +0.000 F 
ATOM     13  F   UNL     1      -1.054  10.292  22.954  0.00  0.00    +0.000 F 
ATOM     14  F   UNL     1      -0.997   8.161  22.522  0.00  0.00    +0.000 F 
ENDBRANCH   5  11
BRANCH   1  15
ATOM     15  C   UNL     1      -0.041  12.397  18.447  0.00  0.00    +0.000 C 
BRANCH  15  21
ATOM     16  C   UNL     1       2.905  15.061  20.337  0.00  0.00    +0.000 C 
ATOM     17  C   UNL     1       2.489  15.199  18.869  0.00  0.00    +0.000 C 
ATOM     18  C   UNL     1       1.557  16.394  18.652  0.00  0.00    +0.000 C 
ATOM     19  C   UNL     1       0.192  16.137  19.274  0.00  0.00    +0.000 C 
ATOM     20  C   UNL     1      -0.395  14.801  18.812  0.00  0.00    +0.000 C 
ATOM     21  N   UNL     1       0.515  13.654  18.996  0.00  0.00    +0.000 NA
ATOM     22  C   UNL     1       1.816  13.919  18.349  0.00  0.00    +0.000 C 
ENDBRANCH  15  21
ENDBRANCH   1  15
BRANCH   8  23
ATOM     23  C   UNL     1       3.156   5.779  19.456  0.00  0.00    +0.000 C 
BRANCH  23  24
ATOM     24  C   UNL     1       2.174   4.728  19.097  0.00  0.00    +0.000 A 
ATOM     25  N   UNL     1       1.668   4.520  17.892  0.00  0.00    +0.000 NA
ATOM     26  N   UNL     1       0.850   3.419  17.958  0.00  0.00    +0.000 NA
ATOM     27  C   UNL     1       0.870   2.982  19.193  0.00  0.00    +0.000 A 
ATOM     28  N   UNL     1       1.656   3.793  19.951  0.00  0.00    +0.000 N 
ATOM     29  C   UNL     1       1.880   3.666  21.367  0.00  0.00    +0.000 C 
ENDBRANCH  23  24
ENDBRANCH   8  23
TORSDOF 5
ENDMDL
MODEL 9
REMARK VINA RESULT:      -7.7      4.177      5.719
REMARK  Name = 
REMARK  7 active torsions:
REMARK  status: ('A' for Active; 'I' for Inactive)
REMARK    1  A    between atoms: C_1  and  C_2
REMARK    2  A    between atoms: N_6  and  C_7
REMARK    3  A    between atoms: C_7  and  C_8
REMARK    4  A    between atoms: C_12  and  C_13
REMARK    5  A    between atoms: N_19  and  C_20
REMARK    6  A    between atoms: C_20  and  C_21
REMARK    7  A    between atoms: N_25  and  C_26
REMARK                            x       y       z     vdW  Elec       q    Type
REMARK                         _______ _______ _______ _____ _____    ______ ____
ROOT
ATOM      1  C   UNL     1       2.585   8.144  18.106  0.00  0.00    +0.000 A 
ATOM      2  C   UNL     1       3.575   7.823  17.170  0.00  0.00    +0.000 A 
ATOM      3  C   UNL     1       3.992   6.513  17.094  0.00  0.00    +0.000 A 
ATOM      4  C   UNL     1       3.534   5.508  17.947  0.00  0.00    +0.000 A 
ATOM      5  C   UNL     1       2.590   5.808  18.927  0.00  0.00    +0.000 A 
ATOM      6  C   UNL     1       2.105   7.138  18.978  0.00  0.00    +0.000 A 
ATOM      7  C   UNL     1       4.204   4.214  17.582  0.00  0.00    +0.000 C 
ATOM      8  N   UNL     1       5.053   4.610  16.462  0.00  0.00    +0.000 N 
ATOM      9  C   UNL     1       4.920   5.935  16.125  0.00  0.00    +0.000 C 
ATOM     10  O   UNL     1       5.444   6.539  15.208  0.00  0.00    +0.000 OA
ENDROOT
BRANCH   5  11
ATOM     11  C   UNL     1       2.079   4.784  19.910  0.00  0.00    +0.000 C 
ATOM     12  F   UNL     1       1.368   3.777  19.332  0.00  0.00    +0.000 F 
ATOM     13  F   UNL     1       3.088   4.179  20.595  0.00  0.00    +0.000 F 
ATOM     14  F   UNL     1       1.258   5.325  20.852  0.00  0.00    +0.000 F 
ENDBRANCH   5  11
BRANCH   1  15
ATOM     15  C   UNL     1       2.020   9.551  18.117  0.00  0.00    +0.000 C 
BRANCH  15  21
ATOM     16  C   UNL     1      -0.337   9.491  21.830  0.00  0.00    +0.000 C 
ATOM     17  C   UNL     1       0.066  10.792  21.129  0.00  0.00    +0.000 C 
ATOM     18  C   UNL     1      -1.116  11.432  20.396  0.00  0.00    +0.000 C 
ATOM     19  C   UNL     1      -1.512  10.608  19.180  0.00  0.00    +0.000 C 
ATOM     20  C   UNL     1      -0.309  10.316  18.280  0.00  0.00    +0.000 C 
ATOM     21  N   UNL     1       0.840   9.724  18.993  0.00  0.00    +0.000 NA
ATOM     22  C   UNL     1       1.224  10.567  20.143  0.00  0.00    +0.000 C 
ENDBRANCH  15  21
ENDBRANCH   1  15
BRANCH   8  23
ATOM     23  C   UNL     1       5.837   3.669  15.693  0.00  0.00    +0.000 C 
BRANCH  23  24
ATOM     24  C   UNL     1       6.702   4.385  14.724  0.00  0.00    +0.000 A 
ATOM     25  N   UNL     1       7.676   5.227  15.030  0.00  0.00    +0.000 NA
ATOM     26  N   UNL     1       8.278   5.625  13.862  0.00  0.00    +0.000 NA
ATOM     27  C   UNL     1       7.662   5.027  12.873  0.00  0.00    +0.000 A 
ATOM     28  N   UNL     1       6.644   4.268  13.362  0.00  0.00    +0.000 N 
ATOM     29  C   UNL     1       5.708   3.506  12.577  0.00  0.00    +0.000 C 
ENDBRANCH  23  24
ENDBRANCH   8  23
TORSDOF 5
ENDMDL
