MODEL 1
REMARK VINA RESULT:      -8.4      0.000      0.000
REMARK  Name = 
REMARK  2 active torsions:
REMARK  status: ('A' for Active; 'I' for Inactive)
REMARK    1  A    between atoms: C_4  and  C_5
REMARK    2  A    between atoms: N_18  and  C_19
REMARK                            x       y       z     vdW  Elec       q    Type
REMARK                         _______ _______ _______ _____ _____    ______ ____
ROOT
ATOM      1  O   UNL     1      -0.726   9.857  21.812  0.00  0.00    +0.000 OA
ATOM      2  C   UNL     1       0.147   9.632  20.985  0.00  0.00    +0.000 C 
ATOM      3  C   UNL     1       1.543   9.202  21.371  0.00  0.00    +0.000 C 
ATOM      4  C   UNL     1       2.145   8.705  20.060  0.00  0.00    +0.000 C 
ATOM      5  C   UNL     1       1.404   9.505  19.011  0.00  0.00    +0.000 C 
ATOM      6  N   UNL     1       0.124   9.810  19.596  0.00  0.00    +0.000 N 
ENDROOT
BRANCH   4   7
ATOM      7  C   UNL     1       1.907   7.202  19.882  0.00  0.00    +0.000 C 
ATOM      8  O   UNL     1       1.271   6.611  20.757  0.00  0.00    +0.000 OA
ATOM      9  N   UNL     1       2.495   6.574  18.775  0.00  0.00    +0.000 N 
ATOM     10  C   UNL     1       3.319   7.290  17.791  0.00  0.00    +0.000 C 
ATOM     11  C   UNL     1       4.632   6.580  17.549  0.00  0.00    +0.000 C 
ATOM     12  C   UNL     1       4.369   5.206  16.968  0.00  0.00    +0.000 C 
ATOM     13  C   UNL     1       3.244   4.490  17.668  0.00  0.00    +0.000 A 
ATOM     14  C   UNL     1       3.120   3.105  17.442  0.00  0.00    +0.000 A 
ATOM     15  C   UNL     1       2.107   2.370  18.048  0.00  0.00    +0.000 A 
ATOM     16  C   UNL     1       1.190   3.017  18.863  0.00  0.00    +0.000 A 
ATOM     17  C   UNL     1       1.300   4.394  19.088  0.00  0.00    +0.000 A 
ATOM     18  C   UNL     1       2.333   5.157  18.519  0.00  0.00    +0.000 A 
ENDBRANCH   4   7
BRANCH   6  19
ATOM     19  C   UNL     1      -0.961  10.271  18.810  0.00  0.00    +0.000 A 
ATOM     20  C   UNL     1      -1.841  11.271  19.275  0.00  0.00    +0.000 A 
ATOM     21  C   UNL     1      -2.909  11.727  18.493  0.00  0.00    +0.000 A 
ATOM     22  C   UNL     1      -3.086  11.157  17.254  0.00  0.00    +0.000 A 
ATOM     23  C   UNL     1      -2.249  10.175  16.791  0.00  0.00    +0.000 A 
ATOM     24  C   UNL     1      -1.187   9.714  17.536  0.00  0.00    +0.000 A 
ATOM     25  O   UNL     1      -2.592   9.734  15.551  0.00  0.00    +0.000 OA
ATOM     26  C   UNL     1      -3.787  10.508  15.319  0.00  0.00    +0.000 C 
ATOM     27  O   UNL     1      -4.065  11.463  16.363  0.00  0.00    +0.000 OA
ENDBRANCH   6  19
TORSDOF 2
ENDMDL
MODEL 2
REMARK VINA RESULT:      -8.0      3.804      4.900
REMARK  Name = 
REMARK  2 active torsions:
REMARK  status: ('A' for Active; 'I' for Inactive)
REMARK    1  A    between atoms: C_4  and  C_5
REMARK    2  A    between atoms: N_18  and  C_19
REMARK                            x       y       z     vdW  Elec       q    Type
REMARK                         _______ _______ _______ _____ _____    ______ ____
ROOT
ATOM      1  O   UNL     1      -1.372  11.964  17.700  0.00  0.00    +0.000 OA
ATOM      2  C   UNL     1      -0.633  11.488  18.551  0.00  0.00    +0.000 C 
ATOM      3  C   UNL     1      -0.865  10.125  19.160  0.00  0.00    +0.000 C 
ATOM      4  C   UNL     1       0.451   9.814  19.867  0.00  0.00    +0.000 C 
ATOM      5  C   UNL     1       0.994  11.185  20.211  0.00  0.00    +0.000 C 
ATOM      6  N   UNL     1       0.456  12.071  19.210  0.00  0.00    +0.000 N 
ENDROOT
BRANCH   4   7
ATOM      7  C   UNL     1       1.406   9.057  18.940  0.00  0.00    +0.000 C 
ATOM      8  O   UNL     1       1.564   9.489  17.795  0.00  0.00    +0.000 OA
ATOM      9  N   UNL     1       1.982   7.872  19.420  0.00  0.00    +0.000 N 
ATOM     10  C   UNL     1       1.711   7.336  20.761  0.00  0.00    +0.000 C 
ATOM     11  C   UNL     1       1.331   5.874  20.705  0.00  0.00    +0.000 C 
ATOM     12  C   UNL     1       2.487   5.068  20.148  0.00  0.00    +0.000 C 
ATOM     13  C   UNL     1       3.124   5.727  18.953  0.00  0.00    +0.000 A 
ATOM     14  C   UNL     1       3.980   4.936  18.160  0.00  0.00    +0.000 A 
ATOM     15  C   UNL     1       4.611   5.468  17.041  0.00  0.00    +0.000 A 
ATOM     16  C   UNL     1       4.416   6.803  16.719  0.00  0.00    +0.000 A 
ATOM     17  C   UNL     1       3.574   7.599  17.505  0.00  0.00    +0.000 A 
ATOM     18  C   UNL     1       2.895   7.081  18.620  0.00  0.00    +0.000 A 
ENDBRANCH   4   7
BRANCH   6  19
ATOM     19  C   UNL     1       0.984  13.370  19.009  0.00  0.00    +0.000 A 
ATOM     20  C   UNL     1       0.250  14.528  19.341  0.00  0.00    +0.000 A 
ATOM     21  C   UNL     1       0.776  15.810  19.145  0.00  0.00    +0.000 A 
ATOM     22  C   UNL     1       2.035  15.910  18.601  0.00  0.00    +0.000 A 
ATOM     23  C   UNL     1       2.759  14.797  18.261  0.00  0.00    +0.000 A 
ATOM     24  C   UNL     1       2.268  13.525  18.451  0.00  0.00    +0.000 A 
ATOM     25  O   UNL     1       3.974  15.101  17.732  0.00  0.00    +0.000 OA
ATOM     26  C   UNL     1       3.900  16.542  17.717  0.00  0.00    +0.000 C 
ATOM     27  O   UNL     1       2.704  17.062  18.333  0.00  0.00    +0.000 OA
ENDBRANCH   6  19
TORSDOF 2
ENDMDL
MODEL 3
REMARK VINA RESULT:      -8.0      1.025      1.599
REMARK  Name = 
REMARK  2 active torsions:
REMARK  status: ('A' for Active; 'I' for Inactive)
REMARK    1  A    between atoms: C_4  and  C_5
REMARK    2  A    between atoms: N_18  and  C_19
REMARK                            x       y       z     vdW  Elec       q    Type
REMARK                         _______ _______ _______ _____ _____    ______ ____
ROOT
ATOM      1  O   UNL     1      -0.985  10.741  21.546  0.00  0.00    +0.000 OA
ATOM      2  C   UNL     1      -0.140  10.344  20.755  0.00  0.00    +0.000 C 
ATOM      3  C   UNL     1       1.291  10.074  21.158  0.00  0.00    +0.000 C 
ATOM      4  C   UNL     1       1.856   9.282  19.983  0.00  0.00    +0.000 C 
ATOM      5  C   UNL     1       1.031   9.764  18.809  0.00  0.00    +0.000 C 
ATOM      6  N   UNL     1      -0.235  10.163  19.369  0.00  0.00    +0.000 N 
ENDROOT
BRANCH   4   7
ATOM      7  C   UNL     1       1.681   7.776  20.201  0.00  0.00    +0.000 C 
ATOM      8  O   UNL     1       1.174   7.401  21.260  0.00  0.00    +0.000 OA
ATOM      9  N   UNL     1       2.183   6.910  19.219  0.00  0.00    +0.000 N 
ATOM     10  C   UNL     1       2.859   7.384  18.003  0.00  0.00    +0.000 C 
ATOM     11  C   UNL     1       4.176   6.672  17.790  0.00  0.00    +0.000 C 
ATOM     12  C   UNL     1       3.928   5.191  17.592  0.00  0.00    +0.000 C 
ATOM     13  C   UNL     1       2.923   4.640  18.569  0.00  0.00    +0.000 A 
ATOM     14  C   UNL     1       2.851   3.239  18.700  0.00  0.00    +0.000 A 
ATOM     15  C   UNL     1       1.948   2.648  19.577  0.00  0.00    +0.000 A 
ATOM     16  C   UNL     1       1.089   3.451  20.313  0.00  0.00    +0.000 A 
ATOM     17  C   UNL     1       1.147   4.844  20.185  0.00  0.00    +0.000 A 
ATOM     18  C   UNL     1       2.072   5.470  19.333  0.00  0.00    +0.000 A 
ENDBRANCH   4   7
BRANCH   6  19
ATOM     19  C   UNL     1      -1.375  10.372  18.555  0.00  0.00    +0.000 A 
ATOM     20  C   UNL     1      -1.500   9.768  17.286  0.00  0.00    +0.000 A 
ATOM     21  C   UNL     1      -2.631   9.974  16.486  0.00  0.00    +0.000 A 
ATOM     22  C   UNL     1      -3.618  10.799  16.971  0.00  0.00    +0.000 A 
ATOM     23  C   UNL     1      -3.508  11.404  18.196  0.00  0.00    +0.000 A 
ATOM     24  C   UNL     1      -2.412  11.212  19.005  0.00  0.00    +0.000 A 
ATOM     25  O   UNL     1      -4.581  12.186  18.493  0.00  0.00    +0.000 OA
ATOM     26  C   UNL     1      -5.346  12.055  17.278  0.00  0.00    +0.000 C 
ATOM     27  O   UNL     1      -4.777  11.121  16.338  0.00  0.00    +0.000 OA
ENDBRANCH   6  19
TORSDOF 2
ENDMDL
MODEL 4
REMARK VINA RESULT:      -8.0      3.792      4.944
REMARK  Name = 
REMARK  2 active torsions:
REMARK  status: ('A' for Active; 'I' for Inactive)
REMARK    1  A    between atoms: C_4  and  C_5
REMARK    2  A    between atoms: N_18  and  C_19
REMARK                            x       y       z     vdW  Elec       q    Type
REMARK                         _______ _______ _______ _____ _____    ______ ____
ROOT
ATOM      1  O   UNL     1      -1.281  11.976  17.661  0.00  0.00    +0.000 OA
ATOM      2  C   UNL     1      -0.535  11.519  18.516  0.00  0.00    +0.000 C 
ATOM      3  C   UNL     1      -0.774  10.179  19.173  0.00  0.00    +0.000 C 
ATOM      4  C   UNL     1       0.549   9.875  19.870  0.00  0.00    +0.000 C 
ATOM      5  C   UNL     1       1.113  11.249  20.161  0.00  0.00    +0.000 C 
ATOM      6  N   UNL     1       0.571  12.109  19.140  0.00  0.00    +0.000 N 
ENDROOT
BRANCH   4   7
ATOM      7  C   UNL     1       1.481   9.077  18.954  0.00  0.00    +0.000 C 
ATOM      8  O   UNL     1       1.647   9.485  17.802  0.00  0.00    +0.000 OA
ATOM      9  N   UNL     1       2.025   7.885  19.453  0.00  0.00    +0.000 N 
ATOM     10  C   UNL     1       1.743   7.379  20.804  0.00  0.00    +0.000 C 
ATOM     11  C   UNL     1       1.323   5.927  20.773  0.00  0.00    +0.000 C 
ATOM     12  C   UNL     1       2.454   5.081  20.227  0.00  0.00    +0.000 C 
ATOM     13  C   UNL     1       3.107   5.702  19.020  0.00  0.00    +0.000 A 
ATOM     14  C   UNL     1       3.939   4.875  18.239  0.00  0.00    +0.000 A 
ATOM     15  C   UNL     1       4.582   5.370  17.111  0.00  0.00    +0.000 A 
ATOM     16  C   UNL     1       4.423   6.705  16.767  0.00  0.00    +0.000 A 
ATOM     17  C   UNL     1       3.605   7.537  17.540  0.00  0.00    +0.000 A 
ATOM     18  C   UNL     1       2.915   7.056  18.665  0.00  0.00    +0.000 A 
ENDBRANCH   4   7
BRANCH   6  19
ATOM     19  C   UNL     1       1.110  13.395  18.889  0.00  0.00    +0.000 A 
ATOM     20  C   UNL     1       2.377  13.564  18.292  0.00  0.00    +0.000 A 
ATOM     21  C   UNL     1       2.904  14.837  18.041  0.00  0.00    +0.000 A 
ATOM     22  C   UNL     1       2.151  15.927  18.409  0.00  0.00    +0.000 A 
ATOM     23  C   UNL     1       0.923  15.782  19.002  0.00  0.00    +0.000 A 
ATOM     24  C   UNL     1       0.378  14.543  19.252  0.00  0.00    +0.000 A 
ATOM     25  O   UNL     1       0.339  16.974  19.297  0.00  0.00    +0.000 OA
ATOM     26  C   UNL     1       1.377  17.885  18.883  0.00  0.00    +0.000 C 
ATOM     27  O   UNL     1       2.499  17.231  18.253  0.00  0.00    +0.000 OA
ENDBRANCH   6  19
TORSDOF 2
ENDMDL
MODEL 5
REMARK VINA RESULT:      -7.9      2.014      7.877
REMARK  Name = 
REMARK  2 active torsions:
REMARK  status: ('A' for Active; 'I' for Inactive)
REMARK    1  A    between atoms: C_4  and  C_5
REMARK    2  A    between atoms: N_18  and  C_19
REMARK                            x       y       z     vdW  Elec       q    Type
REMARK                         _______ _______ _______ _____ _____    ______ ____
ROOT
ATOM      1  O   UNL     1       3.298   7.865  16.988  0.00  0.00    +0.000 OA
ATOM      2  C   UNL     1       2.651   8.312  17.925  0.00  0.00    +0.000 C 
ATOM      3  C   UNL     1       2.471   9.795  18.157  0.00  0.00    +0.000 C 
ATOM      4  C   UNL     1       1.341   9.868  19.179  0.00  0.00    +0.000 C 
ATOM      5  C   UNL     1       1.467   8.562  19.933  0.00  0.00    +0.000 C 
ATOM      6  N   UNL     1       2.058   7.637  19.000  0.00  0.00    +0.000 N 
ENDROOT
BRANCH   4   7
ATOM      7  C   UNL     1      -0.020   9.977  18.484  0.00  0.00    +0.000 C 
ATOM      8  O   UNL     1      -0.124   9.520  17.344  0.00  0.00    +0.000 OA
ATOM      9  N   UNL     1      -1.043  10.662  19.154  0.00  0.00    +0.000 N 
ATOM     10  C   UNL     1      -0.866  11.271  20.481  0.00  0.00    +0.000 C 
ATOM     11  C   UNL     1      -1.346  12.704  20.500  0.00  0.00    +0.000 C 
ATOM     12  C   UNL     1      -2.831  12.748  20.204  0.00  0.00    +0.000 C 
ATOM     13  C   UNL     1      -3.219  11.838  19.068  0.00  0.00    +0.000 A 
ATOM     14  C   UNL     1      -4.492  12.031  18.493  0.00  0.00    +0.000 A 
ATOM     15  C   UNL     1      -4.929  11.232  17.443  0.00  0.00    +0.000 A 
ATOM     16  C   UNL     1      -4.110  10.215  16.974  0.00  0.00    +0.000 A 
ATOM     17  C   UNL     1      -2.848  10.010  17.543  0.00  0.00    +0.000 A 
ATOM     18  C   UNL     1      -2.365  10.823  18.582  0.00  0.00    +0.000 A 
ENDBRANCH   4   7
BRANCH   6  19
ATOM     19  C   UNL     1       2.045   6.240  19.230  0.00  0.00    +0.000 A 
ATOM     20  C   UNL     1       1.960   5.314  18.169  0.00  0.00    +0.000 A 
ATOM     21  C   UNL     1       1.951   3.933  18.401  0.00  0.00    +0.000 A 
ATOM     22  C   UNL     1       2.015   3.502  19.705  0.00  0.00    +0.000 A 
ATOM     23  C   UNL     1       2.086   4.386  20.750  0.00  0.00    +0.000 A 
ATOM     24  C   UNL     1       2.104   5.748  20.549  0.00  0.00    +0.000 A 
ATOM     25  O   UNL     1       2.134   3.767  21.959  0.00  0.00    +0.000 OA
ATOM     26  C   UNL     1       2.014   2.388  21.554  0.00  0.00    +0.000 C 
ATOM     27  O   UNL     1       2.011   2.208  20.122  0.00  0.00    +0.000 OA
ENDBRANCH   6  19
TORSDOF 2
ENDMDL
MODEL 6
REMARK VINA RESULT:      -7.9      2.086      7.728
REMARK  Name = 
REMARK  2 active torsions:
REMARK  status: ('A' for Active; 'I' for Inactive)
REMARK    1  A    between atoms: C_4  and  C_5
REMARK    2  A    between atoms: N_18  and  C_19
REMARK                            x       y       z     vdW  Elec       q    Type
REMARK                         _______ _______ _______ _____ _____    ______ ____
ROOT
ATOM      1  O   UNL     1       3.261   7.997  16.987  0.00  0.00    +0.000 OA
ATOM      2  C   UNL     1       2.613   8.411  17.939  0.00  0.00    +0.000 C 
ATOM      3  C   UNL     1       2.413   9.884  18.209  0.00  0.00    +0.000 C 
ATOM      4  C   UNL     1       1.288   9.916  19.238  0.00  0.00    +0.000 C 
ATOM      5  C   UNL     1       1.439   8.593  19.959  0.00  0.00    +0.000 C 
ATOM      6  N   UNL     1       2.037   7.701  19.000  0.00  0.00    +0.000 N 
ENDROOT
BRANCH   4   7
ATOM      7  C   UNL     1      -0.078  10.022  18.555  0.00  0.00    +0.000 C 
ATOM      8  O   UNL     1      -0.192   9.561  17.416  0.00  0.00    +0.000 OA
ATOM      9  N   UNL     1      -1.097  10.708  19.232  0.00  0.00    +0.000 N 
ATOM     10  C   UNL     1      -0.909  11.320  20.555  0.00  0.00    +0.000 C 
ATOM     11  C   UNL     1      -1.390  12.753  20.574  0.00  0.00    +0.000 C 
ATOM     12  C   UNL     1      -2.878  12.794  20.291  0.00  0.00    +0.000 C 
ATOM     13  C   UNL     1      -3.274  11.881  19.160  0.00  0.00    +0.000 A 
ATOM     14  C   UNL     1      -4.552  12.071  18.596  0.00  0.00    +0.000 A 
ATOM     15  C   UNL     1      -4.997  11.269  17.551  0.00  0.00    +0.000 A 
ATOM     16  C   UNL     1      -4.181  10.251  17.078  0.00  0.00    +0.000 A 
ATOM     17  C   UNL     1      -2.914  10.050  17.637  0.00  0.00    +0.000 A 
ATOM     18  C   UNL     1      -2.423  10.866  18.669  0.00  0.00    +0.000 A 
ENDBRANCH   4   7
BRANCH   6  19
ATOM     19  C   UNL     1       2.046   6.298  19.195  0.00  0.00    +0.000 A 
ATOM     20  C   UNL     1       1.983   5.728  20.484  0.00  0.00    +0.000 A 
ATOM     21  C   UNL     1       1.987   4.341  20.672  0.00  0.00    +0.000 A 
ATOM     22  C   UNL     1       2.069   3.543  19.556  0.00  0.00    +0.000 A 
ATOM     23  C   UNL     1       2.143   4.078  18.296  0.00  0.00    +0.000 A 
ATOM     24  C   UNL     1       2.133   5.438  18.082  0.00  0.00    +0.000 A 
ATOM     25  O   UNL     1       2.225   3.129  17.326  0.00  0.00    +0.000 OA
ATOM     26  C   UNL     1       2.263   1.933  18.131  0.00  0.00    +0.000 C 
ATOM     27  O   UNL     1       2.092   2.184  19.542  0.00  0.00    +0.000 OA
ENDBRANCH   6  19
TORSDOF 2
ENDMDL
MODEL 7
REMARK VINA RESULT:      -7.8      3.046      5.219
REMARK  Name = 
REMARK  2 active torsions:
REMARK  status: ('A' for Active; 'I' for Inactive)
REMARK    1  A    between atoms: C_4  and  C_5
REMARK    2  A    between atoms: N_18  and  C_19
REMARK                            x       y       z     vdW  Elec       q    Type
REMARK                         _______ _______ _______ _____ _____    ______ ____
ROOT
ATOM      1  O   UNL     1       0.379   3.964  19.641  0.00  0.00    +0.000 OA
ATOM      2  C   UNL     1       1.587   4.061  19.810  0.00  0.00    +0.000 C 
ATOM      3  C   UNL     1       2.491   2.858  19.936  0.00  0.00    +0.000 C 
ATOM      4  C   UNL     1       3.893   3.438  19.772  0.00  0.00    +0.000 C 
ATOM      5  C   UNL     1       3.742   4.859  20.270  0.00  0.00    +0.000 C 
ATOM      6  N   UNL     1       2.365   5.205  20.028  0.00  0.00    +0.000 N 
ENDROOT
BRANCH   4   7
ATOM      7  C   UNL     1       4.330   3.409  18.304  0.00  0.00    +0.000 C 
ATOM      8  O   UNL     1       3.935   2.476  17.602  0.00  0.00    +0.000 OA
ATOM      9  N   UNL     1       5.220   4.401  17.867  0.00  0.00    +0.000 N 
ATOM     10  C   UNL     1       5.741   5.455  18.750  0.00  0.00    +0.000 C 
ATOM     11  C   UNL     1       7.246   5.562  18.653  0.00  0.00    +0.000 C 
ATOM     12  C   UNL     1       7.640   5.950  17.243  0.00  0.00    +0.000 C 
ATOM     13  C   UNL     1       6.871   5.184  16.198  0.00  0.00    +0.000 A 
ATOM     14  C   UNL     1       7.366   5.217  14.880  0.00  0.00    +0.000 A 
ATOM     15  C   UNL     1       6.714   4.540  13.855  0.00  0.00    +0.000 A 
ATOM     16  C   UNL     1       5.545   3.847  14.133  0.00  0.00    +0.000 A 
ATOM     17  C   UNL     1       5.040   3.815  15.438  0.00  0.00    +0.000 A 
ATOM     18  C   UNL     1       5.696   4.460  16.500  0.00  0.00    +0.000 A 
ENDBRANCH   4   7
BRANCH   6  19
ATOM     19  C   UNL     1       1.919   6.549  20.069  0.00  0.00    +0.000 A 
ATOM     20  C   UNL     1       1.201   7.058  21.171  0.00  0.00    +0.000 A 
ATOM     21  C   UNL     1       0.766   8.389  21.209  0.00  0.00    +0.000 A 
ATOM     22  C   UNL     1       1.050   9.188  20.127  0.00  0.00    +0.000 A 
ATOM     23  C   UNL     1       1.736   8.707  19.042  0.00  0.00    +0.000 A 
ATOM     24  C   UNL     1       2.182   7.406  18.982  0.00  0.00    +0.000 A 
ATOM     25  O   UNL     1       1.911   9.645  18.074  0.00  0.00    +0.000 OA
ATOM     26  C   UNL     1       1.191  10.755  18.649  0.00  0.00    +0.000 C 
ATOM     27  O   UNL     1       0.704  10.494  19.982  0.00  0.00    +0.000 OA
ENDBRANCH   6  19
TORSDOF 2
ENDMDL
MODEL 8
REMARK VINA RESULT:      -7.7      3.597      8.483
REMARK  Name = 
REMARK  2 active torsions:
REMARK  status: ('A' for Active; 'I' for Inactive)
REMARK    1  A    between atoms: C_4  and  C_5
REMARK    2  A    between atoms: N_18  and  C_19
REMARK                            x       y       z     vdW  Elec       q    Type
REMARK                         _______ _______ _______ _____ _____    ______ ____
ROOT
ATOM      1  O   UNL     1       1.468   8.754  21.474  0.00  0.00    +0.000 OA
ATOM      2  C   UNL     1       1.120   9.155  20.372  0.00  0.00    +0.000 C 
ATOM      3  C   UNL     1       0.058  10.214  20.188  0.00  0.00    +0.000 C 
ATOM      4  C   UNL     1       0.215  10.636  18.730  0.00  0.00    +0.000 C 
ATOM      5  C   UNL     1       0.772   9.396  18.066  0.00  0.00    +0.000 C 
ATOM      6  N   UNL     1       1.493   8.699  19.101  0.00  0.00    +0.000 N 
ENDROOT
BRANCH   4   7
ATOM      7  C   UNL     1       1.183  11.816  18.602  0.00  0.00    +0.000 C 
ATOM      8  O   UNL     1       2.385  11.567  18.489  0.00  0.00    +0.000 OA
ATOM      9  N   UNL     1       0.653  13.110  18.701  0.00  0.00    +0.000 N 
ATOM     10  C   UNL     1      -0.776  13.377  18.918  0.00  0.00    +0.000 C 
ATOM     11  C   UNL     1      -0.990  14.351  20.055  0.00  0.00    +0.000 C 
ATOM     12  C   UNL     1      -0.353  15.682  19.712  0.00  0.00    +0.000 C 
ATOM     13  C   UNL     1       1.015  15.526  19.101  0.00  0.00    +0.000 A 
ATOM     14  C   UNL     1       1.829  16.674  19.040  0.00  0.00    +0.000 A 
ATOM     15  C   UNL     1       3.104  16.617  18.489  0.00  0.00    +0.000 A 
ATOM     16  C   UNL     1       3.567  15.418  17.966  0.00  0.00    +0.000 A 
ATOM     17  C   UNL     1       2.763  14.274  18.014  0.00  0.00    +0.000 A 
ATOM     18  C   UNL     1       1.485  14.292  18.597  0.00  0.00    +0.000 A 
ENDBRANCH   4   7
BRANCH   6  19
ATOM     19  C   UNL     1       2.412   7.664  18.798  0.00  0.00    +0.000 A 
ATOM     20  C   UNL     1       3.292   7.751  17.700  0.00  0.00    +0.000 A 
ATOM     21  C   UNL     1       4.202   6.728  17.407  0.00  0.00    +0.000 A 
ATOM     22  C   UNL     1       4.202   5.619  18.220  0.00  0.00    +0.000 A 
ATOM     23  C   UNL     1       3.345   5.510  19.285  0.00  0.00    +0.000 A 
ATOM     24  C   UNL     1       2.448   6.505  19.599  0.00  0.00    +0.000 A 
ATOM     25  O   UNL     1       3.493   4.339  19.960  0.00  0.00    +0.000 OA
ATOM     26  C   UNL     1       4.497   3.694  19.151  0.00  0.00    +0.000 C 
ATOM     27  O   UNL     1       5.003   4.529  18.088  0.00  0.00    +0.000 OA
ENDBRANCH   6  19
TORSDOF 2
ENDMDL
MODEL 9
REMARK VINA RESULT:      -7.7      3.156      5.417
REMARK  Name = 
REMARK  2 active torsions:
REMARK  status: ('A' for Active; 'I' for Inactive)
REMARK    1  A    between atoms: C_4  and  C_5
REMARK    2  A    between atoms: N_18  and  C_19
REMARK                            x       y       z     vdW  Elec       q    Type
REMARK                         _______ _______ _______ _____ _____    ______ ____
ROOT
ATOM      1  O   UNL     1       0.630   4.050  19.581  0.00  0.00    +0.000 OA
ATOM      2  C   UNL     1       1.841   4.192  19.690  0.00  0.00    +0.000 C 
ATOM      3  C   UNL     1       2.787   3.026  19.856  0.00  0.00    +0.000 C 
ATOM      4  C   UNL     1       4.161   3.633  19.593  0.00  0.00    +0.000 C 
ATOM      5  C   UNL     1       3.988   5.079  20.003  0.00  0.00    +0.000 C 
ATOM      6  N   UNL     1       2.591   5.370  19.798  0.00  0.00    +0.000 N 
ENDROOT
BRANCH   4   7
ATOM      7  C   UNL     1       4.538   3.517  18.113  0.00  0.00    +0.000 C 
ATOM      8  O   UNL     1       4.163   2.516  17.498  0.00  0.00    +0.000 OA
ATOM      9  N   UNL     1       5.354   4.517  17.566  0.00  0.00    +0.000 N 
ATOM     10  C   UNL     1       5.855   5.659  18.346  0.00  0.00    +0.000 C 
ATOM     11  C   UNL     1       7.347   5.833  18.173  0.00  0.00    +0.000 C 
ATOM     12  C   UNL     1       7.660   6.135  16.722  0.00  0.00    +0.000 C 
ATOM     13  C   UNL     1       6.890   5.257  15.772  0.00  0.00    +0.000 A 
ATOM     14  C   UNL     1       7.327   5.216  14.433  0.00  0.00    +0.000 A 
ATOM     15  C   UNL     1       6.670   4.434  13.490  0.00  0.00    +0.000 A 
ATOM     16  C   UNL     1       5.552   3.705  13.870  0.00  0.00    +0.000 A 
ATOM     17  C   UNL     1       5.105   3.745  15.196  0.00  0.00    +0.000 A 
ATOM     18  C   UNL     1       5.769   4.498  16.178  0.00  0.00    +0.000 A 
ENDBRANCH   4   7
BRANCH   6  19
ATOM     19  C   UNL     1       2.106   6.700  19.770  0.00  0.00    +0.000 A 
ATOM     20  C   UNL     1       2.242   7.514  18.626  0.00  0.00    +0.000 A 
ATOM     21  C   UNL     1       1.756   8.828  18.600  0.00  0.00    +0.000 A 
ATOM     22  C   UNL     1       1.151   9.310  19.737  0.00  0.00    +0.000 A 
ATOM     23  C   UNL     1       1.021   8.537  20.862  0.00  0.00    +0.000 A 
ATOM     24  C   UNL     1       1.482   7.241  20.911  0.00  0.00    +0.000 A 
ATOM     25  O   UNL     1       0.403   9.193  21.881  0.00  0.00    +0.000 OA
ATOM     26  C   UNL     1       0.222  10.494  21.284  0.00  0.00    +0.000 C 
ATOM     27  O   UNL     1       0.629  10.553  19.901  0.00  0.00    +0.000 OA
ENDBRANCH   6  19
TORSDOF 2
ENDMDL
