MODEL 1
REMARK VINA RESULT:      -9.4      0.000      0.000
REMARK  Name = 
REMARK  4 active torsions:
REMARK  status: ('A' for Active; 'I' for Inactive)
REMARK    1  A    between atoms: C_2  and  C_3
REMARK    2  A    between atoms: C_3  and  N_4
REMARK    3  A    between atoms: C_7  and  C_8
REMARK    4  A    between atoms: N_19  and  C_20
REMARK                            x       y       z     vdW  Elec       q    Type
REMARK                         _______ _______ _______ _____ _____    ______ ____
ROOT
ATOM      1  N   UNL     1       6.745   6.319  17.459  0.00  0.00    +0.000 NA
ATOM      2  C   UNL     1       6.919   4.907  17.110  0.00  0.00    +0.000 C 
ATOM      3  C   UNL     1       5.748   4.334  16.299  0.00  0.00    +0.000 C 
ATOM      4  C   UNL     1       4.389   4.609  16.976  0.00  0.00    +0.000 C 
ATOM      5  C   UNL     1       4.290   6.133  17.073  0.00  0.00    +0.000 C 
ATOM      6  C   UNL     1       5.418   6.709  17.923  0.00  0.00    +0.000 C 
ENDROOT
BRANCH   4   7
ATOM      7  C   UNL     1       4.189   3.822  18.272  0.00  0.00    +0.000 A 
ATOM      8  C   UNL     1       5.107   2.910  18.772  0.00  0.00    +0.000 A 
ATOM      9  N   UNL     1       4.624   2.360  19.924  0.00  0.00    +0.000 N 
ATOM     10  C   UNL     1       3.376   2.857  20.195  0.00  0.00    +0.000 A 
ATOM     11  C   UNL     1       2.511   2.540  21.252  0.00  0.00    +0.000 A 
ATOM     12  C   UNL     1       1.274   3.181  21.299  0.00  0.00    +0.000 A 
ATOM     13  C   UNL     1       0.921   4.104  20.324  0.00  0.00    +0.000 A 
ATOM     14  C   UNL     1       1.797   4.403  19.270  0.00  0.00    +0.000 A 
ATOM     15  C   UNL     1       3.063   3.776  19.186  0.00  0.00    +0.000 A 
ATOM     16  H   UNL     1       5.100   1.669  20.486  0.00  0.00    +0.000 HD
ENDBRANCH   4   7
BRANCH   1  17
ATOM     17  C   UNL     1       7.866   6.871  18.250  0.00  0.00    +0.000 C 
BRANCH  17  19
ATOM     18  O   UNL     1       7.600   9.022  17.194  0.00  0.00    +0.000 OA
ATOM     19  C   UNL     1       8.134   8.387  18.102  0.00  0.00    +0.000 C 
ATOM     20  N   UNL     1       8.963   8.932  19.064  0.00  0.00    +0.000 N 
ATOM     21  H   UNL     1       9.500   8.284  19.614  0.00  0.00    +0.000 HD
BRANCH  20  22
ATOM     22  C   UNL     1       9.295  10.293  19.231  0.00  0.00    +0.000 A 
ATOM     23  C   UNL     1       9.375  10.916  20.481  0.00  0.00    +0.000 A 
ATOM     24  C   UNL     1       9.728  12.267  20.580  0.00  0.00    +0.000 A 
ATOM     25  C   UNL     1       9.989  12.995  19.428  0.00  0.00    +0.000 A 
ATOM     26  F   UNL     1      10.313  14.293  19.525  0.00  0.00    +0.000 F 
ATOM     27  C   UNL     1       9.920  12.383  18.182  0.00  0.00    +0.000 A 
ATOM     28  F   UNL     1      10.170  13.087  17.070  0.00  0.00    +0.000 F 
ATOM     29  C   UNL     1       9.587  11.034  18.079  0.00  0.00    +0.000 A 
ENDBRANCH  20  22
ENDBRANCH  17  19
ENDBRANCH   1  17
TORSDOF 4
ENDMDL
MODEL 2
REMARK VINA RESULT:      -9.2      0.902      1.074
REMARK  Name = 
REMARK  4 active torsions:
REMARK  status: ('A' for Active; 'I' for Inactive)
REMARK    1  A    between atoms: C_2  and  C_3
REMARK    2  A    between atoms: C_3  and  N_4
REMARK    3  A    between atoms: C_7  and  C_8
REMARK    4  A    between atoms: N_19  and  C_20
REMARK                            x       y       z     vdW  Elec       q    Type
REMARK                         _______ _______ _______ _____ _____    ______ ____
ROOT
ATOM      1  N   UNL     1       7.081   6.249  17.311  0.00  0.00    +0.000 NA
ATOM      2  C   UNL     1       7.224   4.791  17.276  0.00  0.00    +0.000 C 
ATOM      3  C   UNL     1       6.358   4.123  16.198  0.00  0.00    +0.000 C 
ATOM      4  C   UNL     1       4.883   4.567  16.287  0.00  0.00    +0.000 C 
ATOM      5  C   UNL     1       4.909   6.086  16.100  0.00  0.00    +0.000 C 
ATOM      6  C   UNL     1       5.721   6.766  17.198  0.00  0.00    +0.000 C 
ENDROOT
BRANCH   4   7
ATOM      7  C   UNL     1       4.166   4.039  17.531  0.00  0.00    +0.000 A 
ATOM      8  C   UNL     1       4.122   2.698  17.886  0.00  0.00    +0.000 A 
ATOM      9  N   UNL     1       3.387   2.552  19.026  0.00  0.00    +0.000 N 
ATOM     10  C   UNL     1       2.899   3.767  19.431  0.00  0.00    +0.000 A 
ATOM     11  C   UNL     1       2.073   4.067  20.524  0.00  0.00    +0.000 A 
ATOM     12  C   UNL     1       1.699   5.396  20.716  0.00  0.00    +0.000 A 
ATOM     13  C   UNL     1       2.138   6.384  19.845  0.00  0.00    +0.000 A 
ATOM     14  C   UNL     1       2.958   6.064  18.752  0.00  0.00    +0.000 A 
ATOM     15  C   UNL     1       3.362   4.728  18.523  0.00  0.00    +0.000 A 
ATOM     16  H   UNL     1       3.203   1.677  19.495  0.00  0.00    +0.000 HD
ENDBRANCH   4   7
BRANCH   1  17
ATOM     17  C   UNL     1       7.905   6.895  18.356  0.00  0.00    +0.000 C 
BRANCH  17  19
ATOM     18  O   UNL     1       7.744   9.003  17.197  0.00  0.00    +0.000 OA
ATOM     19  C   UNL     1       8.211   8.398  18.162  0.00  0.00    +0.000 C 
ATOM     20  N   UNL     1       8.992   8.970  19.148  0.00  0.00    +0.000 N 
ATOM     21  H   UNL     1       9.483   8.336  19.756  0.00  0.00    +0.000 HD
BRANCH  20  22
ATOM     22  C   UNL     1       9.340  10.330  19.278  0.00  0.00    +0.000 A 
ATOM     23  C   UNL     1       9.391  10.996  20.508  0.00  0.00    +0.000 A 
ATOM     24  C   UNL     1       9.762  12.344  20.571  0.00  0.00    +0.000 A 
ATOM     25  C   UNL     1      10.070  13.028  19.403  0.00  0.00    +0.000 A 
ATOM     26  F   UNL     1      10.412  14.323  19.465  0.00  0.00    +0.000 F 
ATOM     27  C   UNL     1      10.030  12.373  18.177  0.00  0.00    +0.000 A 
ATOM     28  F   UNL     1      10.326  13.033  17.050  0.00  0.00    +0.000 F 
ATOM     29  C   UNL     1       9.680  11.026  18.110  0.00  0.00    +0.000 A 
ENDBRANCH  20  22
ENDBRANCH  17  19
ENDBRANCH   1  17
TORSDOF 4
ENDMDL
MODEL 3
REMARK VINA RESULT:      -9.1      1.301      1.563
REMARK  Name = 
REMARK  4 active torsions:
REMARK  status: ('A' for Active; 'I' for Inactive)
REMARK    1  A    between atoms: C_2  and  C_3
REMARK    2  A    between atoms: C_3  and  N_4
REMARK    3  A    between atoms: C_7  and  C_8
REMARK    4  A    between atoms: N_19  and  C_20
REMARK                            x       y       z     vdW  Elec       q    Type
REMARK                         _______ _______ _______ _____ _____    ______ ____
ROOT
ATOM      1  N   UNL     1       7.056   6.205  17.496  0.00  0.00    +0.000 NA
ATOM      2  C   UNL     1       6.687   4.835  17.861  0.00  0.00    +0.000 C 
ATOM      3  C   UNL     1       5.745   4.170  16.847  0.00  0.00    +0.000 C 
ATOM      4  C   UNL     1       4.514   5.048  16.542  0.00  0.00    +0.000 C 
ATOM      5  C   UNL     1       5.082   6.354  15.982  0.00  0.00    +0.000 C 
ATOM      6  C   UNL     1       5.976   7.053  17.002  0.00  0.00    +0.000 C 
ENDROOT
BRANCH   4   7
ATOM      7  C   UNL     1       3.548   5.167  17.723  0.00  0.00    +0.000 A 
ATOM      8  C   UNL     1       3.437   6.298  18.519  0.00  0.00    +0.000 A 
ATOM      9  N   UNL     1       2.511   6.079  19.497  0.00  0.00    +0.000 N 
ATOM     10  C   UNL     1       2.019   4.803  19.402  0.00  0.00    +0.000 A 
ATOM     11  C   UNL     1       1.084   4.155  20.221  0.00  0.00    +0.000 A 
ATOM     12  C   UNL     1       0.755   2.834  19.919  0.00  0.00    +0.000 A 
ATOM     13  C   UNL     1       1.342   2.191  18.838  0.00  0.00    +0.000 A 
ATOM     14  C   UNL     1       2.282   2.854  18.034  0.00  0.00    +0.000 A 
ATOM     15  C   UNL     1       2.642   4.195  18.304  0.00  0.00    +0.000 A 
ATOM     16  H   UNL     1       2.242   6.745  20.207  0.00  0.00    +0.000 HD
ENDBRANCH   4   7
BRANCH   1  17
ATOM     17  C   UNL     1       7.955   6.852  18.476  0.00  0.00    +0.000 C 
BRANCH  17  19
ATOM     18  O   UNL     1       7.897   8.898  17.202  0.00  0.00    +0.000 OA
ATOM     19  C   UNL     1       8.286   8.342  18.229  0.00  0.00    +0.000 C 
ATOM     20  N   UNL     1       8.996   8.961  19.240  0.00  0.00    +0.000 N 
ATOM     21  H   UNL     1       9.434   8.357  19.915  0.00  0.00    +0.000 HD
BRANCH  20  22
ATOM     22  C   UNL     1       9.343  10.324  19.326  0.00  0.00    +0.000 A 
ATOM     23  C   UNL     1       9.382  11.033  20.532  0.00  0.00    +0.000 A 
ATOM     24  C   UNL     1       9.754  12.383  20.552  0.00  0.00    +0.000 A 
ATOM     25  C   UNL     1      10.075  13.024  19.364  0.00  0.00    +0.000 A 
ATOM     26  F   UNL     1      10.417  14.321  19.385  0.00  0.00    +0.000 F 
ATOM     27  C   UNL     1      10.048  12.327  18.162  0.00  0.00    +0.000 A 
ATOM     28  F   UNL     1      10.357  12.947  17.015  0.00  0.00    +0.000 F 
ATOM     29  C   UNL     1       9.696  10.978  18.139  0.00  0.00    +0.000 A 
ENDBRANCH  20  22
ENDBRANCH  17  19
ENDBRANCH   1  17
TORSDOF 4
ENDMDL
MODEL 4
REMARK VINA RESULT:      -9.0      0.793      1.434
REMARK  Name = 
REMARK  4 active torsions:
REMARK  status: ('A' for Active; 'I' for Inactive)
REMARK    1  A    between atoms: C_2  and  C_3
REMARK    2  A    between atoms: C_3  and  N_4
REMARK    3  A    between atoms: C_7  and  C_8
REMARK    4  A    between atoms: N_19  and  C_20
REMARK                            x       y       z     vdW  Elec       q    Type
REMARK                         _______ _______ _______ _____ _____    ______ ____
ROOT
ATOM      1  N   UNL     1       6.827   6.321  17.363  0.00  0.00    +0.000 NA
ATOM      2  C   UNL     1       7.060   4.915  17.020  0.00  0.00    +0.000 C 
ATOM      3  C   UNL     1       6.000   4.340  16.069  0.00  0.00    +0.000 C 
ATOM      4  C   UNL     1       4.567   4.589  16.585  0.00  0.00    +0.000 C 
ATOM      5  C   UNL     1       4.437   6.111  16.688  0.00  0.00    +0.000 C 
ATOM      6  C   UNL     1       5.449   6.688  17.673  0.00  0.00    +0.000 C 
ENDROOT
BRANCH   4   7
ATOM      7  C   UNL     1       4.227   3.782  17.839  0.00  0.00    +0.000 A 
ATOM      8  C   UNL     1       4.701   2.502  18.086  0.00  0.00    +0.000 A 
ATOM      9  N   UNL     1       4.197   2.049  19.271  0.00  0.00    +0.000 N 
ATOM     10  C   UNL     1       3.356   2.986  19.813  0.00  0.00    +0.000 A 
ATOM     11  C   UNL     1       2.604   2.917  20.994  0.00  0.00    +0.000 A 
ATOM     12  C   UNL     1       1.806   4.011  21.326  0.00  0.00    +0.000 A 
ATOM     13  C   UNL     1       1.766   5.129  20.503  0.00  0.00    +0.000 A 
ATOM     14  C   UNL     1       2.520   5.176  19.321  0.00  0.00    +0.000 A 
ATOM     15  C   UNL     1       3.345   4.088  18.949  0.00  0.00    +0.000 A 
ATOM     16  H   UNL     1       4.389   1.146  19.680  0.00  0.00    +0.000 HD
ENDBRANCH   4   7
BRANCH   1  17
ATOM     17  C   UNL     1       7.840   6.875  18.288  0.00  0.00    +0.000 C 
BRANCH  17  19
ATOM     18  O   UNL     1       7.639   9.035  17.236  0.00  0.00    +0.000 OA
ATOM     19  C   UNL     1       8.157   8.381  18.140  0.00  0.00    +0.000 C 
ATOM     20  N   UNL     1       9.011   8.896  19.097  0.00  0.00    +0.000 N 
ATOM     21  H   UNL     1       9.529   8.229  19.643  0.00  0.00    +0.000 HD
BRANCH  20  22
ATOM     22  C   UNL     1       9.389  10.245  19.263  0.00  0.00    +0.000 A 
ATOM     23  C   UNL     1       9.783  11.069  18.203  0.00  0.00    +0.000 A 
ATOM     24  C   UNL     1      10.129  12.406  18.433  0.00  0.00    +0.000 A 
ATOM     25  C   UNL     1      10.091  12.913  19.725  0.00  0.00    +0.000 A 
ATOM     26  F   UNL     1      10.437  14.190  19.944  0.00  0.00    +0.000 F 
ATOM     27  C   UNL     1       9.694  12.105  20.783  0.00  0.00    +0.000 A 
ATOM     28  F   UNL     1       9.659  12.594  22.030  0.00  0.00    +0.000 F 
ATOM     29  C   UNL     1       9.330  10.778  20.557  0.00  0.00    +0.000 A 
ENDBRANCH  20  22
ENDBRANCH  17  19
ENDBRANCH   1  17
TORSDOF 4
ENDMDL
MODEL 5
REMARK VINA RESULT:      -9.0      1.368      2.042
REMARK  Name = 
REMARK  4 active torsions:
REMARK  status: ('A' for Active; 'I' for Inactive)
REMARK    1  A    between atoms: C_2  and  C_3
REMARK    2  A    between atoms: C_3  and  N_4
REMARK    3  A    between atoms: C_7  and  C_8
REMARK    4  A    between atoms: N_19  and  C_20
REMARK                            x       y       z     vdW  Elec       q    Type
REMARK                         _______ _______ _______ _____ _____    ______ ____
ROOT
ATOM      1  N   UNL     1       7.069   6.185  17.546  0.00  0.00    +0.000 NA
ATOM      2  C   UNL     1       6.693   4.826  17.946  0.00  0.00    +0.000 C 
ATOM      3  C   UNL     1       5.782   4.124  16.928  0.00  0.00    +0.000 C 
ATOM      4  C   UNL     1       4.559   4.988  16.558  0.00  0.00    +0.000 C 
ATOM      5  C   UNL     1       5.140   6.277  15.971  0.00  0.00    +0.000 C 
ATOM      6  C   UNL     1       6.001   7.012  16.992  0.00  0.00    +0.000 C 
ENDROOT
BRANCH   4   7
ATOM      7  C   UNL     1       3.558   5.143  17.706  0.00  0.00    +0.000 A 
ATOM      8  C   UNL     1       3.300   6.346  18.348  0.00  0.00    +0.000 A 
ATOM      9  N   UNL     1       2.382   6.146  19.338  0.00  0.00    +0.000 N 
ATOM     10  C   UNL     1       2.042   4.820  19.405  0.00  0.00    +0.000 A 
ATOM     11  C   UNL     1       1.168   4.177  20.293  0.00  0.00    +0.000 A 
ATOM     12  C   UNL     1       1.000   2.800  20.162  0.00  0.00    +0.000 A 
ATOM     13  C   UNL     1       1.681   2.097  19.177  0.00  0.00    +0.000 A 
ATOM     14  C   UNL     1       2.558   2.757  18.302  0.00  0.00    +0.000 A 
ATOM     15  C   UNL     1       2.756   4.154  18.400  0.00  0.00    +0.000 A 
ATOM     16  H   UNL     1       2.023   6.861  19.954  0.00  0.00    +0.000 HD
ENDBRANCH   4   7
BRANCH   1  17
ATOM     17  C   UNL     1       7.937   6.868  18.530  0.00  0.00    +0.000 C 
BRANCH  17  19
ATOM     18  O   UNL     1       7.824   8.899  17.236  0.00  0.00    +0.000 OA
ATOM     19  C   UNL     1       8.273   8.349  18.241  0.00  0.00    +0.000 C 
ATOM     20  N   UNL     1       9.059   8.968  19.194  0.00  0.00    +0.000 N 
ATOM     21  H   UNL     1       9.533   8.366  19.845  0.00  0.00    +0.000 HD
BRANCH  20  22
ATOM     22  C   UNL     1       9.432  10.327  19.238  0.00  0.00    +0.000 A 
ATOM     23  C   UNL     1       9.826  11.053  18.109  0.00  0.00    +0.000 A 
ATOM     24  C   UNL     1      10.167  12.407  18.217  0.00  0.00    +0.000 A 
ATOM     25  C   UNL     1      10.125  13.029  19.457  0.00  0.00    +0.000 A 
ATOM     26  F   UNL     1      10.465  14.322  19.561  0.00  0.00    +0.000 F 
ATOM     27  C   UNL     1       9.727  12.318  20.584  0.00  0.00    +0.000 A 
ATOM     28  F   UNL     1       9.687  12.919  21.781  0.00  0.00    +0.000 F 
ATOM     29  C   UNL     1       9.368  10.976  20.478  0.00  0.00    +0.000 A 
ENDBRANCH  20  22
ENDBRANCH  17  19
ENDBRANCH   1  17
TORSDOF 4
ENDMDL
MODEL 6
REMARK VINA RESULT:      -8.9      1.283      1.757
REMARK  Name = 
REMARK  4 active torsions:
REMARK  status: ('A' for Active; 'I' for Inactive)
REMARK    1  A    between atoms: C_2  and  C_3
REMARK    2  A    between atoms: C_3  and  N_4
REMARK    3  A    between atoms: C_7  and  C_8
REMARK    4  A    between atoms: N_19  and  C_20
REMARK                            x       y       z     vdW  Elec       q    Type
REMARK                         _______ _______ _______ _____ _____    ______ ____
ROOT
ATOM      1  N   UNL     1       7.051   7.029  17.256  0.00  0.00    +0.000 NA
ATOM      2  C   UNL     1       7.293   5.685  16.724  0.00  0.00    +0.000 C 
ATOM      3  C   UNL     1       6.214   5.221  15.735  0.00  0.00    +0.000 C 
ATOM      4  C   UNL     1       4.794   5.375  16.318  0.00  0.00    +0.000 C 
ATOM      5  C   UNL     1       4.645   6.867  16.625  0.00  0.00    +0.000 C 
ATOM      6  C   UNL     1       5.677   7.328  17.649  0.00  0.00    +0.000 C 
ENDROOT
BRANCH   4   7
ATOM      7  C   UNL     1       4.502   4.404  17.464  0.00  0.00    +0.000 A 
ATOM      8  C   UNL     1       5.485   3.747  18.190  0.00  0.00    +0.000 A 
ATOM      9  N   UNL     1       4.902   2.937  19.120  0.00  0.00    +0.000 N 
ATOM     10  C   UNL     1       3.537   3.003  19.012  0.00  0.00    +0.000 A 
ATOM     11  C   UNL     1       2.560   2.311  19.741  0.00  0.00    +0.000 A 
ATOM     12  C   UNL     1       1.222   2.545  19.428  0.00  0.00    +0.000 A 
ATOM     13  C   UNL     1       0.880   3.440  18.424  0.00  0.00    +0.000 A 
ATOM     14  C   UNL     1       1.872   4.118  17.699  0.00  0.00    +0.000 A 
ATOM     15  C   UNL     1       3.242   3.910  17.986  0.00  0.00    +0.000 A 
ATOM     16  H   UNL     1       5.396   2.351  19.777  0.00  0.00    +0.000 HD
ENDBRANCH   4   7
BRANCH   1  17
ATOM     17  C   UNL     1       8.083   7.475  18.217  0.00  0.00    +0.000 C 
BRANCH  17  19
ATOM     18  O   UNL     1       7.760   9.760  17.521  0.00  0.00    +0.000 OA
ATOM     19  C   UNL     1       8.372   8.993  18.263  0.00  0.00    +0.000 C 
ATOM     20  N   UNL     1       9.312   9.383  19.197  0.00  0.00    +0.000 N 
ATOM     21  H   UNL     1       9.888   8.655  19.585  0.00  0.00    +0.000 HD
BRANCH  20  22
ATOM     22  C   UNL     1       9.694  10.700  19.523  0.00  0.00    +0.000 A 
ATOM     23  C   UNL     1      10.367  11.547  18.636  0.00  0.00    +0.000 A 
ATOM     24  C   UNL     1      10.702  12.853  19.015  0.00  0.00    +0.000 A 
ATOM     25  C   UNL     1      10.373  13.305  20.286  0.00  0.00    +0.000 A 
ATOM     26  F   UNL     1      10.708  14.551  20.651  0.00  0.00    +0.000 F 
ATOM     27  C   UNL     1       9.698  12.474  21.171  0.00  0.00    +0.000 A 
ATOM     28  F   UNL     1       9.382  12.910  22.398  0.00  0.00    +0.000 F 
ATOM     29  C   UNL     1       9.345  11.180  20.793  0.00  0.00    +0.000 A 
ENDBRANCH  20  22
ENDBRANCH  17  19
ENDBRANCH   1  17
TORSDOF 4
ENDMDL
MODEL 7
REMARK VINA RESULT:      -8.8      2.381      3.128
REMARK  Name = 
REMARK  4 active torsions:
REMARK  status: ('A' for Active; 'I' for Inactive)
REMARK    1  A    between atoms: C_2  and  C_3
REMARK    2  A    between atoms: C_3  and  N_4
REMARK    3  A    between atoms: C_7  and  C_8
REMARK    4  A    between atoms: N_19  and  C_20
REMARK                            x       y       z     vdW  Elec       q    Type
REMARK                         _______ _______ _______ _____ _____    ______ ____
ROOT
ATOM      1  N   UNL     1       6.573   5.755  18.056  0.00  0.00    +0.000 NA
ATOM      2  C   UNL     1       5.911   4.806  18.956  0.00  0.00    +0.000 C 
ATOM      3  C   UNL     1       4.681   4.134  18.328  0.00  0.00    +0.000 C 
ATOM      4  C   UNL     1       3.699   5.166  17.737  0.00  0.00    +0.000 C 
ATOM      5  C   UNL     1       4.503   5.925  16.679  0.00  0.00    +0.000 C 
ATOM      6  C   UNL     1       5.697   6.643  17.299  0.00  0.00    +0.000 C 
ENDROOT
BRANCH   4   7
ATOM      7  C   UNL     1       2.994   6.009  18.802  0.00  0.00    +0.000 A 
ATOM      8  C   UNL     1       2.707   5.555  20.081  0.00  0.00    +0.000 A 
ATOM      9  N   UNL     1       2.054   6.532  20.776  0.00  0.00    +0.000 N 
ATOM     10  C   UNL     1       1.858   7.627  19.976  0.00  0.00    +0.000 A 
ATOM     11  C   UNL     1       1.203   8.831  20.274  0.00  0.00    +0.000 A 
ATOM     12  C   UNL     1       1.124   9.797  19.272  0.00  0.00    +0.000 A 
ATOM     13  C   UNL     1       1.682   9.564  18.023  0.00  0.00    +0.000 A 
ATOM     14  C   UNL     1       2.327   8.350  17.741  0.00  0.00    +0.000 A 
ATOM     15  C   UNL     1       2.430   7.344  18.730  0.00  0.00    +0.000 A 
ATOM     16  H   UNL     1       1.735   6.455  21.731  0.00  0.00    +0.000 HD
ENDBRANCH   4   7
BRANCH   1  17
ATOM     17  C   UNL     1       7.752   6.413  18.661  0.00  0.00    +0.000 C 
BRANCH  17  19
ATOM     18  O   UNL     1       7.993   8.011  16.873  0.00  0.00    +0.000 OA
ATOM     19  C   UNL     1       8.155   7.784  18.071  0.00  0.00    +0.000 C 
ATOM     20  N   UNL     1       8.656   8.691  18.985  0.00  0.00    +0.000 N 
ATOM     21  H   UNL     1       8.937   8.321  19.877  0.00  0.00    +0.000 HD
BRANCH  20  22
ATOM     22  C   UNL     1       9.005  10.036  18.746  0.00  0.00    +0.000 A 
ATOM     23  C   UNL     1      10.144  10.642  19.288  0.00  0.00    +0.000 A 
ATOM     24  C   UNL     1      10.445  11.978  18.997  0.00  0.00    +0.000 A 
ATOM     25  C   UNL     1       9.599  12.709  18.174  0.00  0.00    +0.000 A 
ATOM     26  F   UNL     1       9.882  13.993  17.909  0.00  0.00    +0.000 F 
ATOM     27  C   UNL     1       8.470  12.114  17.625  0.00  0.00    +0.000 A 
ATOM     28  F   UNL     1       7.653  12.821  16.832  0.00  0.00    +0.000 F 
ATOM     29  C   UNL     1       8.176  10.779  17.896  0.00  0.00    +0.000 A 
ENDBRANCH  20  22
ENDBRANCH  17  19
ENDBRANCH   1  17
TORSDOF 4
ENDMDL
MODEL 8
REMARK VINA RESULT:      -8.4      5.611      7.842
REMARK  Name = 
REMARK  4 active torsions:
REMARK  status: ('A' for Active; 'I' for Inactive)
REMARK    1  A    between atoms: C_2  and  C_3
REMARK    2  A    between atoms: C_3  and  N_4
REMARK    3  A    between atoms: C_7  and  C_8
REMARK    4  A    between atoms: N_19  and  C_20
REMARK                            x       y       z     vdW  Elec       q    Type
REMARK                         _______ _______ _______ _____ _____    ______ ____
ROOT
ATOM      1  N   UNL     1       3.447   5.811  18.486  0.00  0.00    +0.000 NA
ATOM      2  C   UNL     1       3.116   5.225  17.184  0.00  0.00    +0.000 C 
ATOM      3  C   UNL     1       3.594   3.774  17.034  0.00  0.00    +0.000 C 
ATOM      4  C   UNL     1       5.088   3.620  17.384  0.00  0.00    +0.000 C 
ATOM      5  C   UNL     1       5.210   4.085  18.837  0.00  0.00    +0.000 C 
ATOM      6  C   UNL     1       4.790   5.544  18.990  0.00  0.00    +0.000 C 
ENDROOT
BRANCH   4   7
ATOM      7  C   UNL     1       6.020   4.285  16.368  0.00  0.00    +0.000 A 
ATOM      8  C   UNL     1       6.918   5.293  16.687  0.00  0.00    +0.000 A 
ATOM      9  N   UNL     1       7.579   5.689  15.561  0.00  0.00    +0.000 N 
ATOM     10  C   UNL     1       7.117   4.993  14.475  0.00  0.00    +0.000 A 
ATOM     11  C   UNL     1       7.491   5.108  13.129  0.00  0.00    +0.000 A 
ATOM     12  C   UNL     1       6.855   4.285  12.200  0.00  0.00    +0.000 A 
ATOM     13  C   UNL     1       5.883   3.382  12.608  0.00  0.00    +0.000 A 
ATOM     14  C   UNL     1       5.516   3.287  13.960  0.00  0.00    +0.000 A 
ATOM     15  C   UNL     1       6.138   4.102  14.934  0.00  0.00    +0.000 A 
ATOM     16  H   UNL     1       8.287   6.408  15.522  0.00  0.00    +0.000 HD
ENDBRANCH   4   7
BRANCH   1  17
ATOM     17  C   UNL     1       2.998   7.213  18.630  0.00  0.00    +0.000 C 
BRANCH  17  19
ATOM     18  O   UNL     1       1.724   6.619  20.589  0.00  0.00    +0.000 OA
ATOM     19  C   UNL     1       2.019   7.507  19.791  0.00  0.00    +0.000 C 
ATOM     20  N   UNL     1       1.561   8.809  19.855  0.00  0.00    +0.000 N 
ATOM     21  H   UNL     1       1.700   9.375  19.035  0.00  0.00    +0.000 HD
BRANCH  20  22
ATOM     22  C   UNL     1       0.746   9.377  20.856  0.00  0.00    +0.000 A 
ATOM     23  C   UNL     1       0.802   8.994  22.201  0.00  0.00    +0.000 A 
ATOM     24  C   UNL     1      -0.022   9.612  23.150  0.00  0.00    +0.000 A 
ATOM     25  C   UNL     1      -0.907  10.603  22.751  0.00  0.00    +0.000 A 
ATOM     26  F   UNL     1      -1.705  11.182  23.660  0.00  0.00    +0.000 F 
ATOM     27  C   UNL     1      -0.964  10.996  21.419  0.00  0.00    +0.000 A 
ATOM     28  F   UNL     1      -1.820  11.952  21.034  0.00  0.00    +0.000 F 
ATOM     29  C   UNL     1      -0.133  10.398  20.473  0.00  0.00    +0.000 A 
ENDBRANCH  20  22
ENDBRANCH  17  19
ENDBRANCH   1  17
TORSDOF 4
ENDMDL
MODEL 9
REMARK VINA RESULT:      -8.4      4.050     10.634
REMARK  Name = 
REMARK  4 active torsions:
REMARK  status: ('A' for Active; 'I' for Inactive)
REMARK    1  A    between atoms: C_2  and  C_3
REMARK    2  A    between atoms: C_3  and  N_4
REMARK    3  A    between atoms: C_7  and  C_8
REMARK    4  A    between atoms: N_19  and  C_20
REMARK                            x       y       z     vdW  Elec       q    Type
REMARK                         _______ _______ _______ _____ _____    ______ ____
ROOT
ATOM      1  N   UNL     1       9.484  10.478  18.644  0.00  0.00    +0.000 NA
ATOM      2  C   UNL     1      10.455  11.263  17.877  0.00  0.00    +0.000 C 
ATOM      3  C   UNL     1      11.639  11.755  18.723  0.00  0.00    +0.000 C 
ATOM      4  C   UNL     1      11.171  12.485  19.999  0.00  0.00    +0.000 C 
ATOM      5  C   UNL     1      10.344  11.453  20.770  0.00  0.00    +0.000 C 
ATOM      6  C   UNL     1       9.133  10.998  19.962  0.00  0.00    +0.000 C 
ENDROOT
BRANCH   4   7
ATOM      7  C   UNL     1      10.504  13.832  19.716  0.00  0.00    +0.000 A 
ATOM      8  C   UNL     1       9.319  14.246  20.308  0.00  0.00    +0.000 A 
ATOM      9  N   UNL     1       8.976  15.477  19.829  0.00  0.00    +0.000 N 
ATOM     10  C   UNL     1       9.888  15.889  18.892  0.00  0.00    +0.000 A 
ATOM     11  C   UNL     1       9.899  17.065  18.130  0.00  0.00    +0.000 A 
ATOM     12  C   UNL     1      10.943  17.247  17.223  0.00  0.00    +0.000 A 
ATOM     13  C   UNL     1      11.935  16.286  17.090  0.00  0.00    +0.000 A 
ATOM     14  C   UNL     1      11.903  15.111  17.857  0.00  0.00    +0.000 A 
ATOM     15  C   UNL     1      10.863  14.888  18.789  0.00  0.00    +0.000 A 
ATOM     16  H   UNL     1       8.157  16.002  20.100  0.00  0.00    +0.000 HD
ENDBRANCH   4   7
BRANCH   1  17
ATOM     17  C   UNL     1       8.336  10.012  17.836  0.00  0.00    +0.000 C 
BRANCH  17  19
ATOM     18  O   UNL     1       8.559   7.796  18.759  0.00  0.00    +0.000 OA
ATOM     19  C   UNL     1       7.992   8.508  17.930  0.00  0.00    +0.000 C 
ATOM     20  N   UNL     1       7.012   8.074  17.059  0.00  0.00    +0.000 N 
ATOM     21  H   UNL     1       6.785   8.690  16.297  0.00  0.00    +0.000 HD
BRANCH  20  22
ATOM     22  C   UNL     1       6.435   6.789  16.996  0.00  0.00    +0.000 A 
ATOM     23  C   UNL     1       7.160   5.636  16.676  0.00  0.00    +0.000 A 
ATOM     24  C   UNL     1       6.531   4.385  16.649  0.00  0.00    +0.000 A 
ATOM     25  C   UNL     1       5.175   4.292  16.930  0.00  0.00    +0.000 A 
ATOM     26  F   UNL     1       4.573   3.095  16.889  0.00  0.00    +0.000 F 
ATOM     27  C   UNL     1       4.448   5.431  17.257  0.00  0.00    +0.000 A 
ATOM     28  F   UNL     1       3.139   5.340  17.527  0.00  0.00    +0.000 F 
ATOM     29  C   UNL     1       5.073   6.676  17.304  0.00  0.00    +0.000 A 
ENDBRANCH  20  22
ENDBRANCH  17  19
ENDBRANCH   1  17
TORSDOF 4
ENDMDL
