MODEL 1
REMARK VINA RESULT:      -8.1      0.000      0.000
REMARK  Name = 
REMARK  5 active torsions:
REMARK  status: ('A' for Active; 'I' for Inactive)
REMARK    1  A    between atoms: C_1  and  C_2
REMARK    2  A    between atoms: C_6  and  C_7
REMARK    3  A    between atoms: C_7  and  N_8
REMARK    4  A    between atoms: C_9  and  C_11
REMARK    5  A    between atoms: N_13  and  C_14
REMARK                            x       y       z     vdW  Elec       q    Type
REMARK                         _______ _______ _______ _____ _____    ______ ____
ROOT
ATOM      1  N   UNL     1       2.487   6.801  19.366  0.00  0.00    +0.000 N 
ATOM      2  C   UNL     1       1.948   7.726  18.501  0.00  0.00    +0.000 C 
ATOM      3  O   UNL     1       1.635   7.470  17.345  0.00  0.00    +0.000 OA
ATOM      4  H   UNL     1       2.676   7.086  20.313  0.00  0.00    +0.000 HD
ENDROOT
BRANCH   2   5
ATOM      5  C   UNL     1       1.729   9.108  19.080  0.00  0.00    +0.000 A 
ATOM      6  C   UNL     1       2.120  10.175  18.356  0.00  0.00    +0.000 A 
ATOM      7  N   UNL     1       1.869  11.483  18.726  0.00  0.00    +0.000 N 
ATOM      8  C   UNL     1       2.392  12.578  17.926  0.00  0.00    +0.000 C 
ATOM      9  C   UNL     1       1.071  11.813  19.822  0.00  0.00    +0.000 A 
ATOM     10  O   UNL     1       0.794  12.970  20.130  0.00  0.00    +0.000 OA
ATOM     11  C   UNL     1       0.579  10.683  20.644  0.00  0.00    +0.000 A 
ATOM     12  C   UNL     1      -0.236  10.957  21.753  0.00  0.00    +0.000 A 
ATOM     13  C   UNL     1      -0.645   9.927  22.590  0.00  0.00    +0.000 A 
ATOM     14  C   UNL     1      -0.219   8.627  22.335  0.00  0.00    +0.000 A 
ATOM     15  C   UNL     1       0.578   8.350  21.215  0.00  0.00    +0.000 A 
ATOM     16  C   UNL     1       0.961   9.366  20.324  0.00  0.00    +0.000 A 
ENDBRANCH   2   5
BRANCH   1  17
ATOM     17  C   UNL     1       2.924   5.436  19.019  0.00  0.00    +0.000 C 
ATOM     18  C   UNL     1       3.353   4.736  20.340  0.00  0.00    +0.000 C 
ATOM     19  C   UNL     1       2.058   4.279  21.012  0.00  0.00    +0.000 C 
ATOM     20  C   UNL     1       1.022   4.169  19.903  0.00  0.00    +0.000 C 
ATOM     21  C   UNL     1       1.756   4.499  18.612  0.00  0.00    +0.000 C 
BRANCH  17  27
ATOM     22  C   UNL     1       7.410   7.215  17.371  0.00  0.00    +0.000 C 
ATOM     23  C   UNL     1       6.232   6.301  17.189  0.00  0.00    +0.000 A 
ATOM     24  C   UNL     1       6.208   5.376  16.141  0.00  0.00    +0.000 A 
ATOM     25  C   UNL     1       5.119   4.522  15.992  0.00  0.00    +0.000 A 
ATOM     26  C   UNL     1       4.055   4.575  16.897  0.00  0.00    +0.000 A 
ATOM     27  C   UNL     1       4.058   5.465  17.986  0.00  0.00    +0.000 A 
ATOM     28  C   UNL     1       5.153   6.347  18.094  0.00  0.00    +0.000 A 
ENDBRANCH  17  27
ENDBRANCH   1  17
TORSDOF 3
ENDMDL
MODEL 2
REMARK VINA RESULT:      -7.9      0.587      1.211
REMARK  Name = 
REMARK  5 active torsions:
REMARK  status: ('A' for Active; 'I' for Inactive)
REMARK    1  A    between atoms: C_1  and  C_2
REMARK    2  A    between atoms: C_6  and  C_7
REMARK    3  A    between atoms: C_7  and  N_8
REMARK    4  A    between atoms: C_9  and  C_11
REMARK    5  A    between atoms: N_13  and  C_14
REMARK                            x       y       z     vdW  Elec       q    Type
REMARK                         _______ _______ _______ _____ _____    ______ ____
ROOT
ATOM      1  N   UNL     1       2.546   6.686  19.524  0.00  0.00    +0.000 N 
ATOM      2  C   UNL     1       2.002   7.576  18.625  0.00  0.00    +0.000 C 
ATOM      3  O   UNL     1       1.701   7.279  17.476  0.00  0.00    +0.000 OA
ATOM      4  H   UNL     1       2.725   7.005  20.462  0.00  0.00    +0.000 HD
ENDROOT
BRANCH   2   5
ATOM      5  C   UNL     1       1.763   8.974  19.156  0.00  0.00    +0.000 A 
ATOM      6  C   UNL     1       2.148  10.021  18.400  0.00  0.00    +0.000 A 
ATOM      7  N   UNL     1       1.881  11.337  18.725  0.00  0.00    +0.000 N 
ATOM      8  C   UNL     1       2.397  12.411  17.892  0.00  0.00    +0.000 C 
ATOM      9  C   UNL     1       1.071  11.694  19.804  0.00  0.00    +0.000 A 
ATOM     10  O   UNL     1       0.778  12.858  20.071  0.00  0.00    +0.000 OA
ATOM     11  C   UNL     1       0.584  10.586  20.659  0.00  0.00    +0.000 A 
ATOM     12  C   UNL     1      -0.242  10.888  21.753  0.00  0.00    +0.000 A 
ATOM     13  C   UNL     1      -0.645   9.882  22.620  0.00  0.00    +0.000 A 
ATOM     14  C   UNL     1      -0.203   8.579  22.412  0.00  0.00    +0.000 A 
ATOM     15  C   UNL     1       0.605   8.274  21.308  0.00  0.00    +0.000 A 
ATOM     16  C   UNL     1       0.983   9.264  20.386  0.00  0.00    +0.000 A 
ENDBRANCH   2   5
BRANCH   1  17
ATOM     17  C   UNL     1       3.000   5.316  19.226  0.00  0.00    +0.000 C 
ATOM     18  C   UNL     1       3.095   4.554  20.578  0.00  0.00    +0.000 C 
ATOM     19  C   UNL     1       1.667   4.132  20.923  0.00  0.00    +0.000 C 
ATOM     20  C   UNL     1       0.904   4.105  19.607  0.00  0.00    +0.000 C 
ATOM     21  C   UNL     1       1.921   4.446  18.528  0.00  0.00    +0.000 C 
BRANCH  17  27
ATOM     22  C   UNL     1       5.683   5.134  14.893  0.00  0.00    +0.000 C 
ATOM     23  C   UNL     1       5.644   5.262  16.389  0.00  0.00    +0.000 A 
ATOM     24  C   UNL     1       6.814   5.516  17.110  0.00  0.00    +0.000 A 
ATOM     25  C   UNL     1       6.764   5.650  18.493  0.00  0.00    +0.000 A 
ATOM     26  C   UNL     1       5.543   5.546  19.166  0.00  0.00    +0.000 A 
ATOM     27  C   UNL     1       4.338   5.329  18.474  0.00  0.00    +0.000 A 
ATOM     28  C   UNL     1       4.419   5.158  17.077  0.00  0.00    +0.000 A 
ENDBRANCH  17  27
ENDBRANCH   1  17
TORSDOF 3
ENDMDL
MODEL 3
REMARK VINA RESULT:      -7.8      0.883      3.383
REMARK  Name = 
REMARK  5 active torsions:
REMARK  status: ('A' for Active; 'I' for Inactive)
REMARK    1  A    between atoms: C_1  and  C_2
REMARK    2  A    between atoms: C_6  and  C_7
REMARK    3  A    between atoms: C_7  and  N_8
REMARK    4  A    between atoms: C_9  and  C_11
REMARK    5  A    between atoms: N_13  and  C_14
REMARK                            x       y       z     vdW  Elec       q    Type
REMARK                         _______ _______ _______ _____ _____    ______ ____
ROOT
ATOM      1  N   UNL     1       3.152   7.007  19.030  0.00  0.00    +0.000 N 
ATOM      2  C   UNL     1       2.146   7.713  18.409  0.00  0.00    +0.000 C 
ATOM      3  O   UNL     1       1.497   7.277  17.466  0.00  0.00    +0.000 OA
ATOM      4  H   UNL     1       3.607   7.424  19.825  0.00  0.00    +0.000 HD
ENDROOT
BRANCH   2   5
ATOM      5  C   UNL     1       1.859   9.082  18.987  0.00  0.00    +0.000 A 
ATOM      6  C   UNL     1       2.188  10.167  18.260  0.00  0.00    +0.000 A 
ATOM      7  N   UNL     1       1.871  11.460  18.630  0.00  0.00    +0.000 N 
ATOM      8  C   UNL     1       2.329  12.580  17.825  0.00  0.00    +0.000 C 
ATOM      9  C   UNL     1       1.064  11.749  19.731  0.00  0.00    +0.000 A 
ATOM     10  O   UNL     1       0.728  12.891  20.040  0.00  0.00    +0.000 OA
ATOM     11  C   UNL     1       0.637  10.595  20.558  0.00  0.00    +0.000 A 
ATOM     12  C   UNL     1      -0.183  10.828  21.672  0.00  0.00    +0.000 A 
ATOM     13  C   UNL     1      -0.531   9.780  22.513  0.00  0.00    +0.000 A 
ATOM     14  C   UNL     1      -0.039   8.504  22.257  0.00  0.00    +0.000 A 
ATOM     15  C   UNL     1       0.764   8.267  21.132  0.00  0.00    +0.000 A 
ATOM     16  C   UNL     1       1.086   9.300  20.237  0.00  0.00    +0.000 A 
ENDBRANCH   2   5
BRANCH   1  17
ATOM     17  C   UNL     1       3.718   5.721  18.583  0.00  0.00    +0.000 C 
ATOM     18  C   UNL     1       3.989   5.840  17.056  0.00  0.00    +0.000 C 
ATOM     19  C   UNL     1       5.308   6.601  16.923  0.00  0.00    +0.000 C 
ATOM     20  C   UNL     1       6.046   6.403  18.239  0.00  0.00    +0.000 C 
ATOM     21  C   UNL     1       5.170   5.481  19.073  0.00  0.00    +0.000 C 
BRANCH  17  27
ATOM     22  C   UNL     1       1.462   2.626  21.950  0.00  0.00    +0.000 C 
ATOM     23  C   UNL     1       1.662   3.070  20.529  0.00  0.00    +0.000 A 
ATOM     24  C   UNL     1       0.901   2.512  19.498  0.00  0.00    +0.000 A 
ATOM     25  C   UNL     1       1.083   2.942  18.187  0.00  0.00    +0.000 A 
ATOM     26  C   UNL     1       2.015   3.944  17.899  0.00  0.00    +0.000 A 
ATOM     27  C   UNL     1       2.773   4.557  18.913  0.00  0.00    +0.000 A 
ATOM     28  C   UNL     1       2.599   4.077  20.227  0.00  0.00    +0.000 A 
ENDBRANCH  17  27
ENDBRANCH   1  17
TORSDOF 3
ENDMDL
MODEL 4
REMARK VINA RESULT:      -7.7      2.279      4.691
REMARK  Name = 
REMARK  5 active torsions:
REMARK  status: ('A' for Active; 'I' for Inactive)
REMARK    1  A    between atoms: C_1  and  C_2
REMARK    2  A    between atoms: C_6  and  C_7
REMARK    3  A    between atoms: C_7  and  N_8
REMARK    4  A    between atoms: C_9  and  C_11
REMARK    5  A    between atoms: N_13  and  C_14
REMARK                            x       y       z     vdW  Elec       q    Type
REMARK                         _______ _______ _______ _____ _____    ______ ____
ROOT
ATOM      1  N   UNL     1       5.426   5.757  17.892  0.00  0.00    +0.000 N 
ATOM      2  C   UNL     1       4.401   6.569  17.461  0.00  0.00    +0.000 C 
ATOM      3  O   UNL     1       4.389   7.121  16.368  0.00  0.00    +0.000 OA
ATOM      4  H   UNL     1       5.335   5.309  18.789  0.00  0.00    +0.000 HD
ENDROOT
BRANCH   2   5
ATOM      5  C   UNL     1       3.245   6.726  18.426  0.00  0.00    +0.000 A 
ATOM      6  C   UNL     1       2.999   5.730  19.300  0.00  0.00    +0.000 A 
ATOM      7  N   UNL     1       2.049   5.809  20.300  0.00  0.00    +0.000 N 
ATOM      8  C   UNL     1       1.795   4.660  21.154  0.00  0.00    +0.000 C 
ATOM      9  C   UNL     1       1.346   6.982  20.577  0.00  0.00    +0.000 A 
ATOM     10  O   UNL     1       0.539   7.083  21.499  0.00  0.00    +0.000 OA
ATOM     11  C   UNL     1       1.594   8.130  19.673  0.00  0.00    +0.000 A 
ATOM     12  C   UNL     1       0.921   9.337  19.912  0.00  0.00    +0.000 A 
ATOM     13  C   UNL     1       1.069  10.403  19.035  0.00  0.00    +0.000 A 
ATOM     14  C   UNL     1       1.869  10.256  17.906  0.00  0.00    +0.000 A 
ATOM     15  C   UNL     1       2.557   9.056  17.678  0.00  0.00    +0.000 A 
ATOM     16  C   UNL     1       2.467   7.982  18.578  0.00  0.00    +0.000 A 
ENDBRANCH   2   5
BRANCH   1  17
ATOM     17  C   UNL     1       6.716   5.548  17.211  0.00  0.00    +0.000 C 
ATOM     18  C   UNL     1       7.458   6.915  17.193  0.00  0.00    +0.000 C 
ATOM     19  C   UNL     1       8.080   7.072  18.580  0.00  0.00    +0.000 C 
ATOM     20  C   UNL     1       8.216   5.666  19.146  0.00  0.00    +0.000 C 
ATOM     21  C   UNL     1       7.732   4.728  18.050  0.00  0.00    +0.000 C 
BRANCH  17  27
ATOM     22  C   UNL     1       7.915   5.383  12.257  0.00  0.00    +0.000 C 
ATOM     23  C   UNL     1       7.093   4.880  13.409  0.00  0.00    +0.000 A 
ATOM     24  C   UNL     1       6.213   3.807  13.238  0.00  0.00    +0.000 A 
ATOM     25  C   UNL     1       5.469   3.339  14.316  0.00  0.00    +0.000 A 
ATOM     26  C   UNL     1       5.609   3.928  15.576  0.00  0.00    +0.000 A 
ATOM     27  C   UNL     1       6.511   4.984  15.799  0.00  0.00    +0.000 A 
ATOM     28  C   UNL     1       7.225   5.467  14.683  0.00  0.00    +0.000 A 
ENDBRANCH  17  27
ENDBRANCH   1  17
TORSDOF 3
ENDMDL
MODEL 5
REMARK VINA RESULT:      -7.7      3.114      5.780
REMARK  Name = 
REMARK  5 active torsions:
REMARK  status: ('A' for Active; 'I' for Inactive)
REMARK    1  A    between atoms: C_1  and  C_2
REMARK    2  A    between atoms: C_6  and  C_7
REMARK    3  A    between atoms: C_7  and  N_8
REMARK    4  A    between atoms: C_9  and  C_11
REMARK    5  A    between atoms: N_13  and  C_14
REMARK                            x       y       z     vdW  Elec       q    Type
REMARK                         _______ _______ _______ _____ _____    ______ ____
ROOT
ATOM      1  N   UNL     1       5.512   4.801  17.113  0.00  0.00    +0.000 N 
ATOM      2  C   UNL     1       4.409   5.625  17.113  0.00  0.00    +0.000 C 
ATOM      3  O   UNL     1       4.356   6.684  16.500  0.00  0.00    +0.000 OA
ATOM      4  H   UNL     1       5.456   3.927  17.611  0.00  0.00    +0.000 HD
ENDROOT
BRANCH   2   5
ATOM      5  C   UNL     1       3.223   5.125  17.909  0.00  0.00    +0.000 A 
ATOM      6  C   UNL     1       2.910   3.816  17.840  0.00  0.00    +0.000 A 
ATOM      7  N   UNL     1       1.925   3.224  18.608  0.00  0.00    +0.000 N 
ATOM      8  C   UNL     1       1.600   1.820  18.417  0.00  0.00    +0.000 C 
ATOM      9  C   UNL     1       1.252   3.906  19.622  0.00  0.00    +0.000 A 
ATOM     10  O   UNL     1       0.414   3.378  20.350  0.00  0.00    +0.000 OA
ATOM     11  C   UNL     1       1.573   5.345  19.775  0.00  0.00    +0.000 A 
ATOM     12  C   UNL     1       0.933   6.078  20.786  0.00  0.00    +0.000 A 
ATOM     13  C   UNL     1       1.150   7.444  20.901  0.00  0.00    +0.000 A 
ATOM     14  C   UNL     1       1.987   8.084  19.992  0.00  0.00    +0.000 A 
ATOM     15  C   UNL     1       2.643   7.348  18.996  0.00  0.00    +0.000 A 
ATOM     16  C   UNL     1       2.482   5.957  18.891  0.00  0.00    +0.000 A 
ENDBRANCH   2   5
BRANCH   1  17
ATOM     17  C   UNL     1       6.832   5.113  16.537  0.00  0.00    +0.000 C 
ATOM     18  C   UNL     1       7.131   6.608  16.845  0.00  0.00    +0.000 C 
ATOM     19  C   UNL     1       7.622   6.648  18.292  0.00  0.00    +0.000 C 
ATOM     20  C   UNL     1       8.149   5.253  18.598  0.00  0.00    +0.000 C 
ATOM     21  C   UNL     1       8.012   4.463  17.305  0.00  0.00    +0.000 C 
BRANCH  17  27
ATOM     22  C   UNL     1       4.761   3.056  12.356  0.00  0.00    +0.000 C 
ATOM     23  C   UNL     1       5.863   3.846  13.002  0.00  0.00    +0.000 A 
ATOM     24  C   UNL     1       6.869   4.427  12.224  0.00  0.00    +0.000 A 
ATOM     25  C   UNL     1       7.875   5.170  12.832  0.00  0.00    +0.000 A 
ATOM     26  C   UNL     1       7.876   5.353  14.218  0.00  0.00    +0.000 A 
ATOM     27  C   UNL     1       6.861   4.817  15.031  0.00  0.00    +0.000 A 
ATOM     28  C   UNL     1       5.874   4.035  14.398  0.00  0.00    +0.000 A 
ENDBRANCH  17  27
ENDBRANCH   1  17
TORSDOF 3
ENDMDL
MODEL 6
REMARK VINA RESULT:      -7.7      4.116      7.551
REMARK  Name = 
REMARK  5 active torsions:
REMARK  status: ('A' for Active; 'I' for Inactive)
REMARK    1  A    between atoms: C_1  and  C_2
REMARK    2  A    between atoms: C_6  and  C_7
REMARK    3  A    between atoms: C_7  and  N_8
REMARK    4  A    between atoms: C_9  and  C_11
REMARK    5  A    between atoms: N_13  and  C_14
REMARK                            x       y       z     vdW  Elec       q    Type
REMARK                         _______ _______ _______ _____ _____    ______ ____
ROOT
ATOM      1  N   UNL     1       0.448  11.933  18.526  0.00  0.00    +0.000 N 
ATOM      2  C   UNL     1       0.443  12.956  19.448  0.00  0.00    +0.000 C 
ATOM      3  O   UNL     1      -0.153  12.901  20.517  0.00  0.00    +0.000 OA
ATOM      4  H   UNL     1       0.998  12.045  17.691  0.00  0.00    +0.000 HD
ENDROOT
BRANCH   2   5
ATOM      5  C   UNL     1       1.258  14.175  19.072  0.00  0.00    +0.000 A 
ATOM      6  C   UNL     1       2.560  14.006  18.769  0.00  0.00    +0.000 A 
ATOM      7  N   UNL     1       3.373  15.021  18.301  0.00  0.00    +0.000 N 
ATOM      8  C   UNL     1       4.786  14.772  18.069  0.00  0.00    +0.000 C 
ATOM      9  C   UNL     1       2.883  16.287  17.977  0.00  0.00    +0.000 A 
ATOM     10  O   UNL     1       3.583  17.182  17.508  0.00  0.00    +0.000 OA
ATOM     11  C   UNL     1       1.447  16.530  18.255  0.00  0.00    +0.000 A 
ATOM     12  C   UNL     1       0.899  17.782  17.940  0.00  0.00    +0.000 A 
ATOM     13  C   UNL     1      -0.420  18.068  18.264  0.00  0.00    +0.000 A 
ATOM     14  C   UNL     1      -1.185  17.113  18.927  0.00  0.00    +0.000 A 
ATOM     15  C   UNL     1      -0.643  15.855  19.223  0.00  0.00    +0.000 A 
ATOM     16  C   UNL     1       0.671  15.522  18.858  0.00  0.00    +0.000 A 
ENDBRANCH   2   5
BRANCH   1  17
ATOM     17  C   UNL     1      -0.366  10.705  18.584  0.00  0.00    +0.000 C 
ATOM     18  C   UNL     1       0.448   9.575  17.892  0.00  0.00    +0.000 C 
ATOM     19  C   UNL     1       1.462   9.094  18.930  0.00  0.00    +0.000 C 
ATOM     20  C   UNL     1       0.889   9.470  20.288  0.00  0.00    +0.000 C 
ATOM     21  C   UNL     1      -0.469  10.098  20.008  0.00  0.00    +0.000 C 
BRANCH  17  27
ATOM     22  C   UNL     1      -3.566  10.100  14.660  0.00  0.00    +0.000 C 
ATOM     23  C   UNL     1      -3.296  10.616  16.045  0.00  0.00    +0.000 A 
ATOM     24  C   UNL     1      -4.322  11.192  16.799  0.00  0.00    +0.000 A 
ATOM     25  C   UNL     1      -4.064  11.652  18.087  0.00  0.00    +0.000 A 
ATOM     26  C   UNL     1      -2.785  11.526  18.636  0.00  0.00    +0.000 A 
ATOM     27  C   UNL     1      -1.735  10.919  17.923  0.00  0.00    +0.000 A 
ATOM     28  C   UNL     1      -2.010  10.496  16.607  0.00  0.00    +0.000 A 
ENDBRANCH  17  27
ENDBRANCH   1  17
TORSDOF 3
ENDMDL
MODEL 7
REMARK VINA RESULT:      -7.6      3.191      6.412
REMARK  Name = 
REMARK  5 active torsions:
REMARK  status: ('A' for Active; 'I' for Inactive)
REMARK    1  A    between atoms: C_1  and  C_2
REMARK    2  A    between atoms: C_6  and  C_7
REMARK    3  A    between atoms: C_7  and  N_8
REMARK    4  A    between atoms: C_9  and  C_11
REMARK    5  A    between atoms: N_13  and  C_14
REMARK                            x       y       z     vdW  Elec       q    Type
REMARK                         _______ _______ _______ _____ _____    ______ ____
ROOT
ATOM      1  N   UNL     1       0.485  12.095  18.720  0.00  0.00    +0.000 N 
ATOM      2  C   UNL     1       1.221  12.774  19.665  0.00  0.00    +0.000 C 
ATOM      3  O   UNL     1       1.378  12.378  20.813  0.00  0.00    +0.000 OA
ATOM      4  H   UNL     1       0.442  12.472  17.787  0.00  0.00    +0.000 HD
ENDROOT
BRANCH   2   5
ATOM      5  C   UNL     1       1.867  14.058  19.188  0.00  0.00    +0.000 A 
ATOM      6  C   UNL     1       3.161  14.023  18.814  0.00  0.00    +0.000 A 
ATOM      7  N   UNL     1       3.824  15.100  18.256  0.00  0.00    +0.000 N 
ATOM      8  C   UNL     1       5.241  15.002  17.949  0.00  0.00    +0.000 C 
ATOM      9  C   UNL     1       3.172  16.284  17.908  0.00  0.00    +0.000 A 
ATOM     10  O   UNL     1       3.737  17.229  17.360  0.00  0.00    +0.000 OA
ATOM     11  C   UNL     1       1.736  16.376  18.262  0.00  0.00    +0.000 A 
ATOM     12  C   UNL     1       1.029  17.541  17.927  0.00  0.00    +0.000 A 
ATOM     13  C   UNL     1      -0.294  17.691  18.318  0.00  0.00    +0.000 A 
ATOM     14  C   UNL     1      -0.905  16.689  19.066  0.00  0.00    +0.000 A 
ATOM     15  C   UNL     1      -0.206  15.516  19.383  0.00  0.00    +0.000 A 
ATOM     16  C   UNL     1       1.116  15.317  18.953  0.00  0.00    +0.000 A 
ENDBRANCH   2   5
BRANCH   1  17
ATOM     17  C   UNL     1      -0.350  10.904  18.958  0.00  0.00    +0.000 C 
ATOM     18  C   UNL     1      -1.328  11.247  20.118  0.00  0.00    +0.000 C 
ATOM     19  C   UNL     1      -2.458  12.060  19.487  0.00  0.00    +0.000 C 
ATOM     20  C   UNL     1      -2.465  11.699  18.009  0.00  0.00    +0.000 C 
ATOM     21  C   UNL     1      -1.386  10.641  17.833  0.00  0.00    +0.000 C 
BRANCH  17  27
ATOM     22  C   UNL     1       3.239   7.522  17.659  0.00  0.00    +0.000 C 
ATOM     23  C   UNL     1       2.260   8.050  18.668  0.00  0.00    +0.000 A 
ATOM     24  C   UNL     1       2.208   7.508  19.956  0.00  0.00    +0.000 A 
ATOM     25  C   UNL     1       1.308   8.016  20.888  0.00  0.00    +0.000 A 
ATOM     26  C   UNL     1       0.467   9.079  20.547  0.00  0.00    +0.000 A 
ATOM     27  C   UNL     1       0.515   9.677  19.275  0.00  0.00    +0.000 A 
ATOM     28  C   UNL     1       1.406   9.120  18.335  0.00  0.00    +0.000 A 
ENDBRANCH  17  27
ENDBRANCH   1  17
TORSDOF 3
ENDMDL
MODEL 8
REMARK VINA RESULT:      -7.5      3.040      5.582
REMARK  Name = 
REMARK  5 active torsions:
REMARK  status: ('A' for Active; 'I' for Inactive)
REMARK    1  A    between atoms: C_1  and  C_2
REMARK    2  A    between atoms: C_6  and  C_7
REMARK    3  A    between atoms: C_7  and  N_8
REMARK    4  A    between atoms: C_9  and  C_11
REMARK    5  A    between atoms: N_13  and  C_14
REMARK                            x       y       z     vdW  Elec       q    Type
REMARK                         _______ _______ _______ _____ _____    ______ ____
ROOT
ATOM      1  N   UNL     1       5.497   4.820  17.301  0.00  0.00    +0.000 N 
ATOM      2  C   UNL     1       4.376   5.619  17.260  0.00  0.00    +0.000 C 
ATOM      3  O   UNL     1       4.289   6.628  16.571  0.00  0.00    +0.000 OA
ATOM      4  H   UNL     1       5.468   3.986  17.863  0.00  0.00    +0.000 HD
ENDROOT
BRANCH   2   5
ATOM      5  C   UNL     1       3.215   5.156  18.113  0.00  0.00    +0.000 A 
ATOM      6  C   UNL     1       2.932   3.839  18.150  0.00  0.00    +0.000 A 
ATOM      7  N   UNL     1       1.974   3.286  18.979  0.00  0.00    +0.000 N 
ATOM      8  C   UNL     1       1.679   1.865  18.903  0.00  0.00    +0.000 C 
ATOM      9  C   UNL     1       1.301   4.030  19.948  0.00  0.00    +0.000 A 
ATOM     10  O   UNL     1       0.487   3.541  20.729  0.00  0.00    +0.000 OA
ATOM     11  C   UNL     1       1.590   5.484  19.984  0.00  0.00    +0.000 A 
ATOM     12  C   UNL     1       0.948   6.278  20.946  0.00  0.00    +0.000 A 
ATOM     13  C   UNL     1       1.135   7.654  20.952  0.00  0.00    +0.000 A 
ATOM     14  C   UNL     1       1.942   8.239  19.982  0.00  0.00    +0.000 A 
ATOM     15  C   UNL     1       2.600   7.444  19.034  0.00  0.00    +0.000 A 
ATOM     16  C   UNL     1       2.470   6.046  19.039  0.00  0.00    +0.000 A 
ENDBRANCH   2   5
BRANCH   1  17
ATOM     17  C   UNL     1       6.800   5.116  16.678  0.00  0.00    +0.000 C 
ATOM     18  C   UNL     1       7.133   6.604  16.984  0.00  0.00    +0.000 C 
ATOM     19  C   UNL     1       7.677   6.627  18.412  0.00  0.00    +0.000 C 
ATOM     20  C   UNL     1       8.193   5.223  18.691  0.00  0.00    +0.000 C 
ATOM     21  C   UNL     1       7.997   4.443  17.400  0.00  0.00    +0.000 C 
BRANCH  17  27
ATOM     22  C   UNL     1       8.393   6.057  11.926  0.00  0.00    +0.000 C 
ATOM     23  C   UNL     1       7.545   5.259  12.875  0.00  0.00    +0.000 A 
ATOM     24  C   UNL     1       6.807   4.164  12.417  0.00  0.00    +0.000 A 
ATOM     25  C   UNL     1       6.038   3.422  13.307  0.00  0.00    +0.000 A 
ATOM     26  C   UNL     1       6.012   3.758  14.664  0.00  0.00    +0.000 A 
ATOM     27  C   UNL     1       6.770   4.828  15.171  0.00  0.00    +0.000 A 
ATOM     28  C   UNL     1       7.510   5.590  14.244  0.00  0.00    +0.000 A 
ENDBRANCH  17  27
ENDBRANCH   1  17
TORSDOF 3
ENDMDL
MODEL 9
REMARK VINA RESULT:      -7.4      1.305      2.817
REMARK  Name = 
REMARK  5 active torsions:
REMARK  status: ('A' for Active; 'I' for Inactive)
REMARK    1  A    between atoms: C_1  and  C_2
REMARK    2  A    between atoms: C_6  and  C_7
REMARK    3  A    between atoms: C_7  and  N_8
REMARK    4  A    between atoms: C_9  and  C_11
REMARK    5  A    between atoms: N_13  and  C_14
REMARK                            x       y       z     vdW  Elec       q    Type
REMARK                         _______ _______ _______ _____ _____    ______ ____
ROOT
ATOM      1  N   UNL     1       2.368   6.687  19.474  0.00  0.00    +0.000 N 
ATOM      2  C   UNL     1       1.910   7.763  18.747  0.00  0.00    +0.000 C 
ATOM      3  O   UNL     1       1.928   7.809  17.523  0.00  0.00    +0.000 OA
ATOM      4  H   UNL     1       2.277   6.715  20.476  0.00  0.00    +0.000 HD
ENDROOT
BRANCH   2   5
ATOM      5  C   UNL     1       1.341   8.905  19.562  0.00  0.00    +0.000 A 
ATOM      6  C   UNL     1       0.711   8.616  20.717  0.00  0.00    +0.000 A 
ATOM      7  N   UNL     1       0.254   9.577  21.599  0.00  0.00    +0.000 N 
ATOM      8  C   UNL     1      -0.483   9.181  22.788  0.00  0.00    +0.000 C 
ATOM      9  C   UNL     1       0.522  10.936  21.433  0.00  0.00    +0.000 A 
ATOM     10  O   UNL     1       0.171  11.796  22.239  0.00  0.00    +0.000 OA
ATOM     11  C   UNL     1       1.244  11.321  20.197  0.00  0.00    +0.000 A 
ATOM     12  C   UNL     1       1.548  12.674  19.984  0.00  0.00    +0.000 A 
ATOM     13  C   UNL     1       2.148  13.075  18.799  0.00  0.00    +0.000 A 
ATOM     14  C   UNL     1       2.422  12.130  17.815  0.00  0.00    +0.000 A 
ATOM     15  C   UNL     1       2.137  10.775  18.036  0.00  0.00    +0.000 A 
ATOM     16  C   UNL     1       1.579  10.336  19.248  0.00  0.00    +0.000 A 
ENDBRANCH   2   5
BRANCH   1  17
ATOM     17  C   UNL     1       3.086   5.517  18.938  0.00  0.00    +0.000 C 
ATOM     18  C   UNL     1       3.114   4.436  20.057  0.00  0.00    +0.000 C 
ATOM     19  C   UNL     1       1.744   3.760  20.021  0.00  0.00    +0.000 C 
ATOM     20  C   UNL     1       1.194   3.993  18.621  0.00  0.00    +0.000 C 
ATOM     21  C   UNL     1       2.284   4.737  17.864  0.00  0.00    +0.000 C 
BRANCH  17  27
ATOM     22  C   UNL     1       8.142   5.581  19.607  0.00  0.00    +0.000 C 
ATOM     23  C   UNL     1       6.940   5.921  18.773  0.00  0.00    +0.000 A 
ATOM     24  C   UNL     1       7.095   6.485  17.503  0.00  0.00    +0.000 A 
ATOM     25  C   UNL     1       5.976   6.782  16.732  0.00  0.00    +0.000 A 
ATOM     26  C   UNL     1       4.695   6.503  17.216  0.00  0.00    +0.000 A 
ATOM     27  C   UNL     1       4.497   5.901  18.472  0.00  0.00    +0.000 A 
ATOM     28  C   UNL     1       5.644   5.646  19.252  0.00  0.00    +0.000 A 
ENDBRANCH  17  27
ENDBRANCH   1  17
TORSDOF 3
ENDMDL
