MODEL 1
REMARK VINA RESULT:      -8.0      0.000      0.000
REMARK  Name = 
REMARK  3 active torsions:
REMARK  status: ('A' for Active; 'I' for Inactive)
REMARK    1  A    between atoms: C_2  and  C_15
REMARK    2  A    between atoms: N_3  and  C_4
REMARK    3  A    between atoms: C_7  and  C_8
REMARK                            x       y       z     vdW  Elec       q    Type
REMARK                         _______ _______ _______ _____ _____    ______ ____
ROOT
ATOM      1  O   UNL     1       8.907   9.834  19.960  0.00  0.00    +0.000 OA
ATOM      2  C   UNL     1       8.964  10.140  18.766  0.00  0.00    +0.000 C 
ATOM      3  N   UNL     1       8.385   9.445  17.726  0.00  0.00    +0.000 N 
ATOM      4  H   UNL     1       8.498   9.843  16.789  0.00  0.00    +0.000 HD
ENDROOT
BRANCH   2   5
ATOM      5  C   UNL     1       9.693  11.373  18.354  0.00  0.00    +0.000 A 
ATOM      6  C   UNL     1      10.938  11.557  18.818  0.00  0.00    +0.000 A 
ATOM      7  C   UNL     1      11.628  12.776  18.505  0.00  0.00    +0.000 A 
ATOM      8  C   UNL     1      11.259  13.523  17.457  0.00  0.00    +0.000 A 
ATOM      9  N   UNL     1      10.013  13.334  16.912  0.00  0.00    +0.000 N 
ATOM     10  C   UNL     1       9.111  12.445  17.481  0.00  0.00    +0.000 A 
ATOM     11  O   UNL     1       7.899  12.553  17.308  0.00  0.00    +0.000 OA
ATOM     12  C   UNL     1      11.940  14.850  17.470  0.00  0.00    +0.000 C 
ATOM     13  C   UNL     1      11.935  15.036  18.985  0.00  0.00    +0.000 C 
ATOM     14  C   UNL     1      12.322  13.642  19.515  0.00  0.00    +0.000 C 
ATOM     15  H   UNL     1       9.596  14.090  16.380  0.00  0.00    +0.000 HD
ENDBRANCH   2   5
BRANCH   3  16
ATOM     16  C   UNL     1       7.716   8.197  17.794  0.00  0.00    +0.000 A 
ATOM     17  C   UNL     1       6.532   7.932  17.120  0.00  0.00    +0.000 A 
ATOM     18  C   UNL     1       5.864   6.715  17.312  0.00  0.00    +0.000 A 
ATOM     19  C   UNL     1       6.376   5.744  18.176  0.00  0.00    +0.000 A 
ATOM     20  C   UNL     1       7.609   5.990  18.796  0.00  0.00    +0.000 A 
ATOM     21  C   UNL     1       8.270   7.211  18.612  0.00  0.00    +0.000 A 
BRANCH  19  22
ATOM     22  C   UNL     1       5.645   4.516  18.461  0.00  0.00    +0.000 A 
ATOM     23  N   UNL     1       5.555   3.872  19.611  0.00  0.00    +0.000 NA
ATOM     24  N   UNL     1       4.713   2.792  19.446  0.00  0.00    +0.000 NA
ATOM     25  C   UNL     1       4.290   2.812  18.205  0.00  0.00    +0.000 A 
ATOM     26  N   UNL     1       4.848   3.862  17.551  0.00  0.00    +0.000 N 
ATOM     27  H   UNL     1       4.674   4.145  16.600  0.00  0.00    +0.000 HD
ENDBRANCH  19  22
ENDBRANCH   3  16
TORSDOF 3
ENDMDL
MODEL 2
REMARK VINA RESULT:      -7.9      6.952      9.971
REMARK  Name = 
REMARK  3 active torsions:
REMARK  status: ('A' for Active; 'I' for Inactive)
REMARK    1  A    between atoms: C_2  and  C_15
REMARK    2  A    between atoms: N_3  and  C_4
REMARK    3  A    between atoms: C_7  and  C_8
REMARK                            x       y       z     vdW  Elec       q    Type
REMARK                         _______ _______ _______ _____ _____    ______ ____
ROOT
ATOM      1  O   UNL     1       1.703   5.597  20.338  0.00  0.00    +0.000 OA
ATOM      2  C   UNL     1       2.297   6.226  19.459  0.00  0.00    +0.000 C 
ATOM      3  N   UNL     1       2.281   7.595  19.295  0.00  0.00    +0.000 N 
ATOM      4  H   UNL     1       2.851   7.973  18.531  0.00  0.00    +0.000 HD
ENDROOT
BRANCH   2   5
ATOM      5  C   UNL     1       3.138   5.496  18.468  0.00  0.00    +0.000 A 
ATOM      6  C   UNL     1       4.391   5.926  18.261  0.00  0.00    +0.000 A 
ATOM      7  C   UNL     1       5.190   5.292  17.251  0.00  0.00    +0.000 A 
ATOM      8  C   UNL     1       4.897   4.061  16.817  0.00  0.00    +0.000 A 
ATOM      9  N   UNL     1       3.642   3.555  17.052  0.00  0.00    +0.000 N 
ATOM     10  C   UNL     1       2.660   4.329  17.655  0.00  0.00    +0.000 A 
ATOM     11  O   UNL     1       1.464   4.093  17.500  0.00  0.00    +0.000 OA
ATOM     12  C   UNL     1       5.695   3.707  15.607  0.00  0.00    +0.000 C 
ATOM     13  C   UNL     1       5.697   5.100  14.985  0.00  0.00    +0.000 C 
ATOM     14  C   UNL     1       5.953   6.027  16.188  0.00  0.00    +0.000 C 
ATOM     15  H   UNL     1       3.298   2.812  16.454  0.00  0.00    +0.000 HD
ENDBRANCH   2   5
BRANCH   3  16
ATOM     16  C   UNL     1       1.504   8.537  20.015  0.00  0.00    +0.000 A 
ATOM     17  C   UNL     1       1.269   8.442  21.380  0.00  0.00    +0.000 A 
ATOM     18  C   UNL     1       0.405   9.346  22.015  0.00  0.00    +0.000 A 
ATOM     19  C   UNL     1      -0.230  10.358  21.292  0.00  0.00    +0.000 A 
ATOM     20  C   UNL     1       0.070  10.491  19.930  0.00  0.00    +0.000 A 
ATOM     21  C   UNL     1       0.925   9.582  19.295  0.00  0.00    +0.000 A 
BRANCH  19  22
ATOM     22  C   UNL     1      -1.206  11.244  21.918  0.00  0.00    +0.000 A 
ATOM     23  N   UNL     1      -1.902  12.213  21.352  0.00  0.00    +0.000 NA
ATOM     24  N   UNL     1      -2.750  12.754  22.297  0.00  0.00    +0.000 NA
ATOM     25  C   UNL     1      -2.570  12.087  23.412  0.00  0.00    +0.000 A 
ATOM     26  N   UNL     1      -1.613  11.143  23.227  0.00  0.00    +0.000 N 
ATOM     27  H   UNL     1      -1.298  10.460  23.898  0.00  0.00    +0.000 HD
ENDBRANCH  19  22
ENDBRANCH   3  16
TORSDOF 3
ENDMDL
MODEL 3
REMARK VINA RESULT:      -7.9      7.078      9.929
REMARK  Name = 
REMARK  3 active torsions:
REMARK  status: ('A' for Active; 'I' for Inactive)
REMARK    1  A    between atoms: C_2  and  C_15
REMARK    2  A    between atoms: N_3  and  C_4
REMARK    3  A    between atoms: C_7  and  C_8
REMARK                            x       y       z     vdW  Elec       q    Type
REMARK                         _______ _______ _______ _____ _____    ______ ____
ROOT
ATOM      1  O   UNL     1       2.158   8.983  17.583  0.00  0.00    +0.000 OA
ATOM      2  C   UNL     1       2.368   8.060  18.374  0.00  0.00    +0.000 C 
ATOM      3  N   UNL     1       1.828   7.941  19.636  0.00  0.00    +0.000 N 
ATOM      4  H   UNL     1       2.078   7.099  20.165  0.00  0.00    +0.000 HD
ENDROOT
BRANCH   2   5
ATOM      5  C   UNL     1       3.263   6.936  17.976  0.00  0.00    +0.000 A 
ATOM      6  C   UNL     1       4.290   7.203  17.157  0.00  0.00    +0.000 A 
ATOM      7  C   UNL     1       5.113   6.123  16.692  0.00  0.00    +0.000 A 
ATOM      8  C   UNL     1       5.158   4.960  17.354  0.00  0.00    +0.000 A 
ATOM      9  N   UNL     1       4.156   4.665  18.245  0.00  0.00    +0.000 N 
ATOM     10  C   UNL     1       3.066   5.511  18.404  0.00  0.00    +0.000 A 
ATOM     11  O   UNL     1       1.990   5.106  18.836  0.00  0.00    +0.000 OA
ATOM     12  C   UNL     1       5.870   3.913  16.566  0.00  0.00    +0.000 C 
ATOM     13  C   UNL     1       5.371   4.357  15.194  0.00  0.00    +0.000 C 
ATOM     14  C   UNL     1       5.478   5.892  15.255  0.00  0.00    +0.000 C 
ATOM     15  H   UNL     1       3.984   3.693  18.478  0.00  0.00    +0.000 HD
ENDBRANCH   2   5
BRANCH   3  16
ATOM     16  C   UNL     1       1.028   8.889  20.322  0.00  0.00    +0.000 A 
ATOM     17  C   UNL     1       0.267   9.852  19.671  0.00  0.00    +0.000 A 
ATOM     18  C   UNL     1      -0.420  10.828  20.406  0.00  0.00    +0.000 A 
ATOM     19  C   UNL     1      -0.357  10.851  21.801  0.00  0.00    +0.000 A 
ATOM     20  C   UNL     1       0.353   9.833  22.452  0.00  0.00    +0.000 A 
ATOM     21  C   UNL     1       1.047   8.864  21.716  0.00  0.00    +0.000 A 
BRANCH  19  22
ATOM     22  C   UNL     1      -0.985  11.916  22.575  0.00  0.00    +0.000 A 
ATOM     23  N   UNL     1      -0.423  13.014  23.048  0.00  0.00    +0.000 NA
ATOM     24  N   UNL     1      -1.396  13.773  23.666  0.00  0.00    +0.000 NA
ATOM     25  C   UNL     1      -2.533  13.134  23.537  0.00  0.00    +0.000 A 
ATOM     26  N   UNL     1      -2.326  11.969  22.871  0.00  0.00    +0.000 N 
ATOM     27  H   UNL     1      -3.024  11.296  22.595  0.00  0.00    +0.000 HD
ENDBRANCH  19  22
ENDBRANCH   3  16
TORSDOF 3
ENDMDL
MODEL 4
REMARK VINA RESULT:      -7.8      6.855      8.708
REMARK  Name = 
REMARK  3 active torsions:
REMARK  status: ('A' for Active; 'I' for Inactive)
REMARK    1  A    between atoms: C_2  and  C_15
REMARK    2  A    between atoms: N_3  and  C_4
REMARK    3  A    between atoms: C_7  and  C_8
REMARK                            x       y       z     vdW  Elec       q    Type
REMARK                         _______ _______ _______ _____ _____    ______ ____
ROOT
ATOM      1  O   UNL     1       4.624   4.378  17.853  0.00  0.00    +0.000 OA
ATOM      2  C   UNL     1       4.707   5.251  16.985  0.00  0.00    +0.000 C 
ATOM      3  N   UNL     1       4.151   6.510  17.051  0.00  0.00    +0.000 N 
ATOM      4  H   UNL     1       4.333   7.134  16.259  0.00  0.00    +0.000 HD
ENDROOT
BRANCH   2   5
ATOM      5  C   UNL     1       5.482   4.983  15.740  0.00  0.00    +0.000 A 
ATOM      6  C   UNL     1       4.804   4.812  14.595  0.00  0.00    +0.000 A 
ATOM      7  C   UNL     1       5.522   4.468  13.401  0.00  0.00    +0.000 A 
ATOM      8  C   UNL     1       6.833   4.719  13.293  0.00  0.00    +0.000 A 
ATOM      9  N   UNL     1       7.561   4.953  14.434  0.00  0.00    +0.000 N 
ATOM     10  C   UNL     1       6.977   4.853  15.689  0.00  0.00    +0.000 A 
ATOM     11  O   UNL     1       7.643   4.632  16.697  0.00  0.00    +0.000 OA
ATOM     12  C   UNL     1       7.414   4.061  12.087  0.00  0.00    +0.000 C 
ATOM     13  C   UNL     1       6.555   2.800  12.146  0.00  0.00    +0.000 C 
ATOM     14  C   UNL     1       5.153   3.339  12.485  0.00  0.00    +0.000 C 
ATOM     15  H   UNL     1       8.563   4.797  14.411  0.00  0.00    +0.000 HD
ENDBRANCH   2   5
BRANCH   3  16
ATOM     16  C   UNL     1       3.288   7.016  18.055  0.00  0.00    +0.000 A 
ATOM     17  C   UNL     1       2.604   8.219  17.934  0.00  0.00    +0.000 A 
ATOM     18  C   UNL     1       1.849   8.716  19.005  0.00  0.00    +0.000 A 
ATOM     19  C   UNL     1       1.765   8.014  20.210  0.00  0.00    +0.000 A 
ATOM     20  C   UNL     1       2.397   6.767  20.298  0.00  0.00    +0.000 A 
ATOM     21  C   UNL     1       3.160   6.276  19.231  0.00  0.00    +0.000 A 
BRANCH  19  22
ATOM     22  C   UNL     1       1.065   8.564  21.364  0.00  0.00    +0.000 A 
ATOM     23  N   UNL     1       1.575   9.250  22.371  0.00  0.00    +0.000 NA
ATOM     24  N   UNL     1       0.547   9.628  23.211  0.00  0.00    +0.000 NA
ATOM     25  C   UNL     1      -0.570   9.184  22.687  0.00  0.00    +0.000 A 
ATOM     26  N   UNL     1      -0.297   8.509  21.541  0.00  0.00    +0.000 N 
ATOM     27  H   UNL     1      -0.964   8.094  20.909  0.00  0.00    +0.000 HD
ENDBRANCH  19  22
ENDBRANCH   3  16
TORSDOF 3
ENDMDL
MODEL 5
REMARK VINA RESULT:      -7.8      6.830      9.591
REMARK  Name = 
REMARK  3 active torsions:
REMARK  status: ('A' for Active; 'I' for Inactive)
REMARK    1  A    between atoms: C_2  and  C_15
REMARK    2  A    between atoms: N_3  and  C_4
REMARK    3  A    between atoms: C_7  and  C_8
REMARK                            x       y       z     vdW  Elec       q    Type
REMARK                         _______ _______ _______ _____ _____    ______ ____
ROOT
ATOM      1  O   UNL     1       1.935   5.407  19.877  0.00  0.00    +0.000 OA
ATOM      2  C   UNL     1       2.742   6.166  19.333  0.00  0.00    +0.000 C 
ATOM      3  N   UNL     1       2.696   7.544  19.357  0.00  0.00    +0.000 N 
ATOM      4  H   UNL     1       3.458   8.036  18.880  0.00  0.00    +0.000 HD
ENDROOT
BRANCH   2   5
ATOM      5  C   UNL     1       3.901   5.600  18.587  0.00  0.00    +0.000 A 
ATOM      6  C   UNL     1       4.379   6.288  17.540  0.00  0.00    +0.000 A 
ATOM      7  C   UNL     1       5.437   5.721  16.754  0.00  0.00    +0.000 A 
ATOM      8  C   UNL     1       6.228   4.764  17.257  0.00  0.00    +0.000 A 
ATOM      9  N   UNL     1       5.807   4.068  18.363  0.00  0.00    +0.000 N 
ATOM     10  C   UNL     1       4.549   4.284  18.909  0.00  0.00    +0.000 A 
ATOM     11  O   UNL     1       3.982   3.431  19.587  0.00  0.00    +0.000 OA
ATOM     12  C   UNL     1       7.084   4.155  16.199  0.00  0.00    +0.000 C 
ATOM     13  C   UNL     1       6.051   4.225  15.077  0.00  0.00    +0.000 C 
ATOM     14  C   UNL     1       5.423   5.619  15.257  0.00  0.00    +0.000 C 
ATOM     15  H   UNL     1       6.199   3.149  18.536  0.00  0.00    +0.000 HD
ENDBRANCH   2   5
BRANCH   3  16
ATOM     16  C   UNL     1       1.671   8.360  19.898  0.00  0.00    +0.000 A 
ATOM     17  C   UNL     1       0.957   9.282  19.145  0.00  0.00    +0.000 A 
ATOM     18  C   UNL     1       0.030  10.134  19.761  0.00  0.00    +0.000 A 
ATOM     19  C   UNL     1      -0.198  10.071  21.137  0.00  0.00    +0.000 A 
ATOM     20  C   UNL     1       0.473   9.088  21.877  0.00  0.00    +0.000 A 
ATOM     21  C   UNL     1       1.407   8.245  21.263  0.00  0.00    +0.000 A 
BRANCH  19  22
ATOM     22  C   UNL     1      -1.086  11.015  21.806  0.00  0.00    +0.000 A 
ATOM     23  N   UNL     1      -1.735  12.035  21.275  0.00  0.00    +0.000 NA
ATOM     24  N   UNL     1      -2.507  12.623  22.256  0.00  0.00    +0.000 NA
ATOM     25  C   UNL     1      -2.330  11.936  23.358  0.00  0.00    +0.000 A 
ATOM     26  N   UNL     1      -1.448  10.929  23.130  0.00  0.00    +0.000 N 
ATOM     27  H   UNL     1      -1.155  10.221  23.784  0.00  0.00    +0.000 HD
ENDBRANCH  19  22
ENDBRANCH   3  16
TORSDOF 3
ENDMDL
MODEL 6
REMARK VINA RESULT:      -7.7      6.812      9.883
REMARK  Name = 
REMARK  3 active torsions:
REMARK  status: ('A' for Active; 'I' for Inactive)
REMARK    1  A    between atoms: C_2  and  C_15
REMARK    2  A    between atoms: N_3  and  C_4
REMARK    3  A    between atoms: C_7  and  C_8
REMARK                            x       y       z     vdW  Elec       q    Type
REMARK                         _______ _______ _______ _____ _____    ______ ____
ROOT
ATOM      1  O   UNL     1       1.686   5.642  20.253  0.00  0.00    +0.000 OA
ATOM      2  C   UNL     1       2.282   6.267  19.371  0.00  0.00    +0.000 C 
ATOM      3  N   UNL     1       2.234   7.630  19.174  0.00  0.00    +0.000 N 
ATOM      4  H   UNL     1       2.809   8.005  18.413  0.00  0.00    +0.000 HD
ENDROOT
BRANCH   2   5
ATOM      5  C   UNL     1       3.161   5.536  18.415  0.00  0.00    +0.000 A 
ATOM      6  C   UNL     1       4.396   6.012  18.199  0.00  0.00    +0.000 A 
ATOM      7  C   UNL     1       5.230   5.375  17.219  0.00  0.00    +0.000 A 
ATOM      8  C   UNL     1       4.994   4.116  16.832  0.00  0.00    +0.000 A 
ATOM      9  N   UNL     1       3.761   3.565  17.080  0.00  0.00    +0.000 N 
ATOM     10  C   UNL     1       2.741   4.317  17.645  0.00  0.00    +0.000 A 
ATOM     11  O   UNL     1       1.558   4.023  17.493  0.00  0.00    +0.000 OA
ATOM     12  C   UNL     1       5.816   3.750  15.643  0.00  0.00    +0.000 C 
ATOM     13  C   UNL     1       5.762   5.117  14.965  0.00  0.00    +0.000 C 
ATOM     14  C   UNL     1       5.968   6.101  16.133  0.00  0.00    +0.000 C 
ATOM     15  H   UNL     1       3.455   2.784  16.509  0.00  0.00    +0.000 HD
ENDBRANCH   2   5
BRANCH   3  16
ATOM     16  C   UNL     1       1.417   8.568  19.856  0.00  0.00    +0.000 A 
ATOM     17  C   UNL     1       0.713   9.574  19.207  0.00  0.00    +0.000 A 
ATOM     18  C   UNL     1       0.008  10.534  19.946  0.00  0.00    +0.000 A 
ATOM     19  C   UNL     1      -0.005  10.498  21.342  0.00  0.00    +0.000 A 
ATOM     20  C   UNL     1       0.647   9.437  21.985  0.00  0.00    +0.000 A 
ATOM     21  C   UNL     1       1.360   8.484  21.247  0.00  0.00    +0.000 A 
BRANCH  19  22
ATOM     22  C   UNL     1      -0.651  11.544  22.125  0.00  0.00    +0.000 A 
ATOM     23  N   UNL     1      -1.598  11.409  23.036  0.00  0.00    +0.000 NA
ATOM     24  N   UNL     1      -1.873  12.651  23.571  0.00  0.00    +0.000 NA
ATOM     25  C   UNL     1      -1.074  13.513  22.991  0.00  0.00    +0.000 A 
ATOM     26  N   UNL     1      -0.300  12.872  22.079  0.00  0.00    +0.000 N 
ATOM     27  H   UNL     1       0.430  13.277  21.514  0.00  0.00    +0.000 HD
ENDBRANCH  19  22
ENDBRANCH   3  16
TORSDOF 3
ENDMDL
MODEL 7
REMARK VINA RESULT:      -7.6      7.034      9.931
REMARK  Name = 
REMARK  3 active torsions:
REMARK  status: ('A' for Active; 'I' for Inactive)
REMARK    1  A    between atoms: C_2  and  C_15
REMARK    2  A    between atoms: N_3  and  C_4
REMARK    3  A    between atoms: C_7  and  C_8
REMARK                            x       y       z     vdW  Elec       q    Type
REMARK                         _______ _______ _______ _____ _____    ______ ____
ROOT
ATOM      1  O   UNL     1       2.277   8.834  17.403  0.00  0.00    +0.000 OA
ATOM      2  C   UNL     1       2.482   7.901  18.184  0.00  0.00    +0.000 C 
ATOM      3  N   UNL     1       1.980   7.793  19.463  0.00  0.00    +0.000 N 
ATOM      4  H   UNL     1       2.219   6.942  19.980  0.00  0.00    +0.000 HD
ENDROOT
BRANCH   2   5
ATOM      5  C   UNL     1       3.327   6.751  17.754  0.00  0.00    +0.000 A 
ATOM      6  C   UNL     1       4.443   7.009  17.056  0.00  0.00    +0.000 A 
ATOM      7  C   UNL     1       5.226   5.915  16.558  0.00  0.00    +0.000 A 
ATOM      8  C   UNL     1       5.125   4.696  17.101  0.00  0.00    +0.000 A 
ATOM      9  N   UNL     1       4.026   4.400  17.870  0.00  0.00    +0.000 N 
ATOM     10  C   UNL     1       2.990   5.312  18.018  0.00  0.00    +0.000 A 
ATOM     11  O   UNL     1       1.851   4.957  18.314  0.00  0.00    +0.000 OA
ATOM     12  C   UNL     1       5.830   3.673  16.277  0.00  0.00    +0.000 C 
ATOM     13  C   UNL     1       5.494   4.281  14.918  0.00  0.00    +0.000 C 
ATOM     14  C   UNL     1       5.706   5.790  15.142  0.00  0.00    +0.000 C 
ATOM     15  H   UNL     1       3.763   3.427  17.988  0.00  0.00    +0.000 HD
ENDBRANCH   2   5
BRANCH   3  16
ATOM     16  C   UNL     1       1.233   8.764  20.177  0.00  0.00    +0.000 A 
ATOM     17  C   UNL     1       0.949   8.658  21.532  0.00  0.00    +0.000 A 
ATOM     18  C   UNL     1       0.116   9.597  22.157  0.00  0.00    +0.000 A 
ATOM     19  C   UNL     1      -0.438  10.656  21.435  0.00  0.00    +0.000 A 
ATOM     20  C   UNL     1      -0.087  10.797  20.086  0.00  0.00    +0.000 A 
ATOM     21  C   UNL     1       0.736   9.853  19.460  0.00  0.00    +0.000 A 
BRANCH  19  22
ATOM     22  C   UNL     1      -1.383  11.583  22.048  0.00  0.00    +0.000 A 
ATOM     23  N   UNL     1      -1.903  12.677  21.521  0.00  0.00    +0.000 NA
ATOM     24  N   UNL     1      -2.795  13.217  22.425  0.00  0.00    +0.000 NA
ATOM     25  C   UNL     1      -2.816  12.430  23.473  0.00  0.00    +0.000 A 
ATOM     26  N   UNL     1      -1.947  11.404  23.288  0.00  0.00    +0.000 N 
ATOM     27  H   UNL     1      -1.785  10.628  23.910  0.00  0.00    +0.000 HD
ENDBRANCH  19  22
ENDBRANCH   3  16
TORSDOF 3
ENDMDL
MODEL 8
REMARK VINA RESULT:      -7.6      7.333     11.305
REMARK  Name = 
REMARK  3 active torsions:
REMARK  status: ('A' for Active; 'I' for Inactive)
REMARK    1  A    between atoms: C_2  and  C_15
REMARK    2  A    between atoms: N_3  and  C_4
REMARK    3  A    between atoms: C_7  and  C_8
REMARK                            x       y       z     vdW  Elec       q    Type
REMARK                         _______ _______ _______ _____ _____    ______ ____
ROOT
ATOM      1  O   UNL     1       2.197   9.638  17.440  0.00  0.00    +0.000 OA
ATOM      2  C   UNL     1       1.735   9.242  18.514  0.00  0.00    +0.000 C 
ATOM      3  N   UNL     1       0.970   9.985  19.386  0.00  0.00    +0.000 N 
ATOM      4  H   UNL     1       0.635   9.505  20.228  0.00  0.00    +0.000 HD
ENDROOT
BRANCH   2   5
ATOM      5  C   UNL     1       1.977   7.837  18.948  0.00  0.00    +0.000 A 
ATOM      6  C   UNL     1       2.269   6.925  18.010  0.00  0.00    +0.000 A 
ATOM      7  C   UNL     1       2.421   5.550  18.393  0.00  0.00    +0.000 A 
ATOM      8  C   UNL     1       2.696   5.219  19.661  0.00  0.00    +0.000 A 
ATOM      9  N   UNL     1       2.465   6.139  20.653  0.00  0.00    +0.000 N 
ATOM     10  C   UNL     1       1.879   7.366  20.370  0.00  0.00    +0.000 A 
ATOM     11  O   UNL     1       1.282   8.012  21.227  0.00  0.00    +0.000 OA
ATOM     12  C   UNL     1       2.564   3.749  19.879  0.00  0.00    +0.000 C 
ATOM     13  C   UNL     1       1.380   3.538  18.938  0.00  0.00    +0.000 C 
ATOM     14  C   UNL     1       1.741   4.399  17.713  0.00  0.00    +0.000 C 
ATOM     15  H   UNL     1       2.332   5.807  21.602  0.00  0.00    +0.000 HD
ENDBRANCH   2   5
BRANCH   3  16
ATOM     16  C   UNL     1       0.657  11.365  19.293  0.00  0.00    +0.000 A 
ATOM     17  C   UNL     1      -0.417  11.852  18.560  0.00  0.00    +0.000 A 
ATOM     18  C   UNL     1      -0.611  13.234  18.420  0.00  0.00    +0.000 A 
ATOM     19  C   UNL     1       0.263  14.145  19.018  0.00  0.00    +0.000 A 
ATOM     20  C   UNL     1       1.300  13.645  19.816  0.00  0.00    +0.000 A 
ATOM     21  C   UNL     1       1.500  12.265  19.946  0.00  0.00    +0.000 A 
BRANCH  19  22
ATOM     22  C   UNL     1       0.132  15.581  18.801  0.00  0.00    +0.000 A 
ATOM     23  N   UNL     1       1.084  16.448  18.511  0.00  0.00    +0.000 NA
ATOM     24  N   UNL     1       0.508  17.689  18.331  0.00  0.00    +0.000 NA
ATOM     25  C   UNL     1      -0.785  17.548  18.495  0.00  0.00    +0.000 A 
ATOM     26  N   UNL     1      -1.066  16.255  18.796  0.00  0.00    +0.000 N 
ATOM     27  H   UNL     1      -1.979  15.850  18.935  0.00  0.00    +0.000 HD
ENDBRANCH  19  22
ENDBRANCH   3  16
TORSDOF 3
ENDMDL
MODEL 9
REMARK VINA RESULT:      -7.5      6.865      9.962
REMARK  Name = 
REMARK  3 active torsions:
REMARK  status: ('A' for Active; 'I' for Inactive)
REMARK    1  A    between atoms: C_2  and  C_15
REMARK    2  A    between atoms: N_3  and  C_4
REMARK    3  A    between atoms: C_7  and  C_8
REMARK                            x       y       z     vdW  Elec       q    Type
REMARK                         _______ _______ _______ _____ _____    ______ ____
ROOT
ATOM      1  O   UNL     1       1.936   6.101  19.987  0.00  0.00    +0.000 OA
ATOM      2  C   UNL     1       2.414   6.563  18.947  0.00  0.00    +0.000 C 
ATOM      3  N   UNL     1       2.255   7.854  18.491  0.00  0.00    +0.000 N 
ATOM      4  H   UNL     1       2.739   8.096  17.620  0.00  0.00    +0.000 HD
ENDROOT
BRANCH   2   5
ATOM      5  C   UNL     1       3.263   5.701  18.078  0.00  0.00    +0.000 A 
ATOM      6  C   UNL     1       4.476   6.153  17.727  0.00  0.00    +0.000 A 
ATOM      7  C   UNL     1       5.276   5.379  16.821  0.00  0.00    +0.000 A 
ATOM      8  C   UNL     1       5.049   4.071  16.652  0.00  0.00    +0.000 A 
ATOM      9  N   UNL     1       3.841   3.550  17.046  0.00  0.00    +0.000 N 
ATOM     10  C   UNL     1       2.833   4.369  17.534  0.00  0.00    +0.000 A 
ATOM     11  O   UNL     1       1.651   4.039  17.490  0.00  0.00    +0.000 OA
ATOM     12  C   UNL     1       5.822   3.530  15.496  0.00  0.00    +0.000 C 
ATOM     13  C   UNL     1       5.706   4.770  14.613  0.00  0.00    +0.000 C 
ATOM     14  C   UNL     1       5.946   5.931  15.597  0.00  0.00    +0.000 C 
ATOM     15  H   UNL     1       3.525   2.684  16.623  0.00  0.00    +0.000 HD
ENDBRANCH   2   5
BRANCH   3  16
ATOM     16  C   UNL     1       1.433   8.867  19.046  0.00  0.00    +0.000 A 
ATOM     17  C   UNL     1       1.249   9.031  20.413  0.00  0.00    +0.000 A 
ATOM     18  C   UNL     1       0.341   9.983  20.896  0.00  0.00    +0.000 A 
ATOM     19  C   UNL     1      -0.392  10.786  20.018  0.00  0.00    +0.000 A 
ATOM     20  C   UNL     1      -0.147  10.663  18.644  0.00  0.00    +0.000 A 
ATOM     21  C   UNL     1       0.753   9.705  18.162  0.00  0.00    +0.000 A 
BRANCH  19  22
ATOM     22  C   UNL     1      -1.411  11.710  20.502  0.00  0.00    +0.000 A 
ATOM     23  N   UNL     1      -2.240  12.449  19.788  0.00  0.00    +0.000 NA
ATOM     24  N   UNL     1      -3.075  13.130  20.650  0.00  0.00    +0.000 NA
ATOM     25  C   UNL     1      -2.752  12.774  21.870  0.00  0.00    +0.000 A 
ATOM     26  N   UNL     1      -1.716  11.898  21.829  0.00  0.00    +0.000 N 
ATOM     27  H   UNL     1      -1.287  11.430  22.611  0.00  0.00    +0.000 HD
ENDBRANCH  19  22
ENDBRANCH   3  16
TORSDOF 3
ENDMDL
