MODEL 1
REMARK VINA RESULT:      -8.4      0.000      0.000
REMARK  Name = 
REMARK  5 active torsions:
REMARK  status: ('A' for Active; 'I' for Inactive)
REMARK    1  A    between atoms: C_1  and  C_2
REMARK    2  A    between atoms: C_9  and  N_10
REMARK    3  A    between atoms: C_11  and  C_13
REMARK    4  A    between atoms: C_13  and  N_14
REMARK    5  A    between atoms: C_23  and  C_24
REMARK                            x       y       z     vdW  Elec       q    Type
REMARK                         _______ _______ _______ _____ _____    ______ ____
ROOT
ATOM      1  N   UNL     1       2.035   7.780  20.673  0.00  0.00    +0.000 N 
ATOM      2  C   UNL     1       1.768   6.423  20.575  0.00  0.00    +0.000 C 
ATOM      3  O   UNL     1       0.672   5.879  20.677  0.00  0.00    +0.000 OA
ATOM      4  H   UNL     1       3.018   8.030  20.726  0.00  0.00    +0.000 HD
ENDROOT
BRANCH   1  13
ATOM      5  C   UNL     1      -3.391  13.498  22.042  0.00  0.00    +0.000 C 
ATOM      6  C   UNL     1      -2.429  12.378  22.363  0.00  0.00    +0.000 C 
ATOM      7  O   UNL     1      -2.327  11.974  23.521  0.00  0.00    +0.000 OA
ATOM      8  N   UNL     1      -1.737  11.871  21.278  0.00  0.00    +0.000 N 
ATOM      9  C   UNL     1      -1.763  12.423  19.911  0.00  0.00    +0.000 C 
ATOM     10  C   UNL     1      -0.914  11.507  19.025  0.00  0.00    +0.000 C 
ATOM     11  C   UNL     1      -0.288  10.604  20.035  0.00  0.00    +0.000 A 
ATOM     12  C   UNL     1       0.660   9.621  19.790  0.00  0.00    +0.000 A 
ATOM     13  C   UNL     1       1.087   8.809  20.843  0.00  0.00    +0.000 A 
ATOM     14  C   UNL     1       0.558   9.020  22.131  0.00  0.00    +0.000 A 
ATOM     15  C   UNL     1      -0.400  10.022  22.367  0.00  0.00    +0.000 A 
ATOM     16  C   UNL     1      -0.809  10.813  21.308  0.00  0.00    +0.000 A 
ENDBRANCH   1  13
BRANCH   2  17
ATOM     17  C   UNL     1       3.015   5.588  20.298  0.00  0.00    +0.000 C 
BRANCH  17  18
ATOM     18  N   UNL     1       3.141   5.236  18.863  0.00  0.00    +0.000 NA
ATOM     19  C   UNL     1       4.198   6.056  18.222  0.00  0.00    +0.000 C 
ATOM     20  C   UNL     1       4.800   5.425  16.986  0.00  0.00    +0.000 A 
ATOM     21  C   UNL     1       5.067   6.154  15.825  0.00  0.00    +0.000 A 
ATOM     22  C   UNL     1       5.692   5.534  14.741  0.00  0.00    +0.000 A 
ATOM     23  C   UNL     1       6.078   4.194  14.822  0.00  0.00    +0.000 A 
ATOM     24  C   UNL     1       5.819   3.461  15.978  0.00  0.00    +0.000 A 
ATOM     25  C   UNL     1       5.162   4.070  17.048  0.00  0.00    +0.000 A 
ATOM     26  C   UNL     1       4.775   3.317  18.290  0.00  0.00    +0.000 C 
ATOM     27  C   UNL     1       3.371   3.756  18.750  0.00  0.00    +0.000 C 
BRANCH  27  28
ATOM     28  C   UNL     1       2.306   3.156  17.802  0.00  0.00    +0.000 C 
ATOM     29  N   UNL     1       2.315   1.798  17.651  0.00  0.00    +0.000 N 
ATOM     30  O   UNL     1       1.465   3.842  17.228  0.00  0.00    +0.000 OA
ATOM     31  H   UNL     1       2.955   1.241  18.202  0.00  0.00    +0.000 HD
ATOM     32  H   UNL     1       1.593   1.353  17.106  0.00  0.00    +0.000 HD
ENDBRANCH  27  28
ENDBRANCH  17  18
ENDBRANCH   2  17
TORSDOF 4
ENDMDL
MODEL 2
REMARK VINA RESULT:      -8.4      0.931      1.618
REMARK  Name = 
REMARK  5 active torsions:
REMARK  status: ('A' for Active; 'I' for Inactive)
REMARK    1  A    between atoms: C_1  and  C_2
REMARK    2  A    between atoms: C_9  and  N_10
REMARK    3  A    between atoms: C_11  and  C_13
REMARK    4  A    between atoms: C_13  and  N_14
REMARK    5  A    between atoms: C_23  and  C_24
REMARK                            x       y       z     vdW  Elec       q    Type
REMARK                         _______ _______ _______ _____ _____    ______ ____
ROOT
ATOM      1  N   UNL     1       2.133   7.739  20.560  0.00  0.00    +0.000 N 
ATOM      2  C   UNL     1       1.852   6.381  20.569  0.00  0.00    +0.000 C 
ATOM      3  O   UNL     1       0.761   5.856  20.774  0.00  0.00    +0.000 OA
ATOM      4  H   UNL     1       3.119   7.981  20.536  0.00  0.00    +0.000 HD
ENDROOT
BRANCH   1  13
ATOM      5  C   UNL     1      -3.071  13.795  21.051  0.00  0.00    +0.000 C 
ATOM      6  C   UNL     1      -2.115  12.823  20.401  0.00  0.00    +0.000 C 
ATOM      7  O   UNL     1      -1.876  12.915  19.197  0.00  0.00    +0.000 OA
ATOM      8  N   UNL     1      -1.554  11.892  21.256  0.00  0.00    +0.000 N 
ATOM      9  C   UNL     1      -1.922  11.697  22.670  0.00  0.00    +0.000 C 
ATOM     10  C   UNL     1      -1.001  10.617  23.244  0.00  0.00    +0.000 C 
ATOM     11  C   UNL     1      -0.309  10.125  22.016  0.00  0.00    +0.000 A 
ATOM     12  C   UNL     1       0.585   9.067  21.939  0.00  0.00    +0.000 A 
ATOM     13  C   UNL     1       1.204   8.787  20.719  0.00  0.00    +0.000 A 
ATOM     14  C   UNL     1       0.890   9.573  19.593  0.00  0.00    +0.000 A 
ATOM     15  C   UNL     1      -0.020  10.640  19.683  0.00  0.00    +0.000 A 
ATOM     16  C   UNL     1      -0.619  10.901  20.903  0.00  0.00    +0.000 A 
ENDBRANCH   1  13
BRANCH   2  17
ATOM     17  C   UNL     1       3.074   5.516  20.272  0.00  0.00    +0.000 C 
BRANCH  17  18
ATOM     18  N   UNL     1       3.187   5.189  18.830  0.00  0.00    +0.000 NA
ATOM     19  C   UNL     1       4.239   6.017  18.194  0.00  0.00    +0.000 C 
ATOM     20  C   UNL     1       4.828   5.407  16.942  0.00  0.00    +0.000 A 
ATOM     21  C   UNL     1       5.087   6.155  15.791  0.00  0.00    +0.000 A 
ATOM     22  C   UNL     1       5.701   5.552  14.691  0.00  0.00    +0.000 A 
ATOM     23  C   UNL     1       6.084   4.211  14.746  0.00  0.00    +0.000 A 
ATOM     24  C   UNL     1       5.835   3.459  15.891  0.00  0.00    +0.000 A 
ATOM     25  C   UNL     1       5.189   4.050  16.977  0.00  0.00    +0.000 A 
ATOM     26  C   UNL     1       4.811   3.277  18.210  0.00  0.00    +0.000 C 
ATOM     27  C   UNL     1       3.413   3.711  18.690  0.00  0.00    +0.000 C 
BRANCH  27  28
ATOM     28  C   UNL     1       2.338   3.129  17.741  0.00  0.00    +0.000 C 
ATOM     29  N   UNL     1       2.323   1.771  17.593  0.00  0.00    +0.000 N 
ATOM     30  O   UNL     1       1.510   3.829  17.166  0.00  0.00    +0.000 OA
ATOM     31  H   UNL     1       2.952   1.203  18.145  0.00  0.00    +0.000 HD
ATOM     32  H   UNL     1       1.593   1.338  17.047  0.00  0.00    +0.000 HD
ENDBRANCH  27  28
ENDBRANCH  17  18
ENDBRANCH   2  17
TORSDOF 4
ENDMDL
MODEL 3
REMARK VINA RESULT:      -8.2      2.421      9.204
REMARK  Name = 
REMARK  5 active torsions:
REMARK  status: ('A' for Active; 'I' for Inactive)
REMARK    1  A    between atoms: C_1  and  C_2
REMARK    2  A    between atoms: C_9  and  N_10
REMARK    3  A    between atoms: C_11  and  C_13
REMARK    4  A    between atoms: C_13  and  N_14
REMARK    5  A    between atoms: C_23  and  C_24
REMARK                            x       y       z     vdW  Elec       q    Type
REMARK                         _______ _______ _______ _____ _____    ______ ____
ROOT
ATOM      1  N   UNL     1       1.574   8.725  19.861  0.00  0.00    +0.000 N 
ATOM      2  C   UNL     1       0.657   9.208  20.781  0.00  0.00    +0.000 C 
ATOM      3  O   UNL     1      -0.021   8.546  21.563  0.00  0.00    +0.000 OA
ATOM      4  H   UNL     1       1.918   9.405  19.189  0.00  0.00    +0.000 HD
ENDROOT
BRANCH   1  13
ATOM      5  C   UNL     1       3.859   1.182  18.486  0.00  0.00    +0.000 C 
ATOM      6  C   UNL     1       3.668   2.657  18.215  0.00  0.00    +0.000 C 
ATOM      7  O   UNL     1       4.023   3.130  17.136  0.00  0.00    +0.000 OA
ATOM      8  N   UNL     1       3.066   3.367  19.238  0.00  0.00    +0.000 N 
ATOM      9  C   UNL     1       2.746   2.837  20.576  0.00  0.00    +0.000 C 
ATOM     10  C   UNL     1       2.026   3.943  21.352  0.00  0.00    +0.000 C 
ATOM     11  C   UNL     1       2.190   5.111  20.439  0.00  0.00    +0.000 A 
ATOM     12  C   UNL     1       1.799   6.418  20.690  0.00  0.00    +0.000 A 
ATOM     13  C   UNL     1       1.958   7.380  19.690  0.00  0.00    +0.000 A 
ATOM     14  C   UNL     1       2.529   7.003  18.459  0.00  0.00    +0.000 A 
ATOM     15  C   UNL     1       2.924   5.676  18.218  0.00  0.00    +0.000 A 
ATOM     16  C   UNL     1       2.754   4.739  19.222  0.00  0.00    +0.000 A 
ENDBRANCH   1  13
BRANCH   2  17
ATOM     17  C   UNL     1       0.544  10.731  20.770  0.00  0.00    +0.000 C 
BRANCH  17  18
ATOM     18  N   UNL     1      -0.145  11.229  19.556  0.00  0.00    +0.000 NA
ATOM     19  C   UNL     1      -0.827  10.113  18.856  0.00  0.00    +0.000 C 
ATOM     20  C   UNL     1      -1.986  10.550  17.988  0.00  0.00    +0.000 A 
ATOM     21  C   UNL     1      -2.206  10.029  16.710  0.00  0.00    +0.000 A 
ATOM     22  C   UNL     1      -3.335  10.416  15.985  0.00  0.00    +0.000 A 
ATOM     23  C   UNL     1      -4.262  11.299  16.542  0.00  0.00    +0.000 A 
ATOM     24  C   UNL     1      -4.054  11.819  17.817  0.00  0.00    +0.000 A 
ATOM     25  C   UNL     1      -2.907  11.462  18.528  0.00  0.00    +0.000 A 
ATOM     26  C   UNL     1      -2.576  12.050  19.871  0.00  0.00    +0.000 C 
ATOM     27  C   UNL     1      -1.066  12.348  19.952  0.00  0.00    +0.000 C 
BRANCH  27  28
ATOM     28  C   UNL     1      -0.738  13.592  19.093  0.00  0.00    +0.000 C 
ATOM     29  N   UNL     1      -1.255  14.783  19.517  0.00  0.00    +0.000 N 
ATOM     30  O   UNL     1      -0.027  13.541  18.094  0.00  0.00    +0.000 OA
ATOM     31  H   UNL     1      -1.763  14.822  20.391  0.00  0.00    +0.000 HD
ATOM     32  H   UNL     1      -1.006  15.633  19.035  0.00  0.00    +0.000 HD
ENDBRANCH  27  28
ENDBRANCH  17  18
ENDBRANCH   2  17
TORSDOF 4
ENDMDL
MODEL 4
REMARK VINA RESULT:      -8.2      7.179     10.590
REMARK  Name = 
REMARK  5 active torsions:
REMARK  status: ('A' for Active; 'I' for Inactive)
REMARK    1  A    between atoms: C_1  and  C_2
REMARK    2  A    between atoms: C_9  and  N_10
REMARK    3  A    between atoms: C_11  and  C_13
REMARK    4  A    between atoms: C_13  and  N_14
REMARK    5  A    between atoms: C_23  and  C_24
REMARK                            x       y       z     vdW  Elec       q    Type
REMARK                         _______ _______ _______ _____ _____    ______ ____
ROOT
ATOM      1  N   UNL     1       8.640   7.887  18.681  0.00  0.00    +0.000 N 
ATOM      2  C   UNL     1       8.520   9.231  18.364  0.00  0.00    +0.000 C 
ATOM      3  O   UNL     1       7.588   9.768  17.770  0.00  0.00    +0.000 OA
ATOM      4  H   UNL     1       9.550   7.599  19.027  0.00  0.00    +0.000 HD
ENDROOT
BRANCH   1  13
ATOM      5  C   UNL     1       3.257   2.045  17.726  0.00  0.00    +0.000 C 
ATOM      6  C   UNL     1       4.234   2.942  18.452  0.00  0.00    +0.000 C 
ATOM      7  O   UNL     1       4.453   2.762  19.649  0.00  0.00    +0.000 OA
ATOM      8  N   UNL     1       4.836   3.909  17.667  0.00  0.00    +0.000 N 
ATOM      9  C   UNL     1       4.494   4.208  16.264  0.00  0.00    +0.000 C 
ATOM     10  C   UNL     1       5.456   5.294  15.775  0.00  0.00    +0.000 C 
ATOM     11  C   UNL     1       6.145   5.682  17.041  0.00  0.00    +0.000 A 
ATOM     12  C   UNL     1       7.070   6.703  17.199  0.00  0.00    +0.000 A 
ATOM     13  C   UNL     1       7.680   6.882  18.442  0.00  0.00    +0.000 A 
ATOM     14  C   UNL     1       7.327   6.034  19.510  0.00  0.00    +0.000 A 
ATOM     15  C   UNL     1       6.385   5.005  19.337  0.00  0.00    +0.000 A 
ATOM     16  C   UNL     1       5.796   4.844  18.096  0.00  0.00    +0.000 A 
ENDBRANCH   1  13
BRANCH   2  17
ATOM     17  C   UNL     1       9.701  10.067  18.848  0.00  0.00    +0.000 C 
BRANCH  17  18
ATOM     18  N   UNL     1       9.280  11.411  19.310  0.00  0.00    +0.000 NA
ATOM     19  C   UNL     1       9.387  11.506  20.786  0.00  0.00    +0.000 C 
ATOM     20  C   UNL     1       9.545  12.919  21.301  0.00  0.00    +0.000 A 
ATOM     21  C   UNL     1       8.857  13.393  22.421  0.00  0.00    +0.000 A 
ATOM     22  C   UNL     1       9.099  14.684  22.894  0.00  0.00    +0.000 A 
ATOM     23  C   UNL     1      10.049  15.496  22.270  0.00  0.00    +0.000 A 
ATOM     24  C   UNL     1      10.743  15.031  21.156  0.00  0.00    +0.000 A 
ATOM     25  C   UNL     1      10.475  13.754  20.660  0.00  0.00    +0.000 A 
ATOM     26  C   UNL     1      11.123  13.221  19.413  0.00  0.00    +0.000 C 
ATOM     27  C   UNL     1      10.086  12.445  18.577  0.00  0.00    +0.000 C 
BRANCH  27  28
ATOM     28  C   UNL     1       9.119  13.445  17.899  0.00  0.00    +0.000 C 
ATOM     29  N   UNL     1       7.996  12.918  17.327  0.00  0.00    +0.000 N 
ATOM     30  O   UNL     1       9.314  14.656  17.890  0.00  0.00    +0.000 OA
ATOM     31  H   UNL     1       7.806  11.929  17.422  0.00  0.00    +0.000 HD
ATOM     32  H   UNL     1       7.298  13.535  16.941  0.00  0.00    +0.000 HD
ENDBRANCH  27  28
ENDBRANCH  17  18
ENDBRANCH   2  17
TORSDOF 4
ENDMDL
MODEL 5
REMARK VINA RESULT:      -8.2      1.218      1.234
REMARK  Name = 
REMARK  5 active torsions:
REMARK  status: ('A' for Active; 'I' for Inactive)
REMARK    1  A    between atoms: C_1  and  C_2
REMARK    2  A    between atoms: C_9  and  N_10
REMARK    3  A    between atoms: C_11  and  C_13
REMARK    4  A    between atoms: C_13  and  N_14
REMARK    5  A    between atoms: C_23  and  C_24
REMARK                            x       y       z     vdW  Elec       q    Type
REMARK                         _______ _______ _______ _____ _____    ______ ____
ROOT
ATOM      1  N   UNL     1       1.510   7.989  21.231  0.00  0.00    +0.000 N 
ATOM      2  C   UNL     1       1.947   7.579  19.981  0.00  0.00    +0.000 C 
ATOM      3  O   UNL     1       1.774   8.161  18.913  0.00  0.00    +0.000 OA
ATOM      4  H   UNL     1       1.603   7.302  21.973  0.00  0.00    +0.000 HD
ENDROOT
BRANCH   1  13
ATOM      5  C   UNL     1      -2.573  14.590  23.170  0.00  0.00    +0.000 C 
ATOM      6  C   UNL     1      -2.161  13.137  23.215  0.00  0.00    +0.000 C 
ATOM      7  O   UNL     1      -2.755  12.358  23.960  0.00  0.00    +0.000 OA
ATOM      8  N   UNL     1      -1.126  12.794  22.364  0.00  0.00    +0.000 N 
ATOM      9  C   UNL     1      -0.332  13.739  21.558  0.00  0.00    +0.000 C 
ATOM     10  C   UNL     1       0.649  12.918  20.716  0.00  0.00    +0.000 C 
ATOM     11  C   UNL     1       0.469  11.552  21.288  0.00  0.00    +0.000 A 
ATOM     12  C   UNL     1       1.189  10.414  20.952  0.00  0.00    +0.000 A 
ATOM     13  C   UNL     1       0.839   9.192  21.530  0.00  0.00    +0.000 A 
ATOM     14  C   UNL     1      -0.224   9.148  22.452  0.00  0.00    +0.000 A 
ATOM     15  C   UNL     1      -0.944  10.308  22.787  0.00  0.00    +0.000 A 
ATOM     16  C   UNL     1      -0.581  11.508  22.200  0.00  0.00    +0.000 A 
ENDBRANCH   1  13
BRANCH   2  17
ATOM     17  C   UNL     1       2.727   6.268  20.021  0.00  0.00    +0.000 C 
BRANCH  17  18
ATOM     18  N   UNL     1       2.940   5.706  18.666  0.00  0.00    +0.000 NA
ATOM     19  C   UNL     1       4.071   6.392  17.994  0.00  0.00    +0.000 C 
ATOM     20  C   UNL     1       4.733   5.570  16.912  0.00  0.00    +0.000 A 
ATOM     21  C   UNL     1       5.110   6.112  15.681  0.00  0.00    +0.000 A 
ATOM     22  C   UNL     1       5.785   5.322  14.748  0.00  0.00    +0.000 A 
ATOM     23  C   UNL     1       6.111   3.999  15.051  0.00  0.00    +0.000 A 
ATOM     24  C   UNL     1       5.744   3.451  16.277  0.00  0.00    +0.000 A 
ATOM     25  C   UNL     1       5.037   4.229  17.196  0.00  0.00    +0.000 A 
ATOM     26  C   UNL     1       4.535   3.678  18.501  0.00  0.00    +0.000 C 
ATOM     27  C   UNL     1       3.120   4.220  18.786  0.00  0.00    +0.000 C 
BRANCH  27  28
ATOM     28  C   UNL     1       2.102   3.516  17.857  0.00  0.00    +0.000 C 
ATOM     29  N   UNL     1       2.175   2.154  17.787  0.00  0.00    +0.000 N 
ATOM     30  O   UNL     1       1.243   4.128  17.228  0.00  0.00    +0.000 OA
ATOM     31  H   UNL     1       2.828   1.660  18.381  0.00  0.00    +0.000 HD
ATOM     32  H   UNL     1       1.484   1.645  17.257  0.00  0.00    +0.000 HD
ENDBRANCH  27  28
ENDBRANCH  17  18
ENDBRANCH   2  17
TORSDOF 4
ENDMDL
MODEL 6
REMARK VINA RESULT:      -8.1      2.686      3.875
REMARK  Name = 
REMARK  5 active torsions:
REMARK  status: ('A' for Active; 'I' for Inactive)
REMARK    1  A    between atoms: C_1  and  C_2
REMARK    2  A    between atoms: C_9  and  N_10
REMARK    3  A    between atoms: C_11  and  C_13
REMARK    4  A    between atoms: C_13  and  N_14
REMARK    5  A    between atoms: C_23  and  C_24
REMARK                            x       y       z     vdW  Elec       q    Type
REMARK                         _______ _______ _______ _____ _____    ______ ____
ROOT
ATOM      1  N   UNL     1       1.006   9.405  17.665  0.00  0.00    +0.000 N 
ATOM      2  C   UNL     1       1.843   8.681  18.499  0.00  0.00    +0.000 C 
ATOM      3  O   UNL     1       1.734   8.544  19.715  0.00  0.00    +0.000 OA
ATOM      4  H   UNL     1       1.343   9.539  16.717  0.00  0.00    +0.000 HD
ENDROOT
BRANCH   1  13
ATOM      5  C   UNL     1      -5.908  12.998  19.481  0.00  0.00    +0.000 C 
ATOM      6  C   UNL     1      -4.971  12.041  18.780  0.00  0.00    +0.000 C 
ATOM      7  O   UNL     1      -5.403  11.303  17.895  0.00  0.00    +0.000 OA
ATOM      8  N   UNL     1      -3.654  12.099  19.198  0.00  0.00    +0.000 N 
ATOM      9  C   UNL     1      -3.151  12.892  20.335  0.00  0.00    +0.000 C 
ATOM     10  C   UNL     1      -1.631  12.713  20.387  0.00  0.00    +0.000 C 
ATOM     11  C   UNL     1      -1.418  11.636  19.376  0.00  0.00    +0.000 A 
ATOM     12  C   UNL     1      -0.216  11.012  19.074  0.00  0.00    +0.000 A 
ATOM     13  C   UNL     1      -0.177  10.072  18.042  0.00  0.00    +0.000 A 
ATOM     14  C   UNL     1      -1.362   9.769  17.344  0.00  0.00    +0.000 A 
ATOM     15  C   UNL     1      -2.575  10.406  17.662  0.00  0.00    +0.000 A 
ATOM     16  C   UNL     1      -2.589  11.335  18.687  0.00  0.00    +0.000 A 
ENDBRANCH   1  13
BRANCH   2  17
ATOM     17  C   UNL     1       2.988   8.000  17.753  0.00  0.00    +0.000 C 
BRANCH  17  18
ATOM     18  N   UNL     1       3.340   6.690  18.349  0.00  0.00    +0.000 NA
ATOM     19  C   UNL     1       2.157   5.795  18.364  0.00  0.00    +0.000 C 
ATOM     20  C   UNL     1       2.500   4.323  18.397  0.00  0.00    +0.000 A 
ATOM     21  C   UNL     1       1.826   3.412  19.213  0.00  0.00    +0.000 A 
ATOM     22  C   UNL     1       2.138   2.052  19.146  0.00  0.00    +0.000 A 
ATOM     23  C   UNL     1       3.101   1.594  18.246  0.00  0.00    +0.000 A 
ATOM     24  C   UNL     1       3.775   2.494  17.425  0.00  0.00    +0.000 A 
ATOM     25  C   UNL     1       3.491   3.857  17.517  0.00  0.00    +0.000 A 
ATOM     26  C   UNL     1       4.239   4.892  16.724  0.00  0.00    +0.000 C 
ATOM     27  C   UNL     1       4.517   6.125  17.606  0.00  0.00    +0.000 C 
BRANCH  27  28
ATOM     28  C   UNL     1       5.635   5.791  18.622  0.00  0.00    +0.000 C 
ATOM     29  N   UNL     1       6.922   5.963  18.195  0.00  0.00    +0.000 N 
ATOM     30  O   UNL     1       5.403   5.419  19.768  0.00  0.00    +0.000 OA
ATOM     31  H   UNL     1       7.093   6.356  17.279  0.00  0.00    +0.000 HD
ATOM     32  H   UNL     1       7.683   5.833  18.844  0.00  0.00    +0.000 HD
ENDBRANCH  27  28
ENDBRANCH  17  18
ENDBRANCH   2  17
TORSDOF 4
ENDMDL
MODEL 7
REMARK VINA RESULT:      -8.1      2.460      3.605
REMARK  Name = 
REMARK  5 active torsions:
REMARK  status: ('A' for Active; 'I' for Inactive)
REMARK    1  A    between atoms: C_1  and  C_2
REMARK    2  A    between atoms: C_9  and  N_10
REMARK    3  A    between atoms: C_11  and  C_13
REMARK    4  A    between atoms: C_13  and  N_14
REMARK    5  A    between atoms: C_23  and  C_24
REMARK                            x       y       z     vdW  Elec       q    Type
REMARK                         _______ _______ _______ _____ _____    ______ ____
ROOT
ATOM      1  N   UNL     1       1.075   9.432  17.715  0.00  0.00    +0.000 N 
ATOM      2  C   UNL     1       1.908   8.666  18.516  0.00  0.00    +0.000 C 
ATOM      3  O   UNL     1       1.815   8.503  19.730  0.00  0.00    +0.000 OA
ATOM      4  H   UNL     1       1.400   9.582  16.764  0.00  0.00    +0.000 HD
ENDROOT
BRANCH   1  13
ATOM      5  C   UNL     1      -5.271  13.513  20.375  0.00  0.00    +0.000 C 
ATOM      6  C   UNL     1      -3.823  13.094  20.268  0.00  0.00    +0.000 C 
ATOM      7  O   UNL     1      -2.984  13.604  21.009  0.00  0.00    +0.000 OA
ATOM      8  N   UNL     1      -3.565  12.118  19.322  0.00  0.00    +0.000 N 
ATOM      9  C   UNL     1      -4.539  11.587  18.351  0.00  0.00    +0.000 C 
ATOM     10  C   UNL     1      -3.843  10.480  17.555  0.00  0.00    +0.000 C 
ATOM     11  C   UNL     1      -2.429  10.623  18.010  0.00  0.00    +0.000 A 
ATOM     12  C   UNL     1      -1.333   9.917  17.536  0.00  0.00    +0.000 A 
ATOM     13  C   UNL     1      -0.084  10.119  18.129  0.00  0.00    +0.000 A 
ATOM     14  C   UNL     1       0.034  11.048  19.180  0.00  0.00    +0.000 A 
ATOM     15  C   UNL     1      -1.084  11.760  19.650  0.00  0.00    +0.000 A 
ATOM     16  C   UNL     1      -2.311  11.541  19.049  0.00  0.00    +0.000 A 
ENDBRANCH   1  13
BRANCH   2  17
ATOM     17  C   UNL     1       3.022   7.977  17.733  0.00  0.00    +0.000 C 
BRANCH  17  18
ATOM     18  N   UNL     1       3.394   6.671  18.328  0.00  0.00    +0.000 NA
ATOM     19  C   UNL     1       2.219   5.767  18.364  0.00  0.00    +0.000 C 
ATOM     20  C   UNL     1       2.575   4.298  18.396  0.00  0.00    +0.000 A 
ATOM     21  C   UNL     1       1.921   3.384  19.226  0.00  0.00    +0.000 A 
ATOM     22  C   UNL     1       2.242   2.027  19.159  0.00  0.00    +0.000 A 
ATOM     23  C   UNL     1       3.195   1.573  18.244  0.00  0.00    +0.000 A 
ATOM     24  C   UNL     1       3.848   2.476  17.410  0.00  0.00    +0.000 A 
ATOM     25  C   UNL     1       3.554   3.837  17.502  0.00  0.00    +0.000 A 
ATOM     26  C   UNL     1       4.282   4.876  16.694  0.00  0.00    +0.000 C 
ATOM     27  C   UNL     1       4.563   6.114  17.568  0.00  0.00    +0.000 C 
BRANCH  27  28
ATOM     28  C   UNL     1       5.701   5.792  18.567  0.00  0.00    +0.000 C 
ATOM     29  N   UNL     1       6.978   5.992  18.126  0.00  0.00    +0.000 N 
ATOM     30  O   UNL     1       5.489   5.406  19.713  0.00  0.00    +0.000 OA
ATOM     31  H   UNL     1       7.131   6.397  17.212  0.00  0.00    +0.000 HD
ATOM     32  H   UNL     1       7.749   5.871  18.765  0.00  0.00    +0.000 HD
ENDBRANCH  27  28
ENDBRANCH  17  18
ENDBRANCH   2  17
TORSDOF 4
ENDMDL
MODEL 8
REMARK VINA RESULT:      -8.0      2.488      9.602
REMARK  Name = 
REMARK  5 active torsions:
REMARK  status: ('A' for Active; 'I' for Inactive)
REMARK    1  A    between atoms: C_1  and  C_2
REMARK    2  A    between atoms: C_9  and  N_10
REMARK    3  A    between atoms: C_11  and  C_13
REMARK    4  A    between atoms: C_13  and  N_14
REMARK    5  A    between atoms: C_23  and  C_24
REMARK                            x       y       z     vdW  Elec       q    Type
REMARK                         _______ _______ _______ _____ _____    ______ ____
ROOT
ATOM      1  N   UNL     1       1.818   8.866  19.524  0.00  0.00    +0.000 N 
ATOM      2  C   UNL     1       1.747   9.787  18.490  0.00  0.00    +0.000 C 
ATOM      3  O   UNL     1       2.000   9.585  17.306  0.00  0.00    +0.000 OA
ATOM      4  H   UNL     1       1.731   9.252  20.460  0.00  0.00    +0.000 HD
ENDROOT
BRANCH   1  13
ATOM      5  C   UNL     1       3.764   1.179  18.463  0.00  0.00    +0.000 C 
ATOM      6  C   UNL     1       3.715   2.661  18.174  0.00  0.00    +0.000 C 
ATOM      7  O   UNL     1       4.256   3.104  17.162  0.00  0.00    +0.000 OA
ATOM      8  N   UNL     1       3.019   3.416  19.102  0.00  0.00    +0.000 N 
ATOM      9  C   UNL     1       2.471   2.915  20.375  0.00  0.00    +0.000 C 
ATOM     10  C   UNL     1       1.721   4.071  21.043  0.00  0.00    +0.000 C 
ATOM     11  C   UNL     1       2.097   5.221  20.169  0.00  0.00    +0.000 A 
ATOM     12  C   UNL     1       1.763   6.553  20.366  0.00  0.00    +0.000 A 
ATOM     13  C   UNL     1       2.131   7.497  19.405  0.00  0.00    +0.000 A 
ATOM     14  C   UNL     1       2.849   7.076  18.269  0.00  0.00    +0.000 A 
ATOM     15  C   UNL     1       3.185   5.724  18.082  0.00  0.00    +0.000 A 
ATOM     16  C   UNL     1       2.807   4.806  19.046  0.00  0.00    +0.000 A 
ENDBRANCH   1  13
BRANCH   2  17
ATOM     17  C   UNL     1       1.285  11.167  18.950  0.00  0.00    +0.000 C 
BRANCH  17  18
ATOM     18  N   UNL     1      -0.066  11.127  19.559  0.00  0.00    +0.000 NA
ATOM     19  C   UNL     1       0.013  11.427  21.009  0.00  0.00    +0.000 C 
ATOM     20  C   UNL     1      -1.271  11.969  21.596  0.00  0.00    +0.000 A 
ATOM     21  C   UNL     1      -1.770  11.547  22.831  0.00  0.00    +0.000 A 
ATOM     22  C   UNL     1      -2.922  12.138  23.356  0.00  0.00    +0.000 A 
ATOM     23  C   UNL     1      -3.562  13.169  22.665  0.00  0.00    +0.000 A 
ATOM     24  C   UNL     1      -3.068  13.599  21.436  0.00  0.00    +0.000 A 
ATOM     25  C   UNL     1      -1.938  12.985  20.894  0.00  0.00    +0.000 A 
ATOM     26  C   UNL     1      -1.403  13.339  19.534  0.00  0.00    +0.000 C 
ATOM     27  C   UNL     1      -0.963  12.059  18.797  0.00  0.00    +0.000 C 
BRANCH  27  28
ATOM     28  C   UNL     1      -2.215  11.277  18.331  0.00  0.00    +0.000 C 
ATOM     29  N   UNL     1      -3.206  12.005  17.735  0.00  0.00    +0.000 N 
ATOM     30  O   UNL     1      -2.321  10.060  18.451  0.00  0.00    +0.000 OA
ATOM     31  H   UNL     1      -3.063  12.991  17.563  0.00  0.00    +0.000 HD
ATOM     32  H   UNL     1      -4.006  11.531  17.345  0.00  0.00    +0.000 HD
ENDBRANCH  27  28
ENDBRANCH  17  18
ENDBRANCH   2  17
TORSDOF 4
ENDMDL
MODEL 9
REMARK VINA RESULT:      -8.0      2.042      2.873
REMARK  Name = 
REMARK  5 active torsions:
REMARK  status: ('A' for Active; 'I' for Inactive)
REMARK    1  A    between atoms: C_1  and  C_2
REMARK    2  A    between atoms: C_9  and  N_10
REMARK    3  A    between atoms: C_11  and  C_13
REMARK    4  A    between atoms: C_13  and  N_14
REMARK    5  A    between atoms: C_23  and  C_24
REMARK                            x       y       z     vdW  Elec       q    Type
REMARK                         _______ _______ _______ _____ _____    ______ ____
ROOT
ATOM      1  N   UNL     1       2.774   5.994  20.279  0.00  0.00    +0.000 N 
ATOM      2  C   UNL     1       2.542   4.854  19.524  0.00  0.00    +0.000 C 
ATOM      3  O   UNL     1       1.635   4.677  18.716  0.00  0.00    +0.000 OA
ATOM      4  H   UNL     1       3.470   5.899  21.011  0.00  0.00    +0.000 HD
ENDROOT
BRANCH   1  13
ATOM      5  C   UNL     1      -1.518  12.746  20.287  0.00  0.00    +0.000 C 
ATOM      6  C   UNL     1      -0.934  11.460  20.824  0.00  0.00    +0.000 C 
ATOM      7  O   UNL     1      -1.238  11.076  21.953  0.00  0.00    +0.000 OA
ATOM      8  N   UNL     1      -0.091  10.791  19.955  0.00  0.00    +0.000 N 
ATOM      9  C   UNL     1       0.372  11.299  18.651  0.00  0.00    +0.000 C 
ATOM     10  C   UNL     1       1.223  10.204  18.003  0.00  0.00    +0.000 C 
ATOM     11  C   UNL     1       1.349   9.219  19.117  0.00  0.00    +0.000 A 
ATOM     12  C   UNL     1       2.103   8.055  19.110  0.00  0.00    +0.000 A 
ATOM     13  C   UNL     1       2.049   7.201  20.214  0.00  0.00    +0.000 A 
ATOM     14  C   UNL     1       1.243   7.552  21.314  0.00  0.00    +0.000 A 
ATOM     15  C   UNL     1       0.486   8.736  21.310  0.00  0.00    +0.000 A 
ATOM     16  C   UNL     1       0.553   9.566  20.205  0.00  0.00    +0.000 A 
ENDBRANCH   1  13
BRANCH   2  17
ATOM     17  C   UNL     1       3.573   3.755  19.771  0.00  0.00    +0.000 C 
BRANCH  17  18
ATOM     18  N   UNL     1       4.704   3.828  18.815  0.00  0.00    +0.000 NA
ATOM     19  C   UNL     1       4.256   3.440  17.456  0.00  0.00    +0.000 C 
ATOM     20  C   UNL     1       5.109   4.005  16.343  0.00  0.00    +0.000 A 
ATOM     21  C   UNL     1       5.499   3.248  15.236  0.00  0.00    +0.000 A 
ATOM     22  C   UNL     1       6.226   3.845  14.203  0.00  0.00    +0.000 A 
ATOM     23  C   UNL     1       6.540   5.204  14.258  0.00  0.00    +0.000 A 
ATOM     24  C   UNL     1       6.151   5.968  15.355  0.00  0.00    +0.000 A 
ATOM     25  C   UNL     1       5.458   5.364  16.405  0.00  0.00    +0.000 A 
ATOM     26  C   UNL     1       5.083   6.107  17.656  0.00  0.00    +0.000 C 
ATOM     27  C   UNL     1       5.303   5.204  18.885  0.00  0.00    +0.000 C 
BRANCH  27  28
ATOM     28  C   UNL     1       6.820   5.074  19.165  0.00  0.00    +0.000 C 
ATOM     29  N   UNL     1       7.547   4.342  18.271  0.00  0.00    +0.000 N 
ATOM     30  O   UNL     1       7.368   5.619  20.118  0.00  0.00    +0.000 OA
ATOM     31  H   UNL     1       7.095   3.977  17.443  0.00  0.00    +0.000 HD
ATOM     32  H   UNL     1       8.550   4.293  18.367  0.00  0.00    +0.000 HD
ENDBRANCH  27  28
ENDBRANCH  17  18
ENDBRANCH   2  17
TORSDOF 4
ENDMDL
