MODEL 1
REMARK VINA RESULT:      -8.0      0.000      0.000
REMARK  Name = 
REMARK  6 active torsions:
REMARK  status: ('A' for Active; 'I' for Inactive)
REMARK    1  A    between atoms: C_1  and  C_2
REMARK    2  A    between atoms: C_5  and  C_6
REMARK    3  A    between atoms: N_8  and  C_9
REMARK    4  A    between atoms: C_12  and  N_13
REMARK    5  A    between atoms: C_14  and  C_16
REMARK    6  A    between atoms: C_24  and  C_25
REMARK                            x       y       z     vdW  Elec       q    Type
REMARK                         _______ _______ _______ _____ _____    ______ ____
ROOT
ATOM      1  C   UNL     1       0.091   9.993  20.530  0.00  0.00    +0.000 A 
ATOM      2  C   UNL     1       0.995   9.117  21.134  0.00  0.00    +0.000 A 
ATOM      3  C   UNL     1       1.841   8.302  20.384  0.00  0.00    +0.000 A 
ATOM      4  C   UNL     1       1.804   8.299  18.996  0.00  0.00    +0.000 A 
ATOM      5  C   UNL     1       0.862   9.125  18.373  0.00  0.00    +0.000 A 
ATOM      6  C   UNL     1       0.003   9.981  19.124  0.00  0.00    +0.000 A 
ENDROOT
BRANCH   1   9
ATOM      7  C   UNL     1      -0.288  12.094  21.818  0.00  0.00    +0.000 C 
ATOM      8  O   UNL     1       0.790  12.636  21.595  0.00  0.00    +0.000 OA
ATOM      9  N   UNL     1      -0.706  10.862  21.326  0.00  0.00    +0.000 N 
ATOM     10  H   UNL     1      -1.697  10.652  21.399  0.00  0.00    +0.000 HD
BRANCH   7  15
ATOM     11  C   UNL     1      -3.630  15.337  25.133  0.00  0.00    +0.000 C 
ATOM     12  C   UNL     1      -2.830  14.442  24.238  0.00  0.00    +0.000 A 
ATOM     13  C   UNL     1      -3.265  13.157  23.912  0.00  0.00    +0.000 A 
ATOM     14  C   UNL     1      -2.467  12.354  23.091  0.00  0.00    +0.000 A 
ATOM     15  C   UNL     1      -1.256  12.860  22.626  0.00  0.00    +0.000 A 
ATOM     16  C   UNL     1      -0.896  14.146  23.011  0.00  0.00    +0.000 A 
ATOM     17  N   UNL     1      -1.659  14.948  23.790  0.00  0.00    +0.000 NA
ENDBRANCH   7  15
ENDBRANCH   1   9
BRANCH   4  18
ATOM     18  N   UNL     1       2.685   7.518  18.202  0.00  0.00    +0.000 N 
ATOM     19  C   UNL     1       2.832   6.137  18.296  0.00  0.00    +0.000 C 
ATOM     20  O   UNL     1       2.188   5.395  19.031  0.00  0.00    +0.000 OA
ATOM     21  H   UNL     1       3.236   8.013  17.517  0.00  0.00    +0.000 HD
BRANCH  19  22
ATOM     22  C   UNL     1       3.853   5.475  17.438  0.00  0.00    +0.000 A 
ATOM     23  C   UNL     1       3.955   4.089  17.273  0.00  0.00    +0.000 A 
ATOM     24  C   UNL     1       4.884   3.566  16.364  0.00  0.00    +0.000 A 
ATOM     25  C   UNL     1       5.698   4.425  15.626  0.00  0.00    +0.000 A 
ATOM     26  F   UNL     1       6.563   3.916  14.740  0.00  0.00    +0.000 F 
ATOM     27  C   UNL     1       5.612   5.799  15.781  0.00  0.00    +0.000 A 
ATOM     28  C   UNL     1       4.692   6.323  16.686  0.00  0.00    +0.000 A 
ENDBRANCH  19  22
ENDBRANCH   4  18
BRANCH   6  29
ATOM     29  C   UNL     1      -0.933  10.875  18.352  0.00  0.00    +0.000 C 
ATOM     30  F   UNL     1      -2.162  11.030  18.925  0.00  0.00    +0.000 F 
ATOM     31  F   UNL     1      -0.439  12.135  18.195  0.00  0.00    +0.000 F 
ATOM     32  F   UNL     1      -1.175  10.414  17.093  0.00  0.00    +0.000 F 
ENDBRANCH   6  29
TORSDOF 5
ENDMDL
MODEL 2
REMARK VINA RESULT:      -7.9      0.735      1.010
REMARK  Name = 
REMARK  6 active torsions:
REMARK  status: ('A' for Active; 'I' for Inactive)
REMARK    1  A    between atoms: C_1  and  C_2
REMARK    2  A    between atoms: C_5  and  C_6
REMARK    3  A    between atoms: N_8  and  C_9
REMARK    4  A    between atoms: C_12  and  N_13
REMARK    5  A    between atoms: C_14  and  C_16
REMARK    6  A    between atoms: C_24  and  C_25
REMARK                            x       y       z     vdW  Elec       q    Type
REMARK                         _______ _______ _______ _____ _____    ______ ____
ROOT
ATOM      1  C   UNL     1      -0.077  10.492  20.356  0.00  0.00    +0.000 A 
ATOM      2  C   UNL     1       0.913   9.738  20.990  0.00  0.00    +0.000 A 
ATOM      3  C   UNL     1       1.736   8.864  20.281  0.00  0.00    +0.000 A 
ATOM      4  C   UNL     1       1.591   8.679  18.912  0.00  0.00    +0.000 A 
ATOM      5  C   UNL     1       0.564   9.379  18.271  0.00  0.00    +0.000 A 
ATOM      6  C   UNL     1      -0.275  10.293  18.977  0.00  0.00    +0.000 A 
ENDROOT
BRANCH   1   9
ATOM      7  C   UNL     1      -0.980  11.427  22.484  0.00  0.00    +0.000 C 
ATOM      8  O   UNL     1      -0.412  10.671  23.266  0.00  0.00    +0.000 OA
ATOM      9  N   UNL     1      -0.850  11.427  21.100  0.00  0.00    +0.000 N 
ATOM     10  H   UNL     1      -1.190  12.249  20.608  0.00  0.00    +0.000 HD
BRANCH   7  15
ATOM     11  C   UNL     1      -3.808  15.730  24.967  0.00  0.00    +0.000 C 
ATOM     12  C   UNL     1      -3.149  14.568  24.292  0.00  0.00    +0.000 A 
ATOM     13  C   UNL     1      -3.800  13.342  24.146  0.00  0.00    +0.000 A 
ATOM     14  C   UNL     1      -3.129  12.282  23.528  0.00  0.00    +0.000 A 
ATOM     15  C   UNL     1      -1.825  12.480  23.082  0.00  0.00    +0.000 A 
ATOM     16  C   UNL     1      -1.249  13.729  23.281  0.00  0.00    +0.000 A 
ATOM     17  N   UNL     1      -1.885  14.774  23.860  0.00  0.00    +0.000 NA
ENDBRANCH   7  15
ENDBRANCH   1   9
BRANCH   4  18
ATOM     18  N   UNL     1       2.444   7.834  18.154  0.00  0.00    +0.000 N 
ATOM     19  C   UNL     1       2.735   6.509  18.462  0.00  0.00    +0.000 C 
ATOM     20  O   UNL     1       2.259   5.866  19.394  0.00  0.00    +0.000 OA
ATOM     21  H   UNL     1       2.858   8.236  17.326  0.00  0.00    +0.000 HD
BRANCH  19  22
ATOM     22  C   UNL     1       3.708   5.780  17.602  0.00  0.00    +0.000 A 
ATOM     23  C   UNL     1       3.729   4.388  17.453  0.00  0.00    +0.000 A 
ATOM     24  C   UNL     1       4.617   3.803  16.541  0.00  0.00    +0.000 A 
ATOM     25  C   UNL     1       5.469   4.605  15.782  0.00  0.00    +0.000 A 
ATOM     26  F   UNL     1       6.293   4.038  14.894  0.00  0.00    +0.000 F 
ATOM     27  C   UNL     1       5.462   5.985  15.922  0.00  0.00    +0.000 A 
ATOM     28  C   UNL     1       4.584   6.570  16.831  0.00  0.00    +0.000 A 
ENDBRANCH  19  22
ENDBRANCH   4  18
BRANCH   6  29
ATOM     29  C   UNL     1      -1.310  11.042  18.178  0.00  0.00    +0.000 C 
ATOM     30  F   UNL     1      -1.552  10.517  16.941  0.00  0.00    +0.000 F 
ATOM     31  F   UNL     1      -2.521  11.083  18.802  0.00  0.00    +0.000 F 
ATOM     32  F   UNL     1      -0.962  12.341  17.959  0.00  0.00    +0.000 F 
ENDBRANCH   6  29
TORSDOF 5
ENDMDL
MODEL 3
REMARK VINA RESULT:      -7.8      2.488      2.970
REMARK  Name = 
REMARK  6 active torsions:
REMARK  status: ('A' for Active; 'I' for Inactive)
REMARK    1  A    between atoms: C_1  and  C_2
REMARK    2  A    between atoms: C_5  and  C_6
REMARK    3  A    between atoms: N_8  and  C_9
REMARK    4  A    between atoms: C_12  and  N_13
REMARK    5  A    between atoms: C_14  and  C_16
REMARK    6  A    between atoms: C_24  and  C_25
REMARK                            x       y       z     vdW  Elec       q    Type
REMARK                         _______ _______ _______ _____ _____    ______ ____
ROOT
ATOM      1  C   UNL     1      -0.330  10.086  19.538  0.00  0.00    +0.000 A 
ATOM      2  C   UNL     1       0.055  10.048  18.196  0.00  0.00    +0.000 A 
ATOM      3  C   UNL     1       1.169   9.325  17.772  0.00  0.00    +0.000 A 
ATOM      4  C   UNL     1       1.969   8.630  18.670  0.00  0.00    +0.000 A 
ATOM      5  C   UNL     1       1.635   8.707  20.026  0.00  0.00    +0.000 A 
ATOM      6  C   UNL     1       0.486   9.424  20.476  0.00  0.00    +0.000 A 
ENDROOT
BRANCH   1   9
ATOM      7  C   UNL     1      -1.622  12.154  20.055  0.00  0.00    +0.000 C 
ATOM      8  O   UNL     1      -0.748  12.978  19.806  0.00  0.00    +0.000 OA
ATOM      9  N   UNL     1      -1.514  10.774  19.924  0.00  0.00    +0.000 N 
ATOM     10  H   UNL     1      -2.380  10.243  19.939  0.00  0.00    +0.000 HD
BRANCH   7  15
ATOM     11  C   UNL     1      -6.529  14.224  22.133  0.00  0.00    +0.000 C 
ATOM     12  C   UNL     1      -5.282  13.684  21.505  0.00  0.00    +0.000 A 
ATOM     13  C   UNL     1      -5.316  12.973  20.305  0.00  0.00    +0.000 A 
ATOM     14  C   UNL     1      -4.124  12.471  19.774  0.00  0.00    +0.000 A 
ATOM     15  C   UNL     1      -2.935  12.692  20.464  0.00  0.00    +0.000 A 
ATOM     16  C   UNL     1      -2.995  13.400  21.659  0.00  0.00    +0.000 A 
ATOM     17  N   UNL     1      -4.134  13.910  22.182  0.00  0.00    +0.000 NA
ENDBRANCH   7  15
ENDBRANCH   1   9
BRANCH   4  18
ATOM     18  N   UNL     1       3.080   7.845  18.265  0.00  0.00    +0.000 N 
ATOM     19  C   UNL     1       3.077   6.458  18.144  0.00  0.00    +0.000 C 
ATOM     20  O   UNL     1       2.107   5.725  18.315  0.00  0.00    +0.000 OA
ATOM     21  H   UNL     1       3.929   8.343  18.043  0.00  0.00    +0.000 HD
BRANCH  19  22
ATOM     22  C   UNL     1       4.349   5.778  17.775  0.00  0.00    +0.000 A 
ATOM     23  C   UNL     1       4.776   5.583  16.457  0.00  0.00    +0.000 A 
ATOM     24  C   UNL     1       6.037   5.023  16.214  0.00  0.00    +0.000 A 
ATOM     25  C   UNL     1       6.861   4.667  17.282  0.00  0.00    +0.000 A 
ATOM     26  F   UNL     1       8.075   4.159  17.038  0.00  0.00    +0.000 F 
ATOM     27  C   UNL     1       6.450   4.850  18.593  0.00  0.00    +0.000 A 
ATOM     28  C   UNL     1       5.195   5.403  18.839  0.00  0.00    +0.000 A 
ENDBRANCH  19  22
ENDBRANCH   4  18
BRANCH   6  29
ATOM     29  C   UNL     1       0.182   9.391  21.951  0.00  0.00    +0.000 C 
ATOM     30  F   UNL     1      -0.088  10.613  22.497  0.00  0.00    +0.000 F 
ATOM     31  F   UNL     1      -0.897   8.612  22.244  0.00  0.00    +0.000 F 
ATOM     32  F   UNL     1       1.212   8.886  22.685  0.00  0.00    +0.000 F 
ENDBRANCH   6  29
TORSDOF 5
ENDMDL
MODEL 4
REMARK VINA RESULT:      -7.8      2.241      2.843
REMARK  Name = 
REMARK  6 active torsions:
REMARK  status: ('A' for Active; 'I' for Inactive)
REMARK    1  A    between atoms: C_1  and  C_2
REMARK    2  A    between atoms: C_5  and  C_6
REMARK    3  A    between atoms: N_8  and  C_9
REMARK    4  A    between atoms: C_12  and  N_13
REMARK    5  A    between atoms: C_14  and  C_16
REMARK    6  A    between atoms: C_24  and  C_25
REMARK                            x       y       z     vdW  Elec       q    Type
REMARK                         _______ _______ _______ _____ _____    ______ ____
ROOT
ATOM      1  C   UNL     1      -0.456  10.164  19.718  0.00  0.00    +0.000 A 
ATOM      2  C   UNL     1      -0.192  10.243  18.348  0.00  0.00    +0.000 A 
ATOM      3  C   UNL     1       0.893   9.585  17.770  0.00  0.00    +0.000 A 
ATOM      4  C   UNL     1       1.783   8.843  18.534  0.00  0.00    +0.000 A 
ATOM      5  C   UNL     1       1.571   8.802  19.916  0.00  0.00    +0.000 A 
ATOM      6  C   UNL     1       0.454   9.452  20.523  0.00  0.00    +0.000 A 
ENDROOT
BRANCH   1   9
ATOM      7  C   UNL     1      -1.687  12.123  20.646  0.00  0.00    +0.000 C 
ATOM      8  O   UNL     1      -0.803  12.964  20.523  0.00  0.00    +0.000 OA
ATOM      9  N   UNL     1      -1.612  10.788  20.261  0.00  0.00    +0.000 N 
ATOM     10  H   UNL     1      -2.489  10.277  20.208  0.00  0.00    +0.000 HD
BRANCH   7  15
ATOM     11  C   UNL     1      -6.542  13.730  23.201  0.00  0.00    +0.000 C 
ATOM     12  C   UNL     1      -5.301  13.349  22.455  0.00  0.00    +0.000 A 
ATOM     13  C   UNL     1      -5.303  13.185  21.069  0.00  0.00    +0.000 A 
ATOM     14  C   UNL     1      -4.121  12.806  20.425  0.00  0.00    +0.000 A 
ATOM     15  C   UNL     1      -2.976  12.597  21.189  0.00  0.00    +0.000 A 
ATOM     16  C   UNL     1      -3.068  12.770  22.565  0.00  0.00    +0.000 A 
ATOM     17  N   UNL     1      -4.196  13.154  23.207  0.00  0.00    +0.000 NA
ENDBRANCH   7  15
ENDBRANCH   1   9
BRANCH   4  18
ATOM     18  N   UNL     1       2.868   8.121  17.970  0.00  0.00    +0.000 N 
ATOM     19  C   UNL     1       3.010   6.737  18.002  0.00  0.00    +0.000 C 
ATOM     20  O   UNL     1       2.198   5.943  18.470  0.00  0.00    +0.000 OA
ATOM     21  H   UNL     1       3.581   8.665  17.507  0.00  0.00    +0.000 HD
BRANCH  19  22
ATOM     22  C   UNL     1       4.245   6.139  17.425  0.00  0.00    +0.000 A 
ATOM     23  C   UNL     1       5.458   6.825  17.296  0.00  0.00    +0.000 A 
ATOM     24  C   UNL     1       6.592   6.144  16.835  0.00  0.00    +0.000 A 
ATOM     25  C   UNL     1       6.511   4.790  16.513  0.00  0.00    +0.000 A 
ATOM     26  F   UNL     1       7.608   4.142  16.100  0.00  0.00    +0.000 F 
ATOM     27  C   UNL     1       5.316   4.098  16.631  0.00  0.00    +0.000 A 
ATOM     28  C   UNL     1       4.185   4.772  17.086  0.00  0.00    +0.000 A 
ENDBRANCH  19  22
ENDBRANCH   4  18
BRANCH   6  29
ATOM     29  C   UNL     1       0.285   9.294  22.012  0.00  0.00    +0.000 C 
ATOM     30  F   UNL     1      -0.818   8.577  22.379  0.00  0.00    +0.000 F 
ATOM     31  F   UNL     1       1.343   8.662  22.593  0.00  0.00    +0.000 F 
ATOM     32  F   UNL     1       0.170  10.490  22.654  0.00  0.00    +0.000 F 
ENDBRANCH   6  29
TORSDOF 5
ENDMDL
MODEL 5
REMARK VINA RESULT:      -7.7      2.024      2.433
REMARK  Name = 
REMARK  6 active torsions:
REMARK  status: ('A' for Active; 'I' for Inactive)
REMARK    1  A    between atoms: C_1  and  C_2
REMARK    2  A    between atoms: C_5  and  C_6
REMARK    3  A    between atoms: N_8  and  C_9
REMARK    4  A    between atoms: C_12  and  N_13
REMARK    5  A    between atoms: C_14  and  C_16
REMARK    6  A    between atoms: C_24  and  C_25
REMARK                            x       y       z     vdW  Elec       q    Type
REMARK                         _______ _______ _______ _____ _____    ______ ____
ROOT
ATOM      1  C   UNL     1      -0.346  10.382  19.910  0.00  0.00    +0.000 A 
ATOM      2  C   UNL     1      -0.108  10.488  18.537  0.00  0.00    +0.000 A 
ATOM      3  C   UNL     1       0.845   9.699  17.895  0.00  0.00    +0.000 A 
ATOM      4  C   UNL     1       1.626   8.790  18.594  0.00  0.00    +0.000 A 
ATOM      5  C   UNL     1       1.446   8.713  19.979  0.00  0.00    +0.000 A 
ATOM      6  C   UNL     1       0.460   9.498  20.651  0.00  0.00    +0.000 A 
ENDROOT
BRANCH   1   9
ATOM      7  C   UNL     1      -1.269  12.496  20.857  0.00  0.00    +0.000 C 
ATOM      8  O   UNL     1      -0.309  13.226  20.632  0.00  0.00    +0.000 OA
ATOM      9  N   UNL     1      -1.376  11.151  20.519  0.00  0.00    +0.000 N 
ATOM     10  H   UNL     1      -2.306  10.743  20.554  0.00  0.00    +0.000 HD
BRANCH   7  15
ATOM     11  C   UNL     1      -5.590  15.414  23.200  0.00  0.00    +0.000 C 
ATOM     12  C   UNL     1      -4.505  14.572  22.604  0.00  0.00    +0.000 A 
ATOM     13  C   UNL     1      -4.298  13.252  23.008  0.00  0.00    +0.000 A 
ATOM     14  C   UNL     1      -3.255  12.518  22.436  0.00  0.00    +0.000 A 
ATOM     15  C   UNL     1      -2.446  13.130  21.481  0.00  0.00    +0.000 A 
ATOM     16  C   UNL     1      -2.716  14.453  21.148  0.00  0.00    +0.000 A 
ATOM     17  N   UNL     1      -3.731  15.176  21.676  0.00  0.00    +0.000 NA
ENDBRANCH   7  15
ENDBRANCH   1   9
BRANCH   4  18
ATOM     18  N   UNL     1       2.570   7.937  17.963  0.00  0.00    +0.000 N 
ATOM     19  C   UNL     1       2.741   6.585  18.247  0.00  0.00    +0.000 C 
ATOM     20  O   UNL     1       2.071   5.927  19.037  0.00  0.00    +0.000 OA
ATOM     21  H   UNL     1       3.150   8.354  17.250  0.00  0.00    +0.000 HD
BRANCH  19  22
ATOM     22  C   UNL     1       3.826   5.847  17.544  0.00  0.00    +0.000 A 
ATOM     23  C   UNL     1       3.892   4.451  17.458  0.00  0.00    +0.000 A 
ATOM     24  C   UNL     1       4.897   3.853  16.687  0.00  0.00    +0.000 A 
ATOM     25  C   UNL     1       5.821   4.644  16.005  0.00  0.00    +0.000 A 
ATOM     26  F   UNL     1       6.759   4.062  15.249  0.00  0.00    +0.000 F 
ATOM     27  C   UNL     1       5.771   6.027  16.084  0.00  0.00    +0.000 A 
ATOM     28  C   UNL     1       4.776   6.627  16.853  0.00  0.00    +0.000 A 
ENDBRANCH  19  22
ENDBRANCH   4  18
BRANCH   6  29
ATOM     29  C   UNL     1       0.306   9.293  22.136  0.00  0.00    +0.000 C 
ATOM     30  F   UNL     1      -0.783   8.550  22.490  0.00  0.00    +0.000 F 
ATOM     31  F   UNL     1       1.378   8.659  22.689  0.00  0.00    +0.000 F 
ATOM     32  F   UNL     1       0.180  10.468  22.815  0.00  0.00    +0.000 F 
ENDBRANCH   6  29
TORSDOF 5
ENDMDL
MODEL 6
REMARK VINA RESULT:      -7.7      2.117      2.587
REMARK  Name = 
REMARK  6 active torsions:
REMARK  status: ('A' for Active; 'I' for Inactive)
REMARK    1  A    between atoms: C_1  and  C_2
REMARK    2  A    between atoms: C_5  and  C_6
REMARK    3  A    between atoms: N_8  and  C_9
REMARK    4  A    between atoms: C_12  and  N_13
REMARK    5  A    between atoms: C_14  and  C_16
REMARK    6  A    between atoms: C_24  and  C_25
REMARK                            x       y       z     vdW  Elec       q    Type
REMARK                         _______ _______ _______ _____ _____    ______ ____
ROOT
ATOM      1  C   UNL     1      -0.356  10.358  19.894  0.00  0.00    +0.000 A 
ATOM      2  C   UNL     1      -0.105  10.466  18.524  0.00  0.00    +0.000 A 
ATOM      3  C   UNL     1       0.871   9.695  17.893  0.00  0.00    +0.000 A 
ATOM      4  C   UNL     1       1.662   8.803  18.603  0.00  0.00    +0.000 A 
ATOM      5  C   UNL     1       1.468   8.725  19.986  0.00  0.00    +0.000 A 
ATOM      6  C   UNL     1       0.460   9.491  20.646  0.00  0.00    +0.000 A 
ENDROOT
BRANCH   1   9
ATOM      7  C   UNL     1      -1.326  12.449  20.842  0.00  0.00    +0.000 C 
ATOM      8  O   UNL     1      -0.372  13.195  20.643  0.00  0.00    +0.000 OA
ATOM      9  N   UNL     1      -1.408  11.107  20.490  0.00  0.00    +0.000 N 
ATOM     10  H   UNL     1      -2.333  10.685  20.504  0.00  0.00    +0.000 HD
BRANCH   7  15
ATOM     11  C   UNL     1      -6.129  14.334  23.304  0.00  0.00    +0.000 C 
ATOM     12  C   UNL     1      -4.849  13.929  22.642  0.00  0.00    +0.000 A 
ATOM     13  C   UNL     1      -4.249  14.722  21.663  0.00  0.00    +0.000 A 
ATOM     14  C   UNL     1      -3.066  14.284  21.059  0.00  0.00    +0.000 A 
ATOM     15  C   UNL     1      -2.524  13.062  21.450  0.00  0.00    +0.000 A 
ATOM     16  C   UNL     1      -3.195  12.331  22.423  0.00  0.00    +0.000 A 
ATOM     17  N   UNL     1      -4.331  12.743  23.033  0.00  0.00    +0.000 NA
ENDBRANCH   7  15
ENDBRANCH   1   9
BRANCH   4  18
ATOM     18  N   UNL     1       2.630   7.969  17.984  0.00  0.00    +0.000 N 
ATOM     19  C   UNL     1       2.763   6.600  18.203  0.00  0.00    +0.000 C 
ATOM     20  O   UNL     1       2.035   5.913  18.913  0.00  0.00    +0.000 OA
ATOM     21  H   UNL     1       3.259   8.413  17.331  0.00  0.00    +0.000 HD
BRANCH  19  22
ATOM     22  C   UNL     1       3.877   5.881  17.527  0.00  0.00    +0.000 A 
ATOM     23  C   UNL     1       3.919   4.493  17.352  0.00  0.00    +0.000 A 
ATOM     24  C   UNL     1       4.961   3.920  16.612  0.00  0.00    +0.000 A 
ATOM     25  C   UNL     1       5.947   4.730  16.050  0.00  0.00    +0.000 A 
ATOM     26  F   UNL     1       6.923   4.174  15.322  0.00  0.00    +0.000 F 
ATOM     27  C   UNL     1       5.922   6.106  16.218  0.00  0.00    +0.000 A 
ATOM     28  C   UNL     1       4.889   6.680  16.956  0.00  0.00    +0.000 A 
ENDBRANCH  19  22
ENDBRANCH   4  18
BRANCH   6  29
ATOM     29  C   UNL     1       0.293   9.286  22.129  0.00  0.00    +0.000 C 
ATOM     30  F   UNL     1       1.342   8.651  22.730  0.00  0.00    +0.000 F 
ATOM     31  F   UNL     1       0.140  10.460  22.804  0.00  0.00    +0.000 F 
ATOM     32  F   UNL     1      -0.805   8.539  22.433  0.00  0.00    +0.000 F 
ENDBRANCH   6  29
TORSDOF 5
ENDMDL
MODEL 7
REMARK VINA RESULT:      -7.6      1.081      1.678
REMARK  Name = 
REMARK  6 active torsions:
REMARK  status: ('A' for Active; 'I' for Inactive)
REMARK    1  A    between atoms: C_1  and  C_2
REMARK    2  A    between atoms: C_5  and  C_6
REMARK    3  A    between atoms: N_8  and  C_9
REMARK    4  A    between atoms: C_12  and  N_13
REMARK    5  A    between atoms: C_14  and  C_16
REMARK    6  A    between atoms: C_24  and  C_25
REMARK                            x       y       z     vdW  Elec       q    Type
REMARK                         _______ _______ _______ _____ _____    ______ ____
ROOT
ATOM      1  C   UNL     1      -0.282  10.658  20.170  0.00  0.00    +0.000 A 
ATOM      2  C   UNL     1       0.761   9.983  20.809  0.00  0.00    +0.000 A 
ATOM      3  C   UNL     1       1.612   9.123  20.117  0.00  0.00    +0.000 A 
ATOM      4  C   UNL     1       1.446   8.872  18.762  0.00  0.00    +0.000 A 
ATOM      5  C   UNL     1       0.370   9.491  18.117  0.00  0.00    +0.000 A 
ATOM      6  C   UNL     1      -0.500  10.390  18.805  0.00  0.00    +0.000 A 
ENDROOT
BRANCH   1   9
ATOM      7  C   UNL     1      -1.121  11.691  22.278  0.00  0.00    +0.000 C 
ATOM      8  O   UNL     1      -0.434  11.058  23.073  0.00  0.00    +0.000 OA
ATOM      9  N   UNL     1      -1.086  11.583  20.892  0.00  0.00    +0.000 N 
ATOM     10  H   UNL     1      -1.533  12.327  20.363  0.00  0.00    +0.000 HD
BRANCH   7  15
ATOM     11  C   UNL     1      -4.922  15.547  24.110  0.00  0.00    +0.000 C 
ATOM     12  C   UNL     1      -3.872  14.563  23.700  0.00  0.00    +0.000 A 
ATOM     13  C   UNL     1      -2.525  14.758  24.011  0.00  0.00    +0.000 A 
ATOM     14  C   UNL     1      -1.583  13.818  23.583  0.00  0.00    +0.000 A 
ATOM     15  C   UNL     1      -2.016  12.715  22.852  0.00  0.00    +0.000 A 
ATOM     16  C   UNL     1      -3.375  12.606  22.577  0.00  0.00    +0.000 A 
ATOM     17  N   UNL     1      -4.307  13.494  22.996  0.00  0.00    +0.000 NA
ENDBRANCH   7  15
ENDBRANCH   1   9
BRANCH   4  18
ATOM     18  N   UNL     1       2.324   8.041  18.019  0.00  0.00    +0.000 N 
ATOM     19  C   UNL     1       2.681   6.741  18.368  0.00  0.00    +0.000 C 
ATOM     20  O   UNL     1       2.250   6.112  19.329  0.00  0.00    +0.000 OA
ATOM     21  H   UNL     1       2.707   8.431  17.170  0.00  0.00    +0.000 HD
BRANCH  19  22
ATOM     22  C   UNL     1       3.672   6.027  17.516  0.00  0.00    +0.000 A 
ATOM     23  C   UNL     1       4.713   6.662  16.829  0.00  0.00    +0.000 A 
ATOM     24  C   UNL     1       5.656   5.892  16.136  0.00  0.00    +0.000 A 
ATOM     25  C   UNL     1       5.559   4.501  16.137  0.00  0.00    +0.000 A 
ATOM     26  F   UNL     1       6.481   3.773  15.496  0.00  0.00    +0.000 F 
ATOM     27  C   UNL     1       4.531   3.857  16.810  0.00  0.00    +0.000 A 
ATOM     28  C   UNL     1       3.589   4.620  17.497  0.00  0.00    +0.000 A 
ENDBRANCH  19  22
ENDBRANCH   4  18
BRANCH   6  29
ATOM     29  C   UNL     1      -1.590  11.050  18.001  0.00  0.00    +0.000 C 
ATOM     30  F   UNL     1      -1.395  12.383  17.777  0.00  0.00    +0.000 F 
ATOM     31  F   UNL     1      -1.742  10.489  16.768  0.00  0.00    +0.000 F 
ATOM     32  F   UNL     1      -2.809  10.959  18.602  0.00  0.00    +0.000 F 
ENDBRANCH   6  29
TORSDOF 5
ENDMDL
MODEL 8
REMARK VINA RESULT:      -7.6      1.379      1.939
REMARK  Name = 
REMARK  6 active torsions:
REMARK  status: ('A' for Active; 'I' for Inactive)
REMARK    1  A    between atoms: C_1  and  C_2
REMARK    2  A    between atoms: C_5  and  C_6
REMARK    3  A    between atoms: N_8  and  C_9
REMARK    4  A    between atoms: C_12  and  N_13
REMARK    5  A    between atoms: C_14  and  C_16
REMARK    6  A    between atoms: C_24  and  C_25
REMARK                            x       y       z     vdW  Elec       q    Type
REMARK                         _______ _______ _______ _____ _____    ______ ____
ROOT
ATOM      1  C   UNL     1      -0.489  10.905  21.572  0.00  0.00    +0.000 A 
ATOM      2  C   UNL     1       0.285   9.990  22.290  0.00  0.00    +0.000 A 
ATOM      3  C   UNL     1       1.098   9.055  21.650  0.00  0.00    +0.000 A 
ATOM      4  C   UNL     1       1.154   8.969  20.265  0.00  0.00    +0.000 A 
ATOM      5  C   UNL     1       0.339   9.836  19.530  0.00  0.00    +0.000 A 
ATOM      6  C   UNL     1      -0.484  10.813  20.167  0.00  0.00    +0.000 A 
ENDROOT
BRANCH   1   9
ATOM      7  C   UNL     1      -0.776  13.143  22.633  0.00  0.00    +0.000 C 
ATOM      8  O   UNL     1       0.334  13.603  22.382  0.00  0.00    +0.000 OA
ATOM      9  N   UNL     1      -1.251  11.891  22.258  0.00  0.00    +0.000 N 
ATOM     10  H   UNL     1      -2.254  11.742  22.329  0.00  0.00    +0.000 HD
BRANCH   7  15
ATOM     11  C   UNL     1      -4.658  16.672  24.904  0.00  0.00    +0.000 C 
ATOM     12  C   UNL     1      -3.601  15.743  24.392  0.00  0.00    +0.000 A 
ATOM     13  C   UNL     1      -2.345  15.660  24.995  0.00  0.00    +0.000 A 
ATOM     14  C   UNL     1      -1.387  14.792  24.462  0.00  0.00    +0.000 A 
ATOM     15  C   UNL     1      -1.715  14.038  23.338  0.00  0.00    +0.000 A 
ATOM     16  C   UNL     1      -2.985  14.192  22.794  0.00  0.00    +0.000 A 
ATOM     17  N   UNL     1      -3.933  15.013  23.304  0.00  0.00    +0.000 NA
ENDBRANCH   7  15
ENDBRANCH   1   9
BRANCH   4  18
ATOM     18  N   UNL     1       2.008   8.063  19.583  0.00  0.00    +0.000 N 
ATOM     19  C   UNL     1       2.161   6.716  19.901  0.00  0.00    +0.000 C 
ATOM     20  O   UNL     1       1.545   6.110  20.773  0.00  0.00    +0.000 OA
ATOM     21  H   UNL     1       2.533   8.434  18.805  0.00  0.00    +0.000 HD
BRANCH  19  22
ATOM     22  C   UNL     1       3.153   5.916  19.131  0.00  0.00    +0.000 A 
ATOM     23  C   UNL     1       3.599   4.647  19.516  0.00  0.00    +0.000 A 
ATOM     24  C   UNL     1       4.457   3.930  18.671  0.00  0.00    +0.000 A 
ATOM     25  C   UNL     1       4.856   4.477  17.452  0.00  0.00    +0.000 A 
ATOM     26  F   UNL     1       5.653   3.772  16.640  0.00  0.00    +0.000 F 
ATOM     27  C   UNL     1       4.425   5.735  17.059  0.00  0.00    +0.000 A 
ATOM     28  C   UNL     1       3.576   6.453  17.898  0.00  0.00    +0.000 A 
ENDBRANCH  19  22
ENDBRANCH   4  18
BRANCH   6  29
ATOM     29  C   UNL     1      -1.275  11.738  19.280  0.00  0.00    +0.000 C 
ATOM     30  F   UNL     1      -0.843  13.033  19.291  0.00  0.00    +0.000 F 
ATOM     31  F   UNL     1      -1.251  11.354  17.972  0.00  0.00    +0.000 F 
ATOM     32  F   UNL     1      -2.592  11.793  19.625  0.00  0.00    +0.000 F 
ENDBRANCH   6  29
TORSDOF 5
ENDMDL
MODEL 9
REMARK VINA RESULT:      -7.6      2.091      2.680
REMARK  Name = 
REMARK  6 active torsions:
REMARK  status: ('A' for Active; 'I' for Inactive)
REMARK    1  A    between atoms: C_1  and  C_2
REMARK    2  A    between atoms: C_5  and  C_6
REMARK    3  A    between atoms: N_8  and  C_9
REMARK    4  A    between atoms: C_12  and  N_13
REMARK    5  A    between atoms: C_14  and  C_16
REMARK    6  A    between atoms: C_24  and  C_25
REMARK                            x       y       z     vdW  Elec       q    Type
REMARK                         _______ _______ _______ _____ _____    ______ ____
ROOT
ATOM      1  C   UNL     1      -0.413  10.396  19.949  0.00  0.00    +0.000 A 
ATOM      2  C   UNL     1      -0.165  10.533  18.581  0.00  0.00    +0.000 A 
ATOM      3  C   UNL     1       0.835   9.804  17.939  0.00  0.00    +0.000 A 
ATOM      4  C   UNL     1       1.654   8.926  18.636  0.00  0.00    +0.000 A 
ATOM      5  C   UNL     1       1.462   8.821  20.018  0.00  0.00    +0.000 A 
ATOM      6  C   UNL     1       0.430   9.544  20.688  0.00  0.00    +0.000 A 
ENDROOT
BRANCH   1   9
ATOM      7  C   UNL     1      -1.413  12.405  21.035  0.00  0.00    +0.000 C 
ATOM      8  O   UNL     1      -0.443  13.151  20.957  0.00  0.00    +0.000 OA
ATOM      9  N   UNL     1      -1.489  11.101  20.556  0.00  0.00    +0.000 N 
ATOM     10  H   UNL     1      -2.417  10.694  20.481  0.00  0.00    +0.000 HD
BRANCH   7  15
ATOM     11  C   UNL     1      -6.004  15.076  23.149  0.00  0.00    +0.000 C 
ATOM     12  C   UNL     1      -4.832  14.299  22.635  0.00  0.00    +0.000 A 
ATOM     13  C   UNL     1      -4.365  13.160  23.292  0.00  0.00    +0.000 A 
ATOM     14  C   UNL     1      -3.252  12.485  22.782  0.00  0.00    +0.000 A 
ATOM     15  C   UNL     1      -2.636  12.975  21.633  0.00  0.00    +0.000 A 
ATOM     16  C   UNL     1      -3.160  14.124  21.051  0.00  0.00    +0.000 A 
ATOM     17  N   UNL     1      -4.247  14.783  21.517  0.00  0.00    +0.000 NA
ENDBRANCH   7  15
ENDBRANCH   1   9
BRANCH   4  18
ATOM     18  N   UNL     1       2.648   8.133  18.005  0.00  0.00    +0.000 N 
ATOM     19  C   UNL     1       2.792   6.757  18.162  0.00  0.00    +0.000 C 
ATOM     20  O   UNL     1       2.053   6.029  18.819  0.00  0.00    +0.000 OA
ATOM     21  H   UNL     1       3.289   8.615  17.392  0.00  0.00    +0.000 HD
BRANCH  19  22
ATOM     22  C   UNL     1       3.933   6.083  17.484  0.00  0.00    +0.000 A 
ATOM     23  C   UNL     1       5.045   6.759  16.969  0.00  0.00    +0.000 A 
ATOM     24  C   UNL     1       6.116   6.026  16.440  0.00  0.00    +0.000 A 
ATOM     25  C   UNL     1       6.073   4.632  16.432  0.00  0.00    +0.000 A 
ATOM     26  F   UNL     1       7.113   3.942  15.949  0.00  0.00    +0.000 F 
ATOM     27  C   UNL     1       4.976   3.949  16.934  0.00  0.00    +0.000 A 
ATOM     28  C   UNL     1       3.907   4.674  17.458  0.00  0.00    +0.000 A 
ENDBRANCH  19  22
ENDBRANCH   4  18
BRANCH   6  29
ATOM     29  C   UNL     1       0.269   9.311  22.168  0.00  0.00    +0.000 C 
ATOM     30  F   UNL     1       0.087  10.450  22.899  0.00  0.00    +0.000 F 
ATOM     31  F   UNL     1      -0.798   8.514  22.458  0.00  0.00    +0.000 F 
ATOM     32  F   UNL     1       1.352   8.695  22.720  0.00  0.00    +0.000 F 
ENDBRANCH   6  29
TORSDOF 5
ENDMDL
