MODEL 1
REMARK VINA RESULT:      -9.1      0.000      0.000
REMARK  Name = 
REMARK  4 active torsions:
REMARK  status: ('A' for Active; 'I' for Inactive)
REMARK    1  A    between atoms: C_1  and  N_2
REMARK    2  A    between atoms: C_4  and  C_5
REMARK    3  A    between atoms: C_5  and  C_6
REMARK    4  A    between atoms: N_8  and  C_9
REMARK                            x       y       z     vdW  Elec       q    Type
REMARK                         _______ _______ _______ _____ _____    ______ ____
ROOT
ATOM      1  C   UNL     1       1.723   8.847  18.664  0.00  0.00    +0.000 C 
ATOM      2  O   UNL     1       1.446   8.666  19.845  0.00  0.00    +0.000 OA
ATOM      3  N   UNL     1       0.973   9.602  17.779  0.00  0.00    +0.000 N 
ATOM      4  H   UNL     1       1.129   9.420  16.791  0.00  0.00    +0.000 HD
ENDROOT
BRANCH   3   5
ATOM      5  C   UNL     1      -0.250  10.199  18.121  0.00  0.00    +0.000 A 
ATOM      6  C   UNL     1      -0.325  11.270  19.033  0.00  0.00    +0.000 A 
ATOM      7  C   UNL     1      -1.546  11.912  19.277  0.00  0.00    +0.000 A 
ATOM      8  C   UNL     1      -2.655  11.439  18.608  0.00  0.00    +0.000 A 
ATOM      9  C   UNL     1      -2.581  10.363  17.750  0.00  0.00    +0.000 A 
ATOM     10  C   UNL     1      -1.392   9.732  17.470  0.00  0.00    +0.000 A 
ATOM     11  O   UNL     1      -3.788  10.048  17.204  0.00  0.00    +0.000 OA
ATOM     12  C   UNL     1      -4.506  11.227  17.581  0.00  0.00    +0.000 C 
ATOM     13  F   UNL     1      -4.567  12.039  16.493  0.00  0.00    +0.000 F 
ATOM     14  F   UNL     1      -5.774  10.891  17.912  0.00  0.00    +0.000 F 
ATOM     15  O   UNL     1      -3.912  11.961  18.663  0.00  0.00    +0.000 OA
ENDBRANCH   3   5
BRANCH   1  16
ATOM     16  C   UNL     1       2.954   8.238  18.049  0.00  0.00    +0.000 C 
BRANCH  16  20
ATOM     17  C   UNL     1       1.310   4.343  20.274  0.00  0.00    +0.000 C 
ATOM     18  N   UNL     1       2.203   4.853  19.249  0.00  0.00    +0.000 N 
ATOM     19  N   UNL     1       2.230   6.210  19.085  0.00  0.00    +0.000 NA
ATOM     20  C   UNL     1       2.996   6.728  18.171  0.00  0.00    +0.000 A 
ATOM     21  C   UNL     1       3.907   5.926  17.334  0.00  0.00    +0.000 A 
ATOM     22  C   UNL     1       4.823   6.488  16.441  0.00  0.00    +0.000 A 
ATOM     23  C   UNL     1       5.658   5.654  15.687  0.00  0.00    +0.000 A 
ATOM     24  C   UNL     1       5.588   4.265  15.830  0.00  0.00    +0.000 A 
ATOM     25  C   UNL     1       4.689   3.707  16.737  0.00  0.00    +0.000 A 
ATOM     26  C   UNL     1       3.857   4.540  17.492  0.00  0.00    +0.000 A 
ATOM     27  C   UNL     1       2.941   3.951  18.489  0.00  0.00    +0.000 A 
ATOM     28  O   UNL     1       2.887   2.729  18.626  0.00  0.00    +0.000 OA
ENDBRANCH  16  20
ENDBRANCH   1  16
TORSDOF 3
ENDMDL
MODEL 2
REMARK VINA RESULT:      -9.0      7.565      9.478
REMARK  Name = 
REMARK  4 active torsions:
REMARK  status: ('A' for Active; 'I' for Inactive)
REMARK    1  A    between atoms: C_1  and  N_2
REMARK    2  A    between atoms: C_4  and  C_5
REMARK    3  A    between atoms: C_5  and  C_6
REMARK    4  A    between atoms: N_8  and  C_9
REMARK                            x       y       z     vdW  Elec       q    Type
REMARK                         _______ _______ _______ _____ _____    ______ ____
ROOT
ATOM      1  C   UNL     1       8.070   8.013  18.267  0.00  0.00    +0.000 C 
ATOM      2  O   UNL     1       7.373   8.590  17.439  0.00  0.00    +0.000 OA
ATOM      3  N   UNL     1       8.957   8.633  19.130  0.00  0.00    +0.000 N 
ATOM      4  H   UNL     1       9.680   8.042  19.530  0.00  0.00    +0.000 HD
ENDROOT
BRANCH   3   5
ATOM      5  C   UNL     1       9.214  10.013  19.108  0.00  0.00    +0.000 A 
ATOM      6  C   UNL     1       9.042  10.819  20.250  0.00  0.00    +0.000 A 
ATOM      7  C   UNL     1       9.404  12.173  20.224  0.00  0.00    +0.000 A 
ATOM      8  C   UNL     1       9.909  12.671  19.043  0.00  0.00    +0.000 A 
ATOM      9  C   UNL     1      10.035  11.885  17.918  0.00  0.00    +0.000 A 
ATOM     10  C   UNL     1       9.715  10.549  17.921  0.00  0.00    +0.000 A 
ATOM     11  O   UNL     1      10.540  12.572  16.857  0.00  0.00    +0.000 OA
ATOM     12  C   UNL     1      10.986  13.741  17.552  0.00  0.00    +0.000 C 
ATOM     13  F   UNL     1      12.328  13.629  17.731  0.00  0.00    +0.000 F 
ATOM     14  F   UNL     1      10.766  14.831  16.781  0.00  0.00    +0.000 F 
ATOM     15  O   UNL     1      10.372  13.936  18.835  0.00  0.00    +0.000 OA
ENDBRANCH   3   5
BRANCH   1  16
ATOM     16  C   UNL     1       8.021   6.517  18.420  0.00  0.00    +0.000 C 
BRANCH  16  20
ATOM     17  C   UNL     1       7.434   5.145  13.882  0.00  0.00    +0.000 C 
ATOM     18  N   UNL     1       6.848   5.185  15.210  0.00  0.00    +0.000 N 
ATOM     19  N   UNL     1       7.590   5.790  16.186  0.00  0.00    +0.000 NA
ATOM     20  C   UNL     1       7.127   5.841  17.400  0.00  0.00    +0.000 A 
ATOM     21  C   UNL     1       5.793   5.339  17.776  0.00  0.00    +0.000 A 
ATOM     22  C   UNL     1       5.241   5.506  19.048  0.00  0.00    +0.000 A 
ATOM     23  C   UNL     1       3.964   5.003  19.322  0.00  0.00    +0.000 A 
ATOM     24  C   UNL     1       3.233   4.346  18.328  0.00  0.00    +0.000 A 
ATOM     25  C   UNL     1       3.776   4.199  17.053  0.00  0.00    +0.000 A 
ATOM     26  C   UNL     1       5.052   4.703  16.779  0.00  0.00    +0.000 A 
ATOM     27  C   UNL     1       5.606   4.592  15.416  0.00  0.00    +0.000 A 
ATOM     28  O   UNL     1       4.959   4.025  14.534  0.00  0.00    +0.000 OA
ENDBRANCH  16  20
ENDBRANCH   1  16
TORSDOF 3
ENDMDL
MODEL 3
REMARK VINA RESULT:      -8.9      4.443      8.848
REMARK  Name = 
REMARK  4 active torsions:
REMARK  status: ('A' for Active; 'I' for Inactive)
REMARK    1  A    between atoms: C_1  and  N_2
REMARK    2  A    between atoms: C_4  and  C_5
REMARK    3  A    between atoms: C_5  and  C_6
REMARK    4  A    between atoms: N_8  and  C_9
REMARK                            x       y       z     vdW  Elec       q    Type
REMARK                         _______ _______ _______ _____ _____    ______ ____
ROOT
ATOM      1  C   UNL     1       2.192   6.016  19.957  0.00  0.00    +0.000 C 
ATOM      2  O   UNL     1       1.707   4.980  19.515  0.00  0.00    +0.000 OA
ATOM      3  N   UNL     1       3.423   6.534  19.595  0.00  0.00    +0.000 N 
ATOM      4  H   UNL     1       3.836   7.201  20.242  0.00  0.00    +0.000 HD
ENDROOT
BRANCH   3   5
ATOM      5  C   UNL     1       4.304   5.885  18.716  0.00  0.00    +0.000 A 
ATOM      6  C   UNL     1       4.977   4.702  19.078  0.00  0.00    +0.000 A 
ATOM      7  C   UNL     1       5.770   4.021  18.145  0.00  0.00    +0.000 A 
ATOM      8  C   UNL     1       5.873   4.568  16.884  0.00  0.00    +0.000 A 
ATOM      9  C   UNL     1       5.245   5.749  16.550  0.00  0.00    +0.000 A 
ATOM     10  C   UNL     1       4.439   6.422  17.436  0.00  0.00    +0.000 A 
ATOM     11  O   UNL     1       5.486   6.121  15.263  0.00  0.00    +0.000 OA
ATOM     12  C   UNL     1       6.052   4.895  14.789  0.00  0.00    +0.000 C 
ATOM     13  F   UNL     1       5.087   4.233  14.097  0.00  0.00    +0.000 F 
ATOM     14  F   UNL     1       7.057   5.171  13.925  0.00  0.00    +0.000 F 
ATOM     15  O   UNL     1       6.542   4.030  15.825  0.00  0.00    +0.000 OA
ENDBRANCH   3   5
BRANCH   1  16
ATOM     16  C   UNL     1       1.460   6.848  20.975  0.00  0.00    +0.000 C 
BRANCH  16  20
ATOM     17  C   UNL     1       2.087  10.136  17.567  0.00  0.00    +0.000 C 
ATOM     18  N   UNL     1       1.494   9.845  18.860  0.00  0.00    +0.000 N 
ATOM     19  N   UNL     1       1.706   8.590  19.359  0.00  0.00    +0.000 NA
ATOM     20  C   UNL     1       1.186   8.262  20.505  0.00  0.00    +0.000 A 
ATOM     21  C   UNL     1       0.425   9.206  21.345  0.00  0.00    +0.000 A 
ATOM     22  C   UNL     1      -0.025   8.897  22.630  0.00  0.00    +0.000 A 
ATOM     23  C   UNL     1      -0.736   9.853  23.365  0.00  0.00    +0.000 A 
ATOM     24  C   UNL     1      -0.987  11.118  22.825  0.00  0.00    +0.000 A 
ATOM     25  C   UNL     1      -0.517  11.432  21.551  0.00  0.00    +0.000 A 
ATOM     26  C   UNL     1       0.195  10.477  20.818  0.00  0.00    +0.000 A 
ATOM     27  C   UNL     1       0.735  10.827  19.490  0.00  0.00    +0.000 A 
ATOM     28  O   UNL     1       0.527  11.945  19.017  0.00  0.00    +0.000 OA
ENDBRANCH  16  20
ENDBRANCH   1  16
TORSDOF 3
ENDMDL
MODEL 4
REMARK VINA RESULT:      -8.9      2.878      3.352
REMARK  Name = 
REMARK  4 active torsions:
REMARK  status: ('A' for Active; 'I' for Inactive)
REMARK    1  A    between atoms: C_1  and  N_2
REMARK    2  A    between atoms: C_4  and  C_5
REMARK    3  A    between atoms: C_5  and  C_6
REMARK    4  A    between atoms: N_8  and  C_9
REMARK                            x       y       z     vdW  Elec       q    Type
REMARK                         _______ _______ _______ _____ _____    ______ ____
ROOT
ATOM      1  C   UNL     1       1.662   8.818  18.628  0.00  0.00    +0.000 C 
ATOM      2  O   UNL     1       0.679   9.187  17.994  0.00  0.00    +0.000 OA
ATOM      3  N   UNL     1       1.797   8.900  20.003  0.00  0.00    +0.000 N 
ATOM      4  H   UNL     1       2.747   8.859  20.363  0.00  0.00    +0.000 HD
ENDROOT
BRANCH   3   5
ATOM      5  C   UNL     1       0.835   9.490  20.837  0.00  0.00    +0.000 A 
ATOM      6  C   UNL     1       0.322   8.823  21.968  0.00  0.00    +0.000 A 
ATOM      7  C   UNL     1      -0.561   9.477  22.837  0.00  0.00    +0.000 A 
ATOM      8  C   UNL     1      -0.913  10.773  22.527  0.00  0.00    +0.000 A 
ATOM      9  C   UNL     1      -0.440  11.403  21.396  0.00  0.00    +0.000 A 
ATOM     10  C   UNL     1       0.449  10.797  20.540  0.00  0.00    +0.000 A 
ATOM     11  O   UNL     1      -0.919  12.671  21.267  0.00  0.00    +0.000 OA
ATOM     12  C   UNL     1      -1.461  12.828  22.582  0.00  0.00    +0.000 C 
ATOM     13  F   UNL     1      -0.578  13.560  23.310  0.00  0.00    +0.000 F 
ATOM     14  F   UNL     1      -2.614  13.534  22.508  0.00  0.00    +0.000 F 
ATOM     15  O   UNL     1      -1.706  11.593  23.272  0.00  0.00    +0.000 OA
ENDBRANCH   3   5
BRANCH   1  16
ATOM     16  C   UNL     1       2.857   8.221  17.936  0.00  0.00    +0.000 C 
BRANCH  16  20
ATOM     17  C   UNL     1       1.392   4.357  20.333  0.00  0.00    +0.000 C 
ATOM     18  N   UNL     1       2.259   4.861  19.283  0.00  0.00    +0.000 N 
ATOM     19  N   UNL     1       2.226   6.210  19.062  0.00  0.00    +0.000 NA
ATOM     20  C   UNL     1       2.966   6.721  18.122  0.00  0.00    +0.000 A 
ATOM     21  C   UNL     1       3.909   5.924  17.315  0.00  0.00    +0.000 A 
ATOM     22  C   UNL     1       4.796   6.487  16.395  0.00  0.00    +0.000 A 
ATOM     23  C   UNL     1       5.664   5.659  15.672  0.00  0.00    +0.000 A 
ATOM     24  C   UNL     1       5.655   4.276  15.875  0.00  0.00    +0.000 A 
ATOM     25  C   UNL     1       4.785   3.718  16.810  0.00  0.00    +0.000 A 
ATOM     26  C   UNL     1       3.919   4.546  17.533  0.00  0.00    +0.000 A 
ATOM     27  C   UNL     1       3.033   3.961  18.558  0.00  0.00    +0.000 A 
ATOM     28  O   UNL     1       3.034   2.744  18.747  0.00  0.00    +0.000 OA
ENDBRANCH  16  20
ENDBRANCH   1  16
TORSDOF 3
ENDMDL
MODEL 5
REMARK VINA RESULT:      -8.9      6.956      9.039
REMARK  Name = 
REMARK  4 active torsions:
REMARK  status: ('A' for Active; 'I' for Inactive)
REMARK    1  A    between atoms: C_1  and  N_2
REMARK    2  A    between atoms: C_4  and  C_5
REMARK    3  A    between atoms: C_5  and  C_6
REMARK    4  A    between atoms: N_8  and  C_9
REMARK                            x       y       z     vdW  Elec       q    Type
REMARK                         _______ _______ _______ _____ _____    ______ ____
ROOT
ATOM      1  C   UNL     1       8.081   8.034  18.254  0.00  0.00    +0.000 C 
ATOM      2  O   UNL     1       7.410   8.643  17.427  0.00  0.00    +0.000 OA
ATOM      3  N   UNL     1       8.928   8.622  19.178  0.00  0.00    +0.000 N 
ATOM      4  H   UNL     1       9.642   8.019  19.578  0.00  0.00    +0.000 HD
ENDROOT
BRANCH   3   5
ATOM      5  C   UNL     1       9.172  10.003  19.229  0.00  0.00    +0.000 A 
ATOM      6  C   UNL     1       9.116  10.724  20.438  0.00  0.00    +0.000 A 
ATOM      7  C   UNL     1       9.464  12.080  20.473  0.00  0.00    +0.000 A 
ATOM      8  C   UNL     1       9.836  12.670  19.284  0.00  0.00    +0.000 A 
ATOM      9  C   UNL     1       9.846  11.968  18.098  0.00  0.00    +0.000 A 
ATOM     10  C   UNL     1       9.538  10.630  18.038  0.00  0.00    +0.000 A 
ATOM     11  O   UNL     1      10.230  12.737  17.042  0.00  0.00    +0.000 OA
ATOM     12  C   UNL     1      10.740  13.859  17.769  0.00  0.00    +0.000 C 
ATOM     13  F   UNL     1      12.094  13.755  17.796  0.00  0.00    +0.000 F 
ATOM     14  F   UNL     1      10.430  14.999  17.107  0.00  0.00    +0.000 F 
ATOM     15  O   UNL     1      10.264  13.953  19.121  0.00  0.00    +0.000 OA
ENDBRANCH   3   5
BRANCH   1  16
ATOM     16  C   UNL     1       8.042   6.533  18.337  0.00  0.00    +0.000 C 
BRANCH  16  20
ATOM     17  C   UNL     1       3.618   5.493  19.811  0.00  0.00    +0.000 C 
ATOM     18  N   UNL     1       4.556   5.449  18.704  0.00  0.00    +0.000 N 
ATOM     19  N   UNL     1       5.807   5.946  18.944  0.00  0.00    +0.000 NA
ATOM     20  C   UNL     1       6.687   5.951  17.987  0.00  0.00    +0.000 A 
ATOM     21  C   UNL     1       6.431   5.375  16.654  0.00  0.00    +0.000 A 
ATOM     22  C   UNL     1       7.412   5.263  15.666  0.00  0.00    +0.000 A 
ATOM     23  C   UNL     1       7.088   4.697  14.427  0.00  0.00    +0.000 A 
ATOM     24  C   UNL     1       5.793   4.234  14.177  0.00  0.00    +0.000 A 
ATOM     25  C   UNL     1       4.821   4.326  15.172  0.00  0.00    +0.000 A 
ATOM     26  C   UNL     1       5.146   4.890  16.410  0.00  0.00    +0.000 A 
ATOM     27  C   UNL     1       4.130   4.942  17.480  0.00  0.00    +0.000 A 
ATOM     28  O   UNL     1       2.992   4.522  17.267  0.00  0.00    +0.000 OA
ENDBRANCH  16  20
ENDBRANCH   1  16
TORSDOF 3
ENDMDL
MODEL 6
REMARK VINA RESULT:      -8.8      7.247      9.146
REMARK  Name = 
REMARK  4 active torsions:
REMARK  status: ('A' for Active; 'I' for Inactive)
REMARK    1  A    between atoms: C_1  and  N_2
REMARK    2  A    between atoms: C_4  and  C_5
REMARK    3  A    between atoms: C_5  and  C_6
REMARK    4  A    between atoms: N_8  and  C_9
REMARK                            x       y       z     vdW  Elec       q    Type
REMARK                         _______ _______ _______ _____ _____    ______ ____
ROOT
ATOM      1  C   UNL     1       8.059   8.020  18.255  0.00  0.00    +0.000 C 
ATOM      2  O   UNL     1       7.412   8.587  17.381  0.00  0.00    +0.000 OA
ATOM      3  N   UNL     1       8.914   8.649  19.144  0.00  0.00    +0.000 N 
ATOM      4  H   UNL     1       9.608   8.056  19.593  0.00  0.00    +0.000 HD
ENDROOT
BRANCH   3   5
ATOM      5  C   UNL     1       9.195  10.023  19.102  0.00  0.00    +0.000 A 
ATOM      6  C   UNL     1       9.269  10.729  17.885  0.00  0.00    +0.000 A 
ATOM      7  C   UNL     1       9.450  12.118  17.880  0.00  0.00    +0.000 A 
ATOM      8  C   UNL     1       9.571  12.746  19.101  0.00  0.00    +0.000 A 
ATOM      9  C   UNL     1       9.540  12.042  20.286  0.00  0.00    +0.000 A 
ATOM     10  C   UNL     1       9.335  10.683  20.323  0.00  0.00    +0.000 A 
ATOM     11  O   UNL     1       9.689  12.846  21.374  0.00  0.00    +0.000 OA
ATOM     12  C   UNL     1       9.498  14.111  20.732  0.00  0.00    +0.000 C 
ATOM     13  F   UNL     1       8.226  14.516  20.986  0.00  0.00    +0.000 F 
ATOM     14  F   UNL     1      10.334  15.022  21.281  0.00  0.00    +0.000 F 
ATOM     15  O   UNL     1       9.691  14.087  19.309  0.00  0.00    +0.000 OA
ENDBRANCH   3   5
BRANCH   1  16
ATOM     16  C   UNL     1       7.979   6.530  18.442  0.00  0.00    +0.000 C 
BRANCH  16  20
ATOM     17  C   UNL     1       7.416   5.141  13.906  0.00  0.00    +0.000 C 
ATOM     18  N   UNL     1       6.824   5.183  15.231  0.00  0.00    +0.000 N 
ATOM     19  N   UNL     1       7.560   5.793  16.208  0.00  0.00    +0.000 NA
ATOM     20  C   UNL     1       7.092   5.847  17.421  0.00  0.00    +0.000 A 
ATOM     21  C   UNL     1       5.758   5.340  17.793  0.00  0.00    +0.000 A 
ATOM     22  C   UNL     1       5.201   5.509  19.063  0.00  0.00    +0.000 A 
ATOM     23  C   UNL     1       3.924   5.001  19.333  0.00  0.00    +0.000 A 
ATOM     24  C   UNL     1       3.201   4.337  18.339  0.00  0.00    +0.000 A 
ATOM     25  C   UNL     1       3.749   4.189  17.066  0.00  0.00    +0.000 A 
ATOM     26  C   UNL     1       5.024   4.698  16.795  0.00  0.00    +0.000 A 
ATOM     27  C   UNL     1       5.584   4.585  15.434  0.00  0.00    +0.000 A 
ATOM     28  O   UNL     1       4.943   4.012  14.553  0.00  0.00    +0.000 OA
ENDBRANCH  16  20
ENDBRANCH   1  16
TORSDOF 3
ENDMDL
MODEL 7
REMARK VINA RESULT:      -8.7      3.787      8.467
REMARK  Name = 
REMARK  4 active torsions:
REMARK  status: ('A' for Active; 'I' for Inactive)
REMARK    1  A    between atoms: C_1  and  N_2
REMARK    2  A    between atoms: C_4  and  C_5
REMARK    3  A    between atoms: C_5  and  C_6
REMARK    4  A    between atoms: N_8  and  C_9
REMARK                            x       y       z     vdW  Elec       q    Type
REMARK                         _______ _______ _______ _____ _____    ______ ____
ROOT
ATOM      1  C   UNL     1       1.831   8.768  18.693  0.00  0.00    +0.000 C 
ATOM      2  O   UNL     1       1.450   8.567  19.841  0.00  0.00    +0.000 OA
ATOM      3  N   UNL     1       2.431   7.823  17.878  0.00  0.00    +0.000 N 
ATOM      4  H   UNL     1       2.969   8.184  17.095  0.00  0.00    +0.000 HD
ENDROOT
BRANCH   3   5
ATOM      5  C   UNL     1       2.741   6.522  18.306  0.00  0.00    +0.000 A 
ATOM      6  C   UNL     1       3.992   6.203  18.870  0.00  0.00    +0.000 A 
ATOM      7  C   UNL     1       4.234   4.922  19.380  0.00  0.00    +0.000 A 
ATOM      8  C   UNL     1       3.215   3.999  19.287  0.00  0.00    +0.000 A 
ATOM      9  C   UNL     1       2.009   4.307  18.695  0.00  0.00    +0.000 A 
ATOM     10  C   UNL     1       1.732   5.563  18.211  0.00  0.00    +0.000 A 
ATOM     11  O   UNL     1       1.146   3.254  18.693  0.00  0.00    +0.000 OA
ATOM     12  C   UNL     1       1.843   2.405  19.611  0.00  0.00    +0.000 C 
ATOM     13  F   UNL     1       1.231   2.513  20.820  0.00  0.00    +0.000 F 
ATOM     14  F   UNL     1       1.726   1.119  19.207  0.00  0.00    +0.000 F 
ATOM     15  O   UNL     1       3.232   2.727  19.775  0.00  0.00    +0.000 OA
ENDBRANCH   3   5
BRANCH   1  16
ATOM     16  C   UNL     1       1.674  10.115  18.043  0.00  0.00    +0.000 C 
BRANCH  16  20
ATOM     17  C   UNL     1       0.708  13.484  21.290  0.00  0.00    +0.000 C 
ATOM     18  N   UNL     1       0.159  12.601  20.276  0.00  0.00    +0.000 N 
ATOM     19  N   UNL     1       1.047  11.781  19.638  0.00  0.00    +0.000 NA
ATOM     20  C   UNL     1       0.620  10.979  18.707  0.00  0.00    +0.000 A 
ATOM     21  C   UNL     1      -0.803  10.850  18.344  0.00  0.00    +0.000 A 
ATOM     22  C   UNL     1      -1.281   9.901  17.438  0.00  0.00    +0.000 A 
ATOM     23  C   UNL     1      -2.650   9.842  17.153  0.00  0.00    +0.000 A 
ATOM     24  C   UNL     1      -3.543  10.717  17.778  0.00  0.00    +0.000 A 
ATOM     25  C   UNL     1      -3.067  11.648  18.699  0.00  0.00    +0.000 A 
ATOM     26  C   UNL     1      -1.699  11.707  18.986  0.00  0.00    +0.000 A 
ATOM     27  C   UNL     1      -1.203  12.659  19.998  0.00  0.00    +0.000 A 
ATOM     28  O   UNL     1      -1.989  13.422  20.560  0.00  0.00    +0.000 OA
ENDBRANCH  16  20
ENDBRANCH   1  16
TORSDOF 3
ENDMDL
MODEL 8
REMARK VINA RESULT:      -8.7      2.994      3.928
REMARK  Name = 
REMARK  4 active torsions:
REMARK  status: ('A' for Active; 'I' for Inactive)
REMARK    1  A    between atoms: C_1  and  N_2
REMARK    2  A    between atoms: C_4  and  C_5
REMARK    3  A    between atoms: C_5  and  C_6
REMARK    4  A    between atoms: N_8  and  C_9
REMARK                            x       y       z     vdW  Elec       q    Type
REMARK                         _______ _______ _______ _____ _____    ______ ____
ROOT
ATOM      1  C   UNL     1       2.028   8.476  18.183  0.00  0.00    +0.000 C 
ATOM      2  O   UNL     1       2.106   8.057  19.334  0.00  0.00    +0.000 OA
ATOM      3  N   UNL     1       1.264   9.559  17.782  0.00  0.00    +0.000 N 
ATOM      4  H   UNL     1       1.041   9.607  16.791  0.00  0.00    +0.000 HD
ENDROOT
BRANCH   3   5
ATOM      5  C   UNL     1       0.423  10.271  18.650  0.00  0.00    +0.000 A 
ATOM      6  C   UNL     1      -0.918  10.553  18.322  0.00  0.00    +0.000 A 
ATOM      7  C   UNL     1      -1.761  11.176  19.251  0.00  0.00    +0.000 A 
ATOM      8  C   UNL     1      -1.218  11.513  20.473  0.00  0.00    +0.000 A 
ATOM      9  C   UNL     1       0.106  11.272  20.770  0.00  0.00    +0.000 A 
ATOM     10  C   UNL     1       0.949  10.637  19.890  0.00  0.00    +0.000 A 
ATOM     11  O   UNL     1       0.443  11.692  22.021  0.00  0.00    +0.000 OA
ATOM     12  C   UNL     1      -0.875  11.913  22.534  0.00  0.00    +0.000 C 
ATOM     13  F   UNL     1      -1.201  10.846  23.309  0.00  0.00    +0.000 F 
ATOM     14  F   UNL     1      -0.867  13.009  23.328  0.00  0.00    +0.000 F 
ATOM     15  O   UNL     1      -1.884  12.066  21.525  0.00  0.00    +0.000 OA
ENDBRANCH   3   5
BRANCH   1  16
ATOM     16  C   UNL     1       2.786   7.820  17.061  0.00  0.00    +0.000 C 
BRANCH  16  20
ATOM     17  C   UNL     1       7.337   6.680  17.963  0.00  0.00    +0.000 C 
ATOM     18  N   UNL     1       5.960   6.220  17.968  0.00  0.00    +0.000 N 
ATOM     19  N   UNL     1       5.017   7.112  17.540  0.00  0.00    +0.000 NA
ATOM     20  C   UNL     1       3.764   6.765  17.538  0.00  0.00    +0.000 A 
ATOM     21  C   UNL     1       3.300   5.416  17.911  0.00  0.00    +0.000 A 
ATOM     22  C   UNL     1       1.972   5.000  17.790  0.00  0.00    +0.000 A 
ATOM     23  C   UNL     1       1.616   3.698  18.161  0.00  0.00    +0.000 A 
ATOM     24  C   UNL     1       2.582   2.809  18.641  0.00  0.00    +0.000 A 
ATOM     25  C   UNL     1       3.910   3.219  18.741  0.00  0.00    +0.000 A 
ATOM     26  C   UNL     1       4.267   4.519  18.368  0.00  0.00    +0.000 A 
ATOM     27  C   UNL     1       5.681   4.936  18.427  0.00  0.00    +0.000 A 
ATOM     28  O   UNL     1       6.536   4.150  18.838  0.00  0.00    +0.000 OA
ENDBRANCH  16  20
ENDBRANCH   1  16
TORSDOF 3
ENDMDL
MODEL 9
REMARK VINA RESULT:      -8.7      6.717      8.830
REMARK  Name = 
REMARK  4 active torsions:
REMARK  status: ('A' for Active; 'I' for Inactive)
REMARK    1  A    between atoms: C_1  and  N_2
REMARK    2  A    between atoms: C_4  and  C_5
REMARK    3  A    between atoms: C_5  and  C_6
REMARK    4  A    between atoms: N_8  and  C_9
REMARK                            x       y       z     vdW  Elec       q    Type
REMARK                         _______ _______ _______ _____ _____    ______ ____
ROOT
ATOM      1  C   UNL     1       8.025   7.864  18.214  0.00  0.00    +0.000 C 
ATOM      2  O   UNL     1       7.437   8.389  17.273  0.00  0.00    +0.000 OA
ATOM      3  N   UNL     1       8.808   8.537  19.136  0.00  0.00    +0.000 N 
ATOM      4  H   UNL     1       9.473   7.971  19.657  0.00  0.00    +0.000 HD
ENDROOT
BRANCH   3   5
ATOM      5  C   UNL     1       9.079   9.912  19.058  0.00  0.00    +0.000 A 
ATOM      6  C   UNL     1       8.833  10.653  17.886  0.00  0.00    +0.000 A 
ATOM      7  C   UNL     1       9.018  12.042  17.872  0.00  0.00    +0.000 A 
ATOM      8  C   UNL     1       9.464  12.633  19.034  0.00  0.00    +0.000 A 
ATOM      9  C   UNL     1       9.744  11.895  20.164  0.00  0.00    +0.000 A 
ATOM     10  C   UNL     1       9.545  10.536  20.216  0.00  0.00    +0.000 A 
ATOM     11  O   UNL     1      10.185  12.667  21.195  0.00  0.00    +0.000 OA
ATOM     12  C   UNL     1       9.840  13.950  20.662  0.00  0.00    +0.000 C 
ATOM     13  F   UNL     1       8.686  14.349  21.257  0.00  0.00    +0.000 F 
ATOM     14  F   UNL     1      10.801  14.844  20.994  0.00  0.00    +0.000 F 
ATOM     15  O   UNL     1       9.648  13.968  19.240  0.00  0.00    +0.000 OA
ENDBRANCH   3   5
BRANCH   1  16
ATOM     16  C   UNL     1       7.944   6.381  18.455  0.00  0.00    +0.000 C 
BRANCH  16  20
ATOM     17  C   UNL     1       3.524   5.217  19.846  0.00  0.00    +0.000 C 
ATOM     18  N   UNL     1       4.475   5.224  18.748  0.00  0.00    +0.000 N 
ATOM     19  N   UNL     1       5.714   5.737  19.019  0.00  0.00    +0.000 NA
ATOM     20  C   UNL     1       6.604   5.787  18.072  0.00  0.00    +0.000 A 
ATOM     21  C   UNL     1       6.373   5.249  16.718  0.00  0.00    +0.000 A 
ATOM     22  C   UNL     1       7.366   5.186  15.738  0.00  0.00    +0.000 A 
ATOM     23  C   UNL     1       7.065   4.654  14.479  0.00  0.00    +0.000 A 
ATOM     24  C   UNL     1       5.782   4.176  14.200  0.00  0.00    +0.000 A 
ATOM     25  C   UNL     1       4.798   4.219  15.186  0.00  0.00    +0.000 A 
ATOM     26  C   UNL     1       5.099   4.749  16.445  0.00  0.00    +0.000 A 
ATOM     27  C   UNL     1       4.071   4.749  17.505  0.00  0.00    +0.000 A 
ATOM     28  O   UNL     1       2.943   4.316  17.265  0.00  0.00    +0.000 OA
ENDBRANCH  16  20
ENDBRANCH   1  16
TORSDOF 3
ENDMDL
