MODEL 1
REMARK VINA RESULT:      -7.8      0.000      0.000
REMARK  Name = 
REMARK  3 active torsions:
REMARK  status: ('A' for Active; 'I' for Inactive)
REMARK    1  A    between atoms: C_2  and  C_3
REMARK    2  A    between atoms: C_17  and  O_18
REMARK    3  A    between atoms: O_18  and  C_19
REMARK                            x       y       z     vdW  Elec       q    Type
REMARK                         _______ _______ _______ _____ _____    ______ ____
ROOT
ATOM      1  O   UNL     1       2.263   8.651  17.053  0.00  0.00    +0.000 OA
ATOM      2  C   UNL     1       2.228   8.154  18.180  0.00  0.00    +0.000 C 
ATOM      3  N   UNL     1       1.617   8.799  19.257  0.00  0.00    +0.000 N 
ATOM      4  C   UNL     1       1.455   8.278  20.609  0.00  0.00    +0.000 C 
ATOM      5  C   UNL     1       0.020   8.391  21.083  0.00  0.00    +0.000 C 
ATOM      6  C   UNL     1      -0.477   9.835  21.037  0.00  0.00    +0.000 C 
ATOM      7  C   UNL     1      -0.296  10.358  19.600  0.00  0.00    +0.000 C 
ATOM      8  C   UNL     1       1.138  10.175  19.081  0.00  0.00    +0.000 C 
ENDROOT
BRANCH   2   9
ATOM      9  C   UNL     1       2.822   6.777  18.383  0.00  0.00    +0.000 A 
ATOM     10  C   UNL     1       2.030   5.709  18.188  0.00  0.00    +0.000 A 
ATOM     11  C   UNL     1       2.561   4.362  18.432  0.00  0.00    +0.000 A 
ATOM     12  C   UNL     1       1.812   3.217  18.147  0.00  0.00    +0.000 A 
ATOM     13  C   UNL     1       2.338   1.948  18.417  0.00  0.00    +0.000 A 
ATOM     14  C   UNL     1       3.602   1.815  18.993  0.00  0.00    +0.000 A 
ATOM     15  C   UNL     1       4.360   2.947  19.281  0.00  0.00    +0.000 A 
ATOM     16  C   UNL     1       3.844   4.212  18.980  0.00  0.00    +0.000 A 
ATOM     17  C   UNL     1       4.679   5.421  19.179  0.00  0.00    +0.000 A 
ATOM     18  O   UNL     1       5.792   5.368  19.685  0.00  0.00    +0.000 OA
ATOM     19  N   UNL     1       4.134   6.609  18.757  0.00  0.00    +0.000 N 
ATOM     20  H   UNL     1       4.744   7.413  18.818  0.00  0.00    +0.000 HD
ENDBRANCH   2   9
BRANCH   6  21
ATOM     21  O   UNL     1       0.261  10.695  21.920  0.00  0.00    +0.000 OA
BRANCH  21  22
ATOM     22  C   UNL     1      -0.281  11.909  22.245  0.00  0.00    +0.000 A 
ATOM     23  C   UNL     1       0.199  13.157  21.841  0.00  0.00    +0.000 A 
ATOM     24  C   UNL     1      -0.499  14.326  22.155  0.00  0.00    +0.000 A 
ATOM     25  C   UNL     1      -1.663  14.260  22.916  0.00  0.00    +0.000 A 
ATOM     26  C   UNL     1      -2.138  13.024  23.349  0.00  0.00    +0.000 A 
ATOM     27  C   UNL     1      -1.454  11.851  23.005  0.00  0.00    +0.000 A 
ENDBRANCH  21  22
ENDBRANCH   6  21
TORSDOF 3
ENDMDL
MODEL 2
REMARK VINA RESULT:      -7.3      2.464      8.958
REMARK  Name = 
REMARK  3 active torsions:
REMARK  status: ('A' for Active; 'I' for Inactive)
REMARK    1  A    between atoms: C_2  and  C_3
REMARK    2  A    between atoms: C_17  and  O_18
REMARK    3  A    between atoms: O_18  and  C_19
REMARK                            x       y       z     vdW  Elec       q    Type
REMARK                         _______ _______ _______ _____ _____    ______ ____
ROOT
ATOM      1  O   UNL     1      -0.191   8.322  21.728  0.00  0.00    +0.000 OA
ATOM      2  C   UNL     1       0.555   8.616  20.792  0.00  0.00    +0.000 C 
ATOM      3  N   UNL     1       1.512   7.727  20.299  0.00  0.00    +0.000 N 
ATOM      4  C   UNL     1       2.395   7.939  19.158  0.00  0.00    +0.000 C 
ATOM      5  C   UNL     1       2.342   6.779  18.186  0.00  0.00    +0.000 C 
ATOM      6  C   UNL     1       2.703   5.458  18.863  0.00  0.00    +0.000 C 
ATOM      7  C   UNL     1       1.755   5.259  20.061  0.00  0.00    +0.000 C 
ATOM      8  C   UNL     1       1.742   6.465  21.011  0.00  0.00    +0.000 C 
ENDROOT
BRANCH   2   9
ATOM      9  C   UNL     1       0.387   9.965  20.128  0.00  0.00    +0.000 A 
ATOM     10  C   UNL     1       1.066  11.010  20.630  0.00  0.00    +0.000 A 
ATOM     11  C   UNL     1       0.881  12.342  20.042  0.00  0.00    +0.000 A 
ATOM     12  C   UNL     1       1.639  13.439  20.460  0.00  0.00    +0.000 A 
ATOM     13  C   UNL     1       1.417  14.703  19.898  0.00  0.00    +0.000 A 
ATOM     14  C   UNL     1       0.425  14.882  18.934  0.00  0.00    +0.000 A 
ATOM     15  C   UNL     1      -0.337  13.798  18.507  0.00  0.00    +0.000 A 
ATOM     16  C   UNL     1      -0.091  12.532  19.048  0.00  0.00    +0.000 A 
ATOM     17  C   UNL     1      -0.818  11.349  18.528  0.00  0.00    +0.000 A 
ATOM     18  O   UNL     1      -1.702  11.444  17.688  0.00  0.00    +0.000 OA
ATOM     19  N   UNL     1      -0.437  10.132  19.039  0.00  0.00    +0.000 N 
ATOM     20  H   UNL     1      -0.877   9.326  18.617  0.00  0.00    +0.000 HD
ENDBRANCH   2   9
BRANCH   6  21
ATOM     21  O   UNL     1       4.052   5.449  19.358  0.00  0.00    +0.000 OA
BRANCH  21  22
ATOM     22  C   UNL     1       5.053   5.083  18.501  0.00  0.00    +0.000 A 
ATOM     23  C   UNL     1       4.886   4.500  17.242  0.00  0.00    +0.000 A 
ATOM     24  C   UNL     1       5.986   4.262  16.414  0.00  0.00    +0.000 A 
ATOM     25  C   UNL     1       7.270   4.563  16.858  0.00  0.00    +0.000 A 
ATOM     26  C   UNL     1       7.455   5.118  18.122  0.00  0.00    +0.000 A 
ATOM     27  C   UNL     1       6.347   5.387  18.937  0.00  0.00    +0.000 A 
ENDBRANCH  21  22
ENDBRANCH   6  21
TORSDOF 3
ENDMDL
MODEL 3
REMARK VINA RESULT:      -7.2      1.767      8.556
REMARK  Name = 
REMARK  3 active torsions:
REMARK  status: ('A' for Active; 'I' for Inactive)
REMARK    1  A    between atoms: C_2  and  C_3
REMARK    2  A    between atoms: C_17  and  O_18
REMARK    3  A    between atoms: O_18  and  C_19
REMARK                            x       y       z     vdW  Elec       q    Type
REMARK                         _______ _______ _______ _____ _____    ______ ____
ROOT
ATOM      1  O   UNL     1       1.989  11.011  18.225  0.00  0.00    +0.000 OA
ATOM      2  C   UNL     1       1.521  10.078  18.878  0.00  0.00    +0.000 C 
ATOM      3  N   UNL     1       1.866   8.748  18.624  0.00  0.00    +0.000 N 
ATOM      4  C   UNL     1       1.431   7.575  19.373  0.00  0.00    +0.000 C 
ATOM      5  C   UNL     1       2.603   6.703  19.776  0.00  0.00    +0.000 C 
ATOM      6  C   UNL     1       3.416   6.254  18.562  0.00  0.00    +0.000 C 
ATOM      7  C   UNL     1       3.862   7.511  17.793  0.00  0.00    +0.000 C 
ATOM      8  C   UNL     1       2.690   8.441  17.449  0.00  0.00    +0.000 C 
ENDROOT
BRANCH   2   9
ATOM      9  C   UNL     1       0.584  10.392  20.023  0.00  0.00    +0.000 A 
ATOM     10  C   UNL     1      -0.417  11.262  19.805  0.00  0.00    +0.000 A 
ATOM     11  C   UNL     1      -1.308  11.630  20.912  0.00  0.00    +0.000 A 
ATOM     12  C   UNL     1      -2.423  12.450  20.713  0.00  0.00    +0.000 A 
ATOM     13  C   UNL     1      -3.237  12.804  21.795  0.00  0.00    +0.000 A 
ATOM     14  C   UNL     1      -2.931  12.362  23.083  0.00  0.00    +0.000 A 
ATOM     15  C   UNL     1      -1.825  11.544  23.296  0.00  0.00    +0.000 A 
ATOM     16  C   UNL     1      -1.033  11.166  22.207  0.00  0.00    +0.000 A 
ATOM     17  C   UNL     1       0.084  10.211  22.398  0.00  0.00    +0.000 A 
ATOM     18  O   UNL     1       0.403   9.793  23.503  0.00  0.00    +0.000 OA
ATOM     19  N   UNL     1       0.740   9.811  21.260  0.00  0.00    +0.000 N 
ATOM     20  H   UNL     1       1.442   9.095  21.390  0.00  0.00    +0.000 HD
ENDBRANCH   2   9
BRANCH   6  21
ATOM     21  O   UNL     1       2.651   5.433  17.666  0.00  0.00    +0.000 OA
BRANCH  21  22
ATOM     22  C   UNL     1       2.481   4.112  17.983  0.00  0.00    +0.000 A 
ATOM     23  C   UNL     1       3.468   3.125  17.942  0.00  0.00    +0.000 A 
ATOM     24  C   UNL     1       3.198   1.827  18.385  0.00  0.00    +0.000 A 
ATOM     25  C   UNL     1       1.922   1.495  18.831  0.00  0.00    +0.000 A 
ATOM     26  C   UNL     1       0.920   2.463  18.851  0.00  0.00    +0.000 A 
ATOM     27  C   UNL     1       1.203   3.771  18.437  0.00  0.00    +0.000 A 
ENDBRANCH  21  22
ENDBRANCH   6  21
TORSDOF 3
ENDMDL
MODEL 4
REMARK VINA RESULT:      -7.2      1.249      1.299
REMARK  Name = 
REMARK  3 active torsions:
REMARK  status: ('A' for Active; 'I' for Inactive)
REMARK    1  A    between atoms: C_2  and  C_3
REMARK    2  A    between atoms: C_17  and  O_18
REMARK    3  A    between atoms: O_18  and  C_19
REMARK                            x       y       z     vdW  Elec       q    Type
REMARK                         _______ _______ _______ _____ _____    ______ ____
ROOT
ATOM      1  O   UNL     1       2.401   8.586  17.334  0.00  0.00    +0.000 OA
ATOM      2  C   UNL     1       2.138   8.193  18.472  0.00  0.00    +0.000 C 
ATOM      3  N   UNL     1       1.530   9.019  19.420  0.00  0.00    +0.000 N 
ATOM      4  C   UNL     1       1.111   8.643  20.765  0.00  0.00    +0.000 C 
ATOM      5  C   UNL     1      -0.325   9.042  21.036  0.00  0.00    +0.000 C 
ATOM      6  C   UNL     1      -0.539  10.543  20.843  0.00  0.00    +0.000 C 
ATOM      7  C   UNL     1      -0.091  10.911  19.416  0.00  0.00    +0.000 C 
ATOM      8  C   UNL     1       1.337  10.439  19.105  0.00  0.00    +0.000 C 
ENDROOT
BRANCH   2   9
ATOM      9  C   UNL     1       2.439   6.754  18.829  0.00  0.00    +0.000 A 
ATOM     10  C   UNL     1       2.702   5.893  17.831  0.00  0.00    +0.000 A 
ATOM     11  C   UNL     1       2.942   4.479  18.141  0.00  0.00    +0.000 A 
ATOM     12  C   UNL     1       3.320   3.566  17.153  0.00  0.00    +0.000 A 
ATOM     13  C   UNL     1       3.515   2.218  17.478  0.00  0.00    +0.000 A 
ATOM     14  C   UNL     1       3.312   1.770  18.784  0.00  0.00    +0.000 A 
ATOM     15  C   UNL     1       2.937   2.669  19.779  0.00  0.00    +0.000 A 
ATOM     16  C   UNL     1       2.775   4.020  19.457  0.00  0.00    +0.000 A 
ATOM     17  C   UNL     1       2.482   5.008  20.523  0.00  0.00    +0.000 A 
ATOM     18  O   UNL     1       2.288   4.675  21.685  0.00  0.00    +0.000 OA
ATOM     19  N   UNL     1       2.446   6.325  20.135  0.00  0.00    +0.000 N 
ATOM     20  H   UNL     1       2.331   6.996  20.882  0.00  0.00    +0.000 HD
ENDBRANCH   2   9
BRANCH   6  21
ATOM     21  O   UNL     1       0.232  11.328  21.767  0.00  0.00    +0.000 OA
BRANCH  21  22
ATOM     22  C   UNL     1      -0.291  12.514  22.203  0.00  0.00    +0.000 A 
ATOM     23  C   UNL     1       0.163  13.789  21.856  0.00  0.00    +0.000 A 
ATOM     24  C   UNL     1      -0.518  14.931  22.287  0.00  0.00    +0.000 A 
ATOM     25  C   UNL     1      -1.634  14.808  23.109  0.00  0.00    +0.000 A 
ATOM     26  C   UNL     1      -2.082  13.544  23.486  0.00  0.00    +0.000 A 
ATOM     27  C   UNL     1      -1.417  12.400  23.025  0.00  0.00    +0.000 A 
ENDBRANCH  21  22
ENDBRANCH   6  21
TORSDOF 3
ENDMDL
MODEL 5
REMARK VINA RESULT:      -7.2      3.069      4.067
REMARK  Name = 
REMARK  3 active torsions:
REMARK  status: ('A' for Active; 'I' for Inactive)
REMARK    1  A    between atoms: C_2  and  C_3
REMARK    2  A    between atoms: C_17  and  O_18
REMARK    3  A    between atoms: O_18  and  C_19
REMARK                            x       y       z     vdW  Elec       q    Type
REMARK                         _______ _______ _______ _____ _____    ______ ____
ROOT
ATOM      1  O   UNL     1       3.799   5.371  19.887  0.00  0.00    +0.000 OA
ATOM      2  C   UNL     1       3.646   6.088  18.897  0.00  0.00    +0.000 C 
ATOM      3  N   UNL     1       2.653   7.068  18.837  0.00  0.00    +0.000 N 
ATOM      4  C   UNL     1       2.426   8.016  17.752  0.00  0.00    +0.000 C 
ATOM      5  C   UNL     1       2.329   9.438  18.263  0.00  0.00    +0.000 C 
ATOM      6  C   UNL     1       1.221   9.590  19.305  0.00  0.00    +0.000 C 
ATOM      7  C   UNL     1       1.487   8.581  20.437  0.00  0.00    +0.000 C 
ATOM      8  C   UNL     1       1.666   7.146  19.920  0.00  0.00    +0.000 C 
ENDROOT
BRANCH   2   9
ATOM      9  C   UNL     1       4.601   5.931  17.734  0.00  0.00    +0.000 A 
ATOM     10  C   UNL     1       4.305   5.025  16.786  0.00  0.00    +0.000 A 
ATOM     11  C   UNL     1       5.240   4.810  15.675  0.00  0.00    +0.000 A 
ATOM     12  C   UNL     1       4.931   3.956  14.613  0.00  0.00    +0.000 A 
ATOM     13  C   UNL     1       5.857   3.752  13.582  0.00  0.00    +0.000 A 
ATOM     14  C   UNL     1       7.102   4.380  13.618  0.00  0.00    +0.000 A 
ATOM     15  C   UNL     1       7.424   5.234  14.669  0.00  0.00    +0.000 A 
ATOM     16  C   UNL     1       6.484   5.460  15.680  0.00  0.00    +0.000 A 
ATOM     17  C   UNL     1       6.766   6.448  16.749  0.00  0.00    +0.000 A 
ATOM     18  O   UNL     1       7.841   7.025  16.836  0.00  0.00    +0.000 OA
ATOM     19  N   UNL     1       5.746   6.686  17.637  0.00  0.00    +0.000 N 
ATOM     20  H   UNL     1       5.917   7.423  18.309  0.00  0.00    +0.000 HD
ENDBRANCH   2   9
BRANCH   6  21
ATOM     21  O   UNL     1      -0.080   9.315  18.761  0.00  0.00    +0.000 OA
BRANCH  21  22
ATOM     22  C   UNL     1      -1.073  10.235  18.960  0.00  0.00    +0.000 A 
ATOM     23  C   UNL     1      -1.105  11.203  19.967  0.00  0.00    +0.000 A 
ATOM     24  C   UNL     1      -2.128  12.155  20.008  0.00  0.00    +0.000 A 
ATOM     25  C   UNL     1      -3.153  12.118  19.068  0.00  0.00    +0.000 A 
ATOM     26  C   UNL     1      -3.148  11.141  18.075  0.00  0.00    +0.000 A 
ATOM     27  C   UNL     1      -2.104  10.208  18.016  0.00  0.00    +0.000 A 
ENDBRANCH  21  22
ENDBRANCH   6  21
TORSDOF 3
ENDMDL
MODEL 6
REMARK VINA RESULT:      -7.2      1.044      1.064
REMARK  Name = 
REMARK  3 active torsions:
REMARK  status: ('A' for Active; 'I' for Inactive)
REMARK    1  A    between atoms: C_2  and  C_3
REMARK    2  A    between atoms: C_17  and  O_18
REMARK    3  A    between atoms: O_18  and  C_19
REMARK                            x       y       z     vdW  Elec       q    Type
REMARK                         _______ _______ _______ _____ _____    ______ ____
ROOT
ATOM      1  O   UNL     1       2.077   8.884  17.262  0.00  0.00    +0.000 OA
ATOM      2  C   UNL     1       2.036   8.442  18.411  0.00  0.00    +0.000 C 
ATOM      3  N   UNL     1       1.430   9.144  19.455  0.00  0.00    +0.000 N 
ATOM      4  C   UNL     1       1.261   8.689  20.831  0.00  0.00    +0.000 C 
ATOM      5  C   UNL     1      -0.173   8.838  21.297  0.00  0.00    +0.000 C 
ATOM      6  C   UNL     1      -0.657  10.282  21.180  0.00  0.00    +0.000 C 
ATOM      7  C   UNL     1      -0.469  10.734  19.720  0.00  0.00    +0.000 C 
ATOM      8  C   UNL     1       0.963  10.513  19.213  0.00  0.00    +0.000 C 
ENDROOT
BRANCH   2   9
ATOM      9  C   UNL     1       2.617   7.071  18.680  0.00  0.00    +0.000 A 
ATOM     10  C   UNL     1       1.958   6.256  19.521  0.00  0.00    +0.000 A 
ATOM     11  C   UNL     1       2.525   4.942  19.847  0.00  0.00    +0.000 A 
ATOM     12  C   UNL     1       1.831   4.018  20.633  0.00  0.00    +0.000 A 
ATOM     13  C   UNL     1       2.413   2.784  20.947  0.00  0.00    +0.000 A 
ATOM     14  C   UNL     1       3.697   2.474  20.499  0.00  0.00    +0.000 A 
ATOM     15  C   UNL     1       4.400   3.383  19.713  0.00  0.00    +0.000 A 
ATOM     16  C   UNL     1       3.803   4.602  19.375  0.00  0.00    +0.000 A 
ATOM     17  C   UNL     1       4.492   5.536  18.452  0.00  0.00    +0.000 A 
ATOM     18  O   UNL     1       5.620   5.322  18.031  0.00  0.00    +0.000 OA
ATOM     19  N   UNL     1       3.788   6.658  18.089  0.00  0.00    +0.000 N 
ATOM     20  H   UNL     1       4.230   7.243  17.394  0.00  0.00    +0.000 HD
ENDBRANCH   2   9
BRANCH   6  21
ATOM     21  O   UNL     1       0.088  11.177  22.022  0.00  0.00    +0.000 OA
BRANCH  21  22
ATOM     22  C   UNL     1      -0.491  12.365  22.377  0.00  0.00    +0.000 A 
ATOM     23  C   UNL     1      -0.026  13.638  22.039  0.00  0.00    +0.000 A 
ATOM     24  C   UNL     1      -0.760  14.779  22.376  0.00  0.00    +0.000 A 
ATOM     25  C   UNL     1      -1.945  14.657  23.096  0.00  0.00    +0.000 A 
ATOM     26  C   UNL     1      -2.406  13.395  23.464  0.00  0.00    +0.000 A 
ATOM     27  C   UNL     1      -1.685  12.251  23.096  0.00  0.00    +0.000 A 
ENDBRANCH  21  22
ENDBRANCH   6  21
TORSDOF 3
ENDMDL
MODEL 7
REMARK VINA RESULT:      -7.2      2.470      8.961
REMARK  Name = 
REMARK  3 active torsions:
REMARK  status: ('A' for Active; 'I' for Inactive)
REMARK    1  A    between atoms: C_2  and  C_3
REMARK    2  A    between atoms: C_17  and  O_18
REMARK    3  A    between atoms: O_18  and  C_19
REMARK                            x       y       z     vdW  Elec       q    Type
REMARK                         _______ _______ _______ _____ _____    ______ ____
ROOT
ATOM      1  O   UNL     1       0.055   8.343  21.668  0.00  0.00    +0.000 OA
ATOM      2  C   UNL     1       0.716   8.649  20.674  0.00  0.00    +0.000 C 
ATOM      3  N   UNL     1       1.629   7.768  20.089  0.00  0.00    +0.000 N 
ATOM      4  C   UNL     1       2.408   7.995  18.878  0.00  0.00    +0.000 C 
ATOM      5  C   UNL     1       2.272   6.845  17.902  0.00  0.00    +0.000 C 
ATOM      6  C   UNL     1       2.693   5.518  18.531  0.00  0.00    +0.000 C 
ATOM      7  C   UNL     1       1.854   5.303  19.804  0.00  0.00    +0.000 C 
ATOM      8  C   UNL     1       1.922   6.499  20.765  0.00  0.00    +0.000 C 
ENDROOT
BRANCH   2   9
ATOM      9  C   UNL     1       0.488  10.004  20.042  0.00  0.00    +0.000 A 
ATOM     10  C   UNL     1       1.146  11.061  20.550  0.00  0.00    +0.000 A 
ATOM     11  C   UNL     1       0.903  12.398  19.995  0.00  0.00    +0.000 A 
ATOM     12  C   UNL     1       1.635  13.511  20.417  0.00  0.00    +0.000 A 
ATOM     13  C   UNL     1       1.359  14.777  19.887  0.00  0.00    +0.000 A 
ATOM     14  C   UNL     1       0.338  14.943  18.950  0.00  0.00    +0.000 A 
ATOM     15  C   UNL     1      -0.398  13.843  18.519  0.00  0.00    +0.000 A 
ATOM     16  C   UNL     1      -0.098  12.575  19.027  0.00  0.00    +0.000 A 
ATOM     17  C   UNL     1      -0.798  11.379  18.501  0.00  0.00    +0.000 A 
ATOM     18  O   UNL     1      -1.705  11.462  17.683  0.00  0.00    +0.000 OA
ATOM     19  N   UNL     1      -0.366  10.166  18.977  0.00  0.00    +0.000 N 
ATOM     20  H   UNL     1      -0.790   9.354  18.549  0.00  0.00    +0.000 HD
ENDBRANCH   2   9
BRANCH   6  21
ATOM     21  O   UNL     1       4.080   5.507  18.905  0.00  0.00    +0.000 OA
BRANCH  21  22
ATOM     22  C   UNL     1       5.018   5.380  17.917  0.00  0.00    +0.000 A 
ATOM     23  C   UNL     1       6.171   6.155  17.774  0.00  0.00    +0.000 A 
ATOM     24  C   UNL     1       7.107   5.864  16.778  0.00  0.00    +0.000 A 
ATOM     25  C   UNL     1       6.875   4.821  15.886  0.00  0.00    +0.000 A 
ATOM     26  C   UNL     1       5.715   4.057  16.000  0.00  0.00    +0.000 A 
ATOM     27  C   UNL     1       4.794   4.330  17.020  0.00  0.00    +0.000 A 
ENDBRANCH  21  22
ENDBRANCH   6  21
TORSDOF 3
ENDMDL
MODEL 8
REMARK VINA RESULT:      -7.1      1.554      1.934
REMARK  Name = 
REMARK  3 active torsions:
REMARK  status: ('A' for Active; 'I' for Inactive)
REMARK    1  A    between atoms: C_2  and  C_3
REMARK    2  A    between atoms: C_17  and  O_18
REMARK    3  A    between atoms: O_18  and  C_19
REMARK                            x       y       z     vdW  Elec       q    Type
REMARK                         _______ _______ _______ _____ _____    ______ ____
ROOT
ATOM      1  O   UNL     1       2.137   9.813  17.414  0.00  0.00    +0.000 OA
ATOM      2  C   UNL     1       1.927   9.260  18.495  0.00  0.00    +0.000 C 
ATOM      3  N   UNL     1       1.195   9.874  19.513  0.00  0.00    +0.000 N 
ATOM      4  C   UNL     1       0.826   9.291  20.798  0.00  0.00    +0.000 C 
ATOM      5  C   UNL     1      -0.655   9.440  21.076  0.00  0.00    +0.000 C 
ATOM      6  C   UNL     1      -1.091  10.905  21.044  0.00  0.00    +0.000 C 
ATOM      7  C   UNL     1      -0.692  11.493  19.678  0.00  0.00    +0.000 C 
ATOM      8  C   UNL     1       0.793  11.276  19.352  0.00  0.00    +0.000 C 
ENDROOT
BRANCH   2   9
ATOM      9  C   UNL     1       2.438   7.851  18.699  0.00  0.00    +0.000 A 
ATOM     10  C   UNL     1       3.136   7.278  17.704  0.00  0.00    +0.000 A 
ATOM     11  C   UNL     1       3.596   5.891  17.849  0.00  0.00    +0.000 A 
ATOM     12  C   UNL     1       4.411   5.285  16.889  0.00  0.00    +0.000 A 
ATOM     13  C   UNL     1       4.810   3.952  17.045  0.00  0.00    +0.000 A 
ATOM     14  C   UNL     1       4.380   3.211  18.146  0.00  0.00    +0.000 A 
ATOM     15  C   UNL     1       3.569   3.802  19.111  0.00  0.00    +0.000 A 
ATOM     16  C   UNL     1       3.199   5.143  18.968  0.00  0.00    +0.000 A 
ATOM     17  C   UNL     1       2.427   5.819  20.038  0.00  0.00    +0.000 A 
ATOM     18  O   UNL     1       2.018   5.220  21.024  0.00  0.00    +0.000 OA
ATOM     19  N   UNL     1       2.201   7.162  19.865  0.00  0.00    +0.000 N 
ATOM     20  H   UNL     1       1.749   7.631  20.639  0.00  0.00    +0.000 HD
ENDBRANCH   2   9
BRANCH   6  21
ATOM     21  O   UNL     1      -0.454  11.686  22.068  0.00  0.00    +0.000 OA
BRANCH  21  22
ATOM     22  C   UNL     1      -1.233  12.512  22.831  0.00  0.00    +0.000 A 
ATOM     23  C   UNL     1      -0.909  13.813  23.224  0.00  0.00    +0.000 A 
ATOM     24  C   UNL     1      -1.832  14.598  23.921  0.00  0.00    +0.000 A 
ATOM     25  C   UNL     1      -3.072  14.070  24.272  0.00  0.00    +0.000 A 
ATOM     26  C   UNL     1      -3.396  12.765  23.910  0.00  0.00    +0.000 A 
ATOM     27  C   UNL     1      -2.483  11.992  23.182  0.00  0.00    +0.000 A 
ENDBRANCH  21  22
ENDBRANCH   6  21
TORSDOF 3
ENDMDL
MODEL 9
REMARK VINA RESULT:      -7.1      1.877      8.692
REMARK  Name = 
REMARK  3 active torsions:
REMARK  status: ('A' for Active; 'I' for Inactive)
REMARK    1  A    between atoms: C_2  and  C_3
REMARK    2  A    between atoms: C_17  and  O_18
REMARK    3  A    between atoms: O_18  and  C_19
REMARK                            x       y       z     vdW  Elec       q    Type
REMARK                         _______ _______ _______ _____ _____    ______ ____
ROOT
ATOM      1  O   UNL     1       1.512  11.339  18.350  0.00  0.00    +0.000 OA
ATOM      2  C   UNL     1       1.071  10.418  19.039  0.00  0.00    +0.000 C 
ATOM      3  N   UNL     1       1.429   9.087  18.816  0.00  0.00    +0.000 N 
ATOM      4  C   UNL     1       1.028   7.930  19.607  0.00  0.00    +0.000 C 
ATOM      5  C   UNL     1       2.220   7.087  20.011  0.00  0.00    +0.000 C 
ATOM      6  C   UNL     1       3.015   6.614  18.794  0.00  0.00    +0.000 C 
ATOM      7  C   UNL     1       3.427   7.854  17.979  0.00  0.00    +0.000 C 
ATOM      8  C   UNL     1       2.234   8.757  17.634  0.00  0.00    +0.000 C 
ENDROOT
BRANCH   2   9
ATOM      9  C   UNL     1       0.153  10.753  20.194  0.00  0.00    +0.000 A 
ATOM     10  C   UNL     1      -0.824  11.653  19.989  0.00  0.00    +0.000 A 
ATOM     11  C   UNL     1      -1.695  12.040  21.106  0.00  0.00    +0.000 A 
ATOM     12  C   UNL     1      -2.787  12.893  20.922  0.00  0.00    +0.000 A 
ATOM     13  C   UNL     1      -3.581  13.264  22.013  0.00  0.00    +0.000 A 
ATOM     14  C   UNL     1      -3.277  12.806  23.296  0.00  0.00    +0.000 A 
ATOM     15  C   UNL     1      -2.194  11.955  23.494  0.00  0.00    +0.000 A 
ATOM     16  C   UNL     1      -1.422  11.561  22.396  0.00  0.00    +0.000 A 
ATOM     17  C   UNL     1      -0.332  10.572  22.572  0.00  0.00    +0.000 A 
ATOM     18  O   UNL     1      -0.016  10.138  23.672  0.00  0.00    +0.000 OA
ATOM     19  N   UNL     1       0.303  10.160  21.426  0.00  0.00    +0.000 N 
ATOM     20  H   UNL     1       0.985   9.423  21.546  0.00  0.00    +0.000 HD
ENDBRANCH   2   9
BRANCH   6  21
ATOM     21  O   UNL     1       2.243   5.756  17.938  0.00  0.00    +0.000 OA
BRANCH  21  22
ATOM     22  C   UNL     1       2.077   4.450  18.309  0.00  0.00    +0.000 A 
ATOM     23  C   UNL     1       1.238   3.984  19.324  0.00  0.00    +0.000 A 
ATOM     24  C   UNL     1       1.078   2.613  19.544  0.00  0.00    +0.000 A 
ATOM     25  C   UNL     1       1.793   1.696  18.780  0.00  0.00    +0.000 A 
ATOM     26  C   UNL     1       2.655   2.147  17.783  0.00  0.00    +0.000 A 
ATOM     27  C   UNL     1       2.788   3.521  17.541  0.00  0.00    +0.000 A 
ENDBRANCH  21  22
ENDBRANCH   6  21
TORSDOF 3
ENDMDL
