MODEL 1
REMARK VINA RESULT:      -9.3      0.000      0.000
REMARK  Name = 
REMARK  6 active torsions:
REMARK  status: ('A' for Active; 'I' for Inactive)
REMARK    1  A    between atoms: N_10  and  C_11
REMARK    2  A    between atoms: C_15  and  C_16
REMARK    3  A    between atoms: C_16  and  C_17
REMARK    4  A    between atoms: C_17  and  C_18
REMARK    5  A    between atoms: N_22  and  C_23
REMARK    6  A    between atoms: C_23  and  C_24
REMARK                            x       y       z     vdW  Elec       q    Type
REMARK                         _______ _______ _______ _____ _____    ______ ____
ROOT
ATOM      1  C   UNL     1       1.966   8.007  19.009  0.00  0.00    +0.000 A 
ATOM      2  C   UNL     1       2.685   8.591  17.969  0.00  0.00    +0.000 A 
ATOM      3  C   UNL     1       3.572   7.830  17.208  0.00  0.00    +0.000 A 
ATOM      4  C   UNL     1       3.739   6.469  17.474  0.00  0.00    +0.000 A 
ATOM      5  C   UNL     1       3.017   5.823  18.492  0.00  0.00    +0.000 A 
ATOM      6  C   UNL     1       2.130   6.633  19.232  0.00  0.00    +0.000 A 
ENDROOT
BRANCH   1  16
ATOM      7  O   UNL     1       0.320  10.498  18.443  0.00  0.00    +0.000 OA
ATOM      8  C   UNL     1       0.432   9.924  19.514  0.00  0.00    +0.000 C 
ATOM      9  C   UNL     1      -0.223  10.404  20.736  0.00  0.00    +0.000 A 
ATOM     10  C   UNL     1      -1.040  11.504  20.907  0.00  0.00    +0.000 A 
ATOM     11  C   UNL     1      -1.522  11.750  22.192  0.00  0.00    +0.000 A 
ATOM     12  C   UNL     1      -1.177  10.902  23.261  0.00  0.00    +0.000 A 
ATOM     13  C   UNL     1      -0.356   9.787  23.060  0.00  0.00    +0.000 A 
ATOM     14  C   UNL     1       0.110   9.546  21.781  0.00  0.00    +0.000 A 
ATOM     15  C   UNL     1       0.966   8.438  21.272  0.00  0.00    +0.000 C 
ATOM     16  N   UNL     1       1.121   8.761  19.856  0.00  0.00    +0.000 N 
ENDBRANCH   1  16
BRANCH   5  17
ATOM     17  C   UNL     1       3.195   4.271  18.837  0.00  0.00    +0.000 C 
ATOM     18  C   UNL     1       1.987   3.347  18.517  0.00  0.00    +0.000 C 
ATOM     19  O   UNL     1       2.111   2.685  19.800  0.00  0.00    +0.000 OA
ATOM     20  C   UNL     1       2.928   3.783  20.287  0.00  0.00    +0.000 C 
BRANCH  17  21
ATOM     21  C   UNL     1       4.496   3.712  18.231  0.00  0.00    +0.000 C 
BRANCH  21  22
ATOM     22  C   UNL     1       5.750   4.428  18.630  0.00  0.00    +0.000 A 
ATOM     23  N   UNL     1       6.053   4.910  19.818  0.00  0.00    +0.000 NA
ATOM     24  N   UNL     1       7.298   5.484  19.751  0.00  0.00    +0.000 NA
ATOM     25  C   UNL     1       7.754   5.304  18.535  0.00  0.00    +0.000 A 
ATOM     26  N   UNL     1       6.819   4.646  17.796  0.00  0.00    +0.000 N 
BRANCH  26  27
ATOM     27  C   UNL     1       6.993   4.196  16.436  0.00  0.00    +0.000 C 
BRANCH  27  28
ATOM     28  C   UNL     1       6.423   5.140  15.397  0.00  0.00    +0.000 C 
ATOM     29  F   UNL     1       7.138   5.176  14.256  0.00  0.00    +0.000 F 
ATOM     30  F   UNL     1       5.162   4.772  15.073  0.00  0.00    +0.000 F 
ATOM     31  F   UNL     1       6.364   6.400  15.884  0.00  0.00    +0.000 F 
ENDBRANCH  27  28
ENDBRANCH  26  27
ENDBRANCH  21  22
ENDBRANCH  17  21
ENDBRANCH   5  17
TORSDOF 6
ENDMDL
MODEL 2
REMARK VINA RESULT:      -8.9      1.080      1.668
REMARK  Name = 
REMARK  6 active torsions:
REMARK  status: ('A' for Active; 'I' for Inactive)
REMARK    1  A    between atoms: N_10  and  C_11
REMARK    2  A    between atoms: C_15  and  C_16
REMARK    3  A    between atoms: C_16  and  C_17
REMARK    4  A    between atoms: C_17  and  C_18
REMARK    5  A    between atoms: N_22  and  C_23
REMARK    6  A    between atoms: C_23  and  C_24
REMARK                            x       y       z     vdW  Elec       q    Type
REMARK                         _______ _______ _______ _____ _____    ______ ____
ROOT
ATOM      1  C   UNL     1       1.787   8.383  19.084  0.00  0.00    +0.000 A 
ATOM      2  C   UNL     1       2.531   8.860  18.007  0.00  0.00    +0.000 A 
ATOM      3  C   UNL     1       3.358   8.001  17.284  0.00  0.00    +0.000 A 
ATOM      4  C   UNL     1       3.439   6.649  17.624  0.00  0.00    +0.000 A 
ATOM      5  C   UNL     1       2.688   6.109  18.682  0.00  0.00    +0.000 A 
ATOM      6  C   UNL     1       1.864   7.016  19.383  0.00  0.00    +0.000 A 
ENDROOT
BRANCH   1  16
ATOM      7  O   UNL     1       1.376   8.417  22.095  0.00  0.00    +0.000 OA
ATOM      8  C   UNL     1       0.844   9.149  21.277  0.00  0.00    +0.000 C 
ATOM      9  C   UNL     1      -0.135  10.173  21.657  0.00  0.00    +0.000 A 
ATOM     10  C   UNL     1      -0.606  10.497  22.913  0.00  0.00    +0.000 A 
ATOM     11  C   UNL     1      -1.561  11.511  22.998  0.00  0.00    +0.000 A 
ATOM     12  C   UNL     1      -2.016  12.164  21.837  0.00  0.00    +0.000 A 
ATOM     13  C   UNL     1      -1.515  11.824  20.575  0.00  0.00    +0.000 A 
ATOM     14  C   UNL     1      -0.562  10.825  20.503  0.00  0.00    +0.000 A 
ATOM     15  C   UNL     1       0.158  10.280  19.319  0.00  0.00    +0.000 C 
ATOM     16  N   UNL     1       1.003   9.237  19.894  0.00  0.00    +0.000 N 
ENDBRANCH   1  16
BRANCH   5  17
ATOM     17  C   UNL     1       2.768   4.570  19.114  0.00  0.00    +0.000 C 
ATOM     18  C   UNL     1       1.417   3.811  19.226  0.00  0.00    +0.000 C 
ATOM     19  O   UNL     1       1.819   3.215  20.483  0.00  0.00    +0.000 OA
ATOM     20  C   UNL     1       2.866   4.211  20.621  0.00  0.00    +0.000 C 
BRANCH  17  21
ATOM     21  C   UNL     1       3.768   3.798  18.232  0.00  0.00    +0.000 C 
BRANCH  21  22
ATOM     22  C   UNL     1       5.190   4.258  18.318  0.00  0.00    +0.000 A 
ATOM     23  N   UNL     1       5.828   4.691  19.386  0.00  0.00    +0.000 NA
ATOM     24  N   UNL     1       7.115   5.006  19.028  0.00  0.00    +0.000 NA
ATOM     25  C   UNL     1       7.256   4.717  17.757  0.00  0.00    +0.000 A 
ATOM     26  N   UNL     1       6.076   4.245  17.269  0.00  0.00    +0.000 N 
BRANCH  26  27
ATOM     27  C   UNL     1       5.864   3.745  15.932  0.00  0.00    +0.000 C 
BRANCH  27  28
ATOM     28  C   UNL     1       5.917   4.814  14.859  0.00  0.00    +0.000 C 
ATOM     29  F   UNL     1       5.435   6.005  15.264  0.00  0.00    +0.000 F 
ATOM     30  F   UNL     1       7.195   5.010  14.458  0.00  0.00    +0.000 F 
ATOM     31  F   UNL     1       5.208   4.432  13.773  0.00  0.00    +0.000 F 
ENDBRANCH  27  28
ENDBRANCH  26  27
ENDBRANCH  21  22
ENDBRANCH  17  21
ENDBRANCH   5  17
TORSDOF 6
ENDMDL
MODEL 3
REMARK VINA RESULT:      -8.7      0.851      1.105
REMARK  Name = 
REMARK  6 active torsions:
REMARK  status: ('A' for Active; 'I' for Inactive)
REMARK    1  A    between atoms: N_10  and  C_11
REMARK    2  A    between atoms: C_15  and  C_16
REMARK    3  A    between atoms: C_16  and  C_17
REMARK    4  A    between atoms: C_17  and  C_18
REMARK    5  A    between atoms: N_22  and  C_23
REMARK    6  A    between atoms: C_23  and  C_24
REMARK                            x       y       z     vdW  Elec       q    Type
REMARK                         _______ _______ _______ _____ _____    ______ ____
ROOT
ATOM      1  C   UNL     1       1.769   8.376  19.204  0.00  0.00    +0.000 A 
ATOM      2  C   UNL     1       2.456   8.791  18.065  0.00  0.00    +0.000 A 
ATOM      3  C   UNL     1       3.245   7.892  17.349  0.00  0.00    +0.000 A 
ATOM      4  C   UNL     1       3.345   6.560  17.760  0.00  0.00    +0.000 A 
ATOM      5  C   UNL     1       2.649   6.082  18.884  0.00  0.00    +0.000 A 
ATOM      6  C   UNL     1       1.862   7.028  19.574  0.00  0.00    +0.000 A 
ENDROOT
BRANCH   1  16
ATOM      7  O   UNL     1       1.358  11.376  18.938  0.00  0.00    +0.000 OA
ATOM      8  C   UNL     1       0.930  10.656  19.824  0.00  0.00    +0.000 C 
ATOM      9  C   UNL     1       0.145  11.176  20.949  0.00  0.00    +0.000 A 
ATOM     10  C   UNL     1      -0.244  12.475  21.208  0.00  0.00    +0.000 A 
ATOM     11  C   UNL     1      -0.977  12.705  22.372  0.00  0.00    +0.000 A 
ATOM     12  C   UNL     1      -1.295  11.643  23.239  0.00  0.00    +0.000 A 
ATOM     13  C   UNL     1      -0.898  10.333  22.950  0.00  0.00    +0.000 A 
ATOM     14  C   UNL     1      -0.180  10.114  21.789  0.00  0.00    +0.000 A 
ATOM     15  C   UNL     1       0.345   8.841  21.219  0.00  0.00    +0.000 C 
ATOM     16  N   UNL     1       1.028   9.276  20.005  0.00  0.00    +0.000 N 
ENDBRANCH   1  16
BRANCH   5  17
ATOM     17  C   UNL     1       2.753   4.570  19.396  0.00  0.00    +0.000 C 
ATOM     18  C   UNL     1       1.416   3.789  19.523  0.00  0.00    +0.000 C 
ATOM     19  O   UNL     1       1.806   3.266  20.817  0.00  0.00    +0.000 OA
ATOM     20  C   UNL     1       2.831   4.291  20.921  0.00  0.00    +0.000 C 
BRANCH  17  21
ATOM     21  C   UNL     1       3.784   3.774  18.572  0.00  0.00    +0.000 C 
BRANCH  21  22
ATOM     22  C   UNL     1       5.180   4.317  18.593  0.00  0.00    +0.000 A 
ATOM     23  N   UNL     1       5.845   4.777  19.634  0.00  0.00    +0.000 NA
ATOM     24  N   UNL     1       7.092   5.171  19.216  0.00  0.00    +0.000 NA
ATOM     25  C   UNL     1       7.184   4.903  17.935  0.00  0.00    +0.000 A 
ATOM     26  N   UNL     1       6.010   4.366  17.501  0.00  0.00    +0.000 N 
BRANCH  26  27
ATOM     27  C   UNL     1       5.761   3.867  16.170  0.00  0.00    +0.000 C 
BRANCH  27  28
ATOM     28  C   UNL     1       5.911   4.912  15.083  0.00  0.00    +0.000 C 
ATOM     29  F   UNL     1       5.472   6.132  15.448  0.00  0.00    +0.000 F 
ATOM     30  F   UNL     1       7.212   5.038  14.732  0.00  0.00    +0.000 F 
ATOM     31  F   UNL     1       5.228   4.545  13.975  0.00  0.00    +0.000 F 
ENDBRANCH  27  28
ENDBRANCH  26  27
ENDBRANCH  21  22
ENDBRANCH  17  21
ENDBRANCH   5  17
TORSDOF 6
ENDMDL
MODEL 4
REMARK VINA RESULT:      -8.6      1.329      1.659
REMARK  Name = 
REMARK  6 active torsions:
REMARK  status: ('A' for Active; 'I' for Inactive)
REMARK    1  A    between atoms: N_10  and  C_11
REMARK    2  A    between atoms: C_15  and  C_16
REMARK    3  A    between atoms: C_16  and  C_17
REMARK    4  A    between atoms: C_17  and  C_18
REMARK    5  A    between atoms: N_22  and  C_23
REMARK    6  A    between atoms: C_23  and  C_24
REMARK                            x       y       z     vdW  Elec       q    Type
REMARK                         _______ _______ _______ _____ _____    ______ ____
ROOT
ATOM      1  C   UNL     1       1.614   8.557  19.498  0.00  0.00    +0.000 A 
ATOM      2  C   UNL     1       2.172   8.906  18.270  0.00  0.00    +0.000 A 
ATOM      3  C   UNL     1       2.833   7.950  17.498  0.00  0.00    +0.000 A 
ATOM      4  C   UNL     1       2.931   6.630  17.943  0.00  0.00    +0.000 A 
ATOM      5  C   UNL     1       2.360   6.219  19.160  0.00  0.00    +0.000 A 
ATOM      6  C   UNL     1       1.700   7.219  19.904  0.00  0.00    +0.000 A 
ENDROOT
BRANCH   1  16
ATOM      7  O   UNL     1      -0.358   8.200  21.783  0.00  0.00    +0.000 OA
ATOM      8  C   UNL     1       0.078   9.255  21.353  0.00  0.00    +0.000 C 
ATOM      9  C   UNL     1      -0.338  10.555  21.890  0.00  0.00    +0.000 A 
ATOM     10  C   UNL     1      -1.224  10.827  22.913  0.00  0.00    +0.000 A 
ATOM     11  C   UNL     1      -1.460  12.167  23.218  0.00  0.00    +0.000 A 
ATOM     12  C   UNL     1      -0.814  13.189  22.497  0.00  0.00    +0.000 A 
ATOM     13  C   UNL     1       0.087  12.888  21.470  0.00  0.00    +0.000 A 
ATOM     14  C   UNL     1       0.322  11.556  21.182  0.00  0.00    +0.000 A 
ATOM     15  C   UNL     1       1.236  10.946  20.177  0.00  0.00    +0.000 C 
ATOM     16  N   UNL     1       1.010   9.513  20.348  0.00  0.00    +0.000 N 
ENDBRANCH   1  16
BRANCH   5  17
ATOM     17  C   UNL     1       2.468   4.721  19.712  0.00  0.00    +0.000 C 
ATOM     18  C   UNL     1       1.128   3.963  19.924  0.00  0.00    +0.000 C 
ATOM     19  O   UNL     1       1.571   3.473  21.213  0.00  0.00    +0.000 OA
ATOM     20  C   UNL     1       2.612   4.486  21.240  0.00  0.00    +0.000 C 
BRANCH  17  21
ATOM     21  C   UNL     1       3.450   3.887  18.867  0.00  0.00    +0.000 C 
BRANCH  21  22
ATOM     22  C   UNL     1       4.858   4.395  18.829  0.00  0.00    +0.000 A 
ATOM     23  N   UNL     1       5.579   4.830  19.843  0.00  0.00    +0.000 NA
ATOM     24  N   UNL     1       6.816   5.196  19.373  0.00  0.00    +0.000 NA
ATOM     25  C   UNL     1       6.845   4.937  18.087  0.00  0.00    +0.000 A 
ATOM     26  N   UNL     1       5.640   4.433  17.702  0.00  0.00    +0.000 N 
BRANCH  26  27
ATOM     27  C   UNL     1       5.320   3.952  16.379  0.00  0.00    +0.000 C 
BRANCH  27  28
ATOM     28  C   UNL     1       5.659   4.927  15.271  0.00  0.00    +0.000 C 
ATOM     29  F   UNL     1       6.983   5.083  15.079  0.00  0.00    +0.000 F 
ATOM     30  F   UNL     1       5.128   4.506  14.099  0.00  0.00    +0.000 F 
ATOM     31  F   UNL     1       5.136   6.147  15.535  0.00  0.00    +0.000 F 
ENDBRANCH  27  28
ENDBRANCH  26  27
ENDBRANCH  21  22
ENDBRANCH  17  21
ENDBRANCH   5  17
TORSDOF 6
ENDMDL
MODEL 5
REMARK VINA RESULT:      -8.6      2.713      3.935
REMARK  Name = 
REMARK  6 active torsions:
REMARK  status: ('A' for Active; 'I' for Inactive)
REMARK    1  A    between atoms: N_10  and  C_11
REMARK    2  A    between atoms: C_15  and  C_16
REMARK    3  A    between atoms: C_16  and  C_17
REMARK    4  A    between atoms: C_17  and  C_18
REMARK    5  A    between atoms: N_22  and  C_23
REMARK    6  A    between atoms: C_23  and  C_24
REMARK                            x       y       z     vdW  Elec       q    Type
REMARK                         _______ _______ _______ _____ _____    ______ ____
ROOT
ATOM      1  C   UNL     1       2.625   6.115  18.501  0.00  0.00    +0.000 A 
ATOM      2  C   UNL     1       1.891   4.995  18.115  0.00  0.00    +0.000 A 
ATOM      3  C   UNL     1       2.505   3.953  17.421  0.00  0.00    +0.000 A 
ATOM      4  C   UNL     1       3.867   4.016  17.116  0.00  0.00    +0.000 A 
ATOM      5  C   UNL     1       4.659   5.109  17.507  0.00  0.00    +0.000 A 
ATOM      6  C   UNL     1       3.995   6.137  18.209  0.00  0.00    +0.000 A 
ENDROOT
BRANCH   1  16
ATOM      7  O   UNL     1       2.060   8.910  17.449  0.00  0.00    +0.000 OA
ATOM      8  C   UNL     1       1.840   8.495  18.575  0.00  0.00    +0.000 C 
ATOM      9  C   UNL     1       1.273   9.343  19.629  0.00  0.00    +0.000 A 
ATOM     10  C   UNL     1       0.895  10.669  19.565  0.00  0.00    +0.000 A 
ATOM     11  C   UNL     1       0.396  11.251  20.731  0.00  0.00    +0.000 A 
ATOM     12  C   UNL     1       0.293  10.500  21.917  0.00  0.00    +0.000 A 
ATOM     13  C   UNL     1       0.674   9.154  21.955  0.00  0.00    +0.000 A 
ATOM     14  C   UNL     1       1.158   8.585  20.791  0.00  0.00    +0.000 A 
ATOM     15  C   UNL     1       1.607   7.188  20.530  0.00  0.00    +0.000 C 
ATOM     16  N   UNL     1       2.022   7.229  19.131  0.00  0.00    +0.000 N 
ENDBRANCH   1  16
BRANCH   5  17
ATOM     17  C   UNL     1       6.217   5.226  17.159  0.00  0.00    +0.000 C 
ATOM     18  C   UNL     1       7.196   5.243  18.365  0.00  0.00    +0.000 C 
ATOM     19  O   UNL     1       7.943   6.341  17.786  0.00  0.00    +0.000 OA
ATOM     20  C   UNL     1       6.831   6.627  16.897  0.00  0.00    +0.000 C 
BRANCH  17  21
ATOM     21  C   UNL     1       6.635   4.168  16.120  0.00  0.00    +0.000 C 
BRANCH  21  22
ATOM     22  C   UNL     1       7.149   4.710  14.822  0.00  0.00    +0.000 A 
ATOM     23  N   UNL     1       8.129   5.573  14.646  0.00  0.00    +0.000 NA
ATOM     24  N   UNL     1       8.278   5.796  13.300  0.00  0.00    +0.000 NA
ATOM     25  C   UNL     1       7.417   5.031  12.673  0.00  0.00    +0.000 A 
ATOM     26  N   UNL     1       6.687   4.332  13.585  0.00  0.00    +0.000 N 
BRANCH  26  27
ATOM     27  C   UNL     1       5.700   3.326  13.273  0.00  0.00    +0.000 C 
BRANCH  27  28
ATOM     28  C   UNL     1       5.719   2.874  11.827  0.00  0.00    +0.000 C 
ATOM     29  F   UNL     1       5.246   1.625  11.649  0.00  0.00    +0.000 F 
ATOM     30  F   UNL     1       4.966   3.704  11.068  0.00  0.00    +0.000 F 
ATOM     31  F   UNL     1       6.978   2.909  11.335  0.00  0.00    +0.000 F 
ENDBRANCH  27  28
ENDBRANCH  26  27
ENDBRANCH  21  22
ENDBRANCH  17  21
ENDBRANCH   5  17
TORSDOF 6
ENDMDL
MODEL 6
REMARK VINA RESULT:      -8.5      0.851      1.065
REMARK  Name = 
REMARK  6 active torsions:
REMARK  status: ('A' for Active; 'I' for Inactive)
REMARK    1  A    between atoms: N_10  and  C_11
REMARK    2  A    between atoms: C_15  and  C_16
REMARK    3  A    between atoms: C_16  and  C_17
REMARK    4  A    between atoms: C_17  and  C_18
REMARK    5  A    between atoms: N_22  and  C_23
REMARK    6  A    between atoms: C_23  and  C_24
REMARK                            x       y       z     vdW  Elec       q    Type
REMARK                         _______ _______ _______ _____ _____    ______ ____
ROOT
ATOM      1  C   UNL     1       1.603   8.653  19.087  0.00  0.00    +0.000 A 
ATOM      2  C   UNL     1       2.276   9.264  18.032  0.00  0.00    +0.000 A 
ATOM      3  C   UNL     1       3.203   8.547  17.276  0.00  0.00    +0.000 A 
ATOM      4  C   UNL     1       3.457   7.204  17.562  0.00  0.00    +0.000 A 
ATOM      5  C   UNL     1       2.784   6.531  18.597  0.00  0.00    +0.000 A 
ATOM      6  C   UNL     1       1.854   7.296  19.331  0.00  0.00    +0.000 A 
ENDROOT
BRANCH   1  16
ATOM      7  O   UNL     1      -0.183  11.042  18.501  0.00  0.00    +0.000 OA
ATOM      8  C   UNL     1      -0.036  10.486  19.577  0.00  0.00    +0.000 C 
ATOM      9  C   UNL     1      -0.713  10.941  20.796  0.00  0.00    +0.000 A 
ATOM     10  C   UNL     1      -1.590  11.995  20.959  0.00  0.00    +0.000 A 
ATOM     11  C   UNL     1      -2.082  12.228  22.243  0.00  0.00    +0.000 A 
ATOM     12  C   UNL     1      -1.687  11.411  23.319  0.00  0.00    +0.000 A 
ATOM     13  C   UNL     1      -0.805  10.342  23.127  0.00  0.00    +0.000 A 
ATOM     14  C   UNL     1      -0.330  10.115  21.849  0.00  0.00    +0.000 A 
ATOM     15  C   UNL     1       0.586   9.051  21.349  0.00  0.00    +0.000 C 
ATOM     16  N   UNL     1       0.720   9.368  19.930  0.00  0.00    +0.000 N 
ENDBRANCH   1  16
BRANCH   5  17
ATOM     17  C   UNL     1       3.062   4.999  18.966  0.00  0.00    +0.000 C 
ATOM     18  C   UNL     1       1.855   4.028  18.843  0.00  0.00    +0.000 C 
ATOM     19  O   UNL     1       2.173   3.419  20.118  0.00  0.00    +0.000 OA
ATOM     20  C   UNL     1       3.009   4.558  20.454  0.00  0.00    +0.000 C 
BRANCH  17  21
ATOM     21  C   UNL     1       4.290   4.459  18.209  0.00  0.00    +0.000 C 
BRANCH  21  22
ATOM     22  C   UNL     1       5.614   4.969  18.684  0.00  0.00    +0.000 A 
ATOM     23  N   UNL     1       6.146   4.823  19.880  0.00  0.00    +0.000 NA
ATOM     24  N   UNL     1       7.373   5.440  19.891  0.00  0.00    +0.000 NA
ATOM     25  C   UNL     1       7.589   5.914  18.688  0.00  0.00    +0.000 A 
ATOM     26  N   UNL     1       6.515   5.643  17.896  0.00  0.00    +0.000 N 
BRANCH  26  27
ATOM     27  C   UNL     1       6.421   5.935  16.486  0.00  0.00    +0.000 C 
BRANCH  27  28
ATOM     28  C   UNL     1       6.781   4.767  15.591  0.00  0.00    +0.000 C 
ATOM     29  F   UNL     1       5.710   4.089  15.135  0.00  0.00    +0.000 F 
ATOM     30  F   UNL     1       7.473   5.202  14.512  0.00  0.00    +0.000 F 
ATOM     31  F   UNL     1       7.571   3.890  16.250  0.00  0.00    +0.000 F 
ENDBRANCH  27  28
ENDBRANCH  26  27
ENDBRANCH  21  22
ENDBRANCH  17  21
ENDBRANCH   5  17
TORSDOF 6
ENDMDL
MODEL 7
REMARK VINA RESULT:      -8.4      1.861      2.622
REMARK  Name = 
REMARK  6 active torsions:
REMARK  status: ('A' for Active; 'I' for Inactive)
REMARK    1  A    between atoms: N_10  and  C_11
REMARK    2  A    between atoms: C_15  and  C_16
REMARK    3  A    between atoms: C_16  and  C_17
REMARK    4  A    between atoms: C_17  and  C_18
REMARK    5  A    between atoms: N_22  and  C_23
REMARK    6  A    between atoms: C_23  and  C_24
REMARK                            x       y       z     vdW  Elec       q    Type
REMARK                         _______ _______ _______ _____ _____    ______ ____
ROOT
ATOM      1  C   UNL     1       1.462   8.770  19.321  0.00  0.00    +0.000 A 
ATOM      2  C   UNL     1       2.058   9.197  18.136  0.00  0.00    +0.000 A 
ATOM      3  C   UNL     1       2.906   8.348  17.427  0.00  0.00    +0.000 A 
ATOM      4  C   UNL     1       3.159   7.055  17.892  0.00  0.00    +0.000 A 
ATOM      5  C   UNL     1       2.561   6.564  19.065  0.00  0.00    +0.000 A 
ATOM      6  C   UNL     1       1.708   7.458  19.747  0.00  0.00    +0.000 A 
ENDROOT
BRANCH   1  16
ATOM      7  O   UNL     1       1.058   8.868  22.332  0.00  0.00    +0.000 OA
ATOM      8  C   UNL     1       0.510   9.570  21.498  0.00  0.00    +0.000 C 
ATOM      9  C   UNL     1      -0.488  10.584  21.857  0.00  0.00    +0.000 A 
ATOM     10  C   UNL     1      -0.963  10.928  23.106  0.00  0.00    +0.000 A 
ATOM     11  C   UNL     1      -1.937  11.925  23.170  0.00  0.00    +0.000 A 
ATOM     12  C   UNL     1      -2.408  12.541  21.995  0.00  0.00    +0.000 A 
ATOM     13  C   UNL     1      -1.903  12.181  20.740  0.00  0.00    +0.000 A 
ATOM     14  C   UNL     1      -0.931  11.199  20.689  0.00  0.00    +0.000 A 
ATOM     15  C   UNL     1      -0.203  10.640  19.516  0.00  0.00    +0.000 C 
ATOM     16  N   UNL     1       0.663   9.628  20.113  0.00  0.00    +0.000 N 
ENDBRANCH   1  16
BRANCH   5  17
ATOM     17  C   UNL     1       2.841   5.097  19.639  0.00  0.00    +0.000 C 
ATOM     18  C   UNL     1       1.942   3.956  19.088  0.00  0.00    +0.000 C 
ATOM     19  O   UNL     1       1.746   3.421  20.420  0.00  0.00    +0.000 OA
ATOM     20  C   UNL     1       2.201   4.678  20.990  0.00  0.00    +0.000 C 
BRANCH  17  21
ATOM     21  C   UNL     1       4.333   4.731  19.526  0.00  0.00    +0.000 C 
BRANCH  21  22
ATOM     22  C   UNL     1       4.815   4.411  18.145  0.00  0.00    +0.000 A 
ATOM     23  N   UNL     1       4.352   3.484  17.331  0.00  0.00    +0.000 NA
ATOM     24  N   UNL     1       5.072   3.530  16.163  0.00  0.00    +0.000 NA
ATOM     25  C   UNL     1       5.933   4.515  16.266  0.00  0.00    +0.000 A 
ATOM     26  N   UNL     1       5.808   5.096  17.490  0.00  0.00    +0.000 N 
BRANCH  26  27
ATOM     27  C   UNL     1       6.528   6.265  17.938  0.00  0.00    +0.000 C 
BRANCH  27  28
ATOM     28  C   UNL     1       7.717   5.953  18.823  0.00  0.00    +0.000 C 
ATOM     29  F   UNL     1       8.633   6.940  18.858  0.00  0.00    +0.000 F 
ATOM     30  F   UNL     1       7.309   5.734  20.094  0.00  0.00    +0.000 F 
ATOM     31  F   UNL     1       8.341   4.830  18.401  0.00  0.00    +0.000 F 
ENDBRANCH  27  28
ENDBRANCH  26  27
ENDBRANCH  21  22
ENDBRANCH  17  21
ENDBRANCH   5  17
TORSDOF 6
ENDMDL
MODEL 8
REMARK VINA RESULT:      -8.3      1.324      1.945
REMARK  Name = 
REMARK  6 active torsions:
REMARK  status: ('A' for Active; 'I' for Inactive)
REMARK    1  A    between atoms: N_10  and  C_11
REMARK    2  A    between atoms: C_15  and  C_16
REMARK    3  A    between atoms: C_16  and  C_17
REMARK    4  A    between atoms: C_17  and  C_18
REMARK    5  A    between atoms: N_22  and  C_23
REMARK    6  A    between atoms: C_23  and  C_24
REMARK                            x       y       z     vdW  Elec       q    Type
REMARK                         _______ _______ _______ _____ _____    ______ ____
ROOT
ATOM      1  C   UNL     1       1.592   8.534  19.210  0.00  0.00    +0.000 A 
ATOM      2  C   UNL     1       2.183   9.048  18.058  0.00  0.00    +0.000 A 
ATOM      3  C   UNL     1       3.114   8.293  17.345  0.00  0.00    +0.000 A 
ATOM      4  C   UNL     1       3.454   7.007  17.772  0.00  0.00    +0.000 A 
ATOM      5  C   UNL     1       2.865   6.430  18.910  0.00  0.00    +0.000 A 
ATOM      6  C   UNL     1       1.928   7.230  19.597  0.00  0.00    +0.000 A 
ENDROOT
BRANCH   1  16
ATOM      7  O   UNL     1      -0.091  10.967  18.511  0.00  0.00    +0.000 OA
ATOM      8  C   UNL     1       0.003  10.434  19.604  0.00  0.00    +0.000 C 
ATOM      9  C   UNL     1      -0.695  10.941  20.790  0.00  0.00    +0.000 A 
ATOM     10  C   UNL     1      -1.539  12.028  20.899  0.00  0.00    +0.000 A 
ATOM     11  C   UNL     1      -2.062  12.309  22.161  0.00  0.00    +0.000 A 
ATOM     12  C   UNL     1      -1.729  11.507  23.269  0.00  0.00    +0.000 A 
ATOM     13  C   UNL     1      -0.879  10.404  23.131  0.00  0.00    +0.000 A 
ATOM     14  C   UNL     1      -0.373  10.129  21.874  0.00  0.00    +0.000 A 
ATOM     15  C   UNL     1       0.520   9.023  21.428  0.00  0.00    +0.000 C 
ATOM     16  N   UNL     1       0.708   9.299  20.007  0.00  0.00    +0.000 N 
ENDBRANCH   1  16
BRANCH   5  17
ATOM     17  C   UNL     1       3.243   4.968  19.441  0.00  0.00    +0.000 C 
ATOM     18  C   UNL     1       2.486   3.778  18.788  0.00  0.00    +0.000 C 
ATOM     19  O   UNL     1       2.260   3.169  20.082  0.00  0.00    +0.000 OA
ATOM     20  C   UNL     1       2.563   4.433  20.730  0.00  0.00    +0.000 C 
BRANCH  17  21
ATOM     21  C   UNL     1       4.766   4.742  19.410  0.00  0.00    +0.000 C 
BRANCH  21  22
ATOM     22  C   UNL     1       5.343   4.435  18.063  0.00  0.00    +0.000 A 
ATOM     23  N   UNL     1       4.759   3.799  17.068  0.00  0.00    +0.000 NA
ATOM     24  N   UNL     1       5.637   3.736  16.015  0.00  0.00    +0.000 NA
ATOM     25  C   UNL     1       6.727   4.374  16.368  0.00  0.00    +0.000 A 
ATOM     26  N   UNL     1       6.590   4.830  17.644  0.00  0.00    +0.000 N 
BRANCH  26  27
ATOM     27  C   UNL     1       7.547   5.649  18.347  0.00  0.00    +0.000 C 
BRANCH  27  28
ATOM     28  C   UNL     1       7.615   7.079  17.852  0.00  0.00    +0.000 C 
ATOM     29  F   UNL     1       8.437   7.860  18.579  0.00  0.00    +0.000 F 
ATOM     30  F   UNL     1       8.055   7.110  16.572  0.00  0.00    +0.000 F 
ATOM     31  F   UNL     1       6.387   7.646  17.870  0.00  0.00    +0.000 F 
ENDBRANCH  27  28
ENDBRANCH  26  27
ENDBRANCH  21  22
ENDBRANCH  17  21
ENDBRANCH   5  17
TORSDOF 6
ENDMDL
MODEL 9
REMARK VINA RESULT:      -8.3      3.842      8.468
REMARK  Name = 
REMARK  6 active torsions:
REMARK  status: ('A' for Active; 'I' for Inactive)
REMARK    1  A    between atoms: N_10  and  C_11
REMARK    2  A    between atoms: C_15  and  C_16
REMARK    3  A    between atoms: C_16  and  C_17
REMARK    4  A    between atoms: C_17  and  C_18
REMARK    5  A    between atoms: N_22  and  C_23
REMARK    6  A    between atoms: C_23  and  C_24
REMARK                            x       y       z     vdW  Elec       q    Type
REMARK                         _______ _______ _______ _____ _____    ______ ____
ROOT
ATOM      1  C   UNL     1       2.383   7.273  18.703  0.00  0.00    +0.000 A 
ATOM      2  C   UNL     1       2.519   8.072  17.571  0.00  0.00    +0.000 A 
ATOM      3  C   UNL     1       2.053   9.387  17.574  0.00  0.00    +0.000 A 
ATOM      4  C   UNL     1       1.457   9.920  18.719  0.00  0.00    +0.000 A 
ATOM      5  C   UNL     1       1.321   9.166  19.897  0.00  0.00    +0.000 A 
ATOM      6  C   UNL     1       1.809   7.843  19.847  0.00  0.00    +0.000 A 
ENDROOT
BRANCH   1  16
ATOM      7  O   UNL     1       1.131   4.862  17.341  0.00  0.00    +0.000 OA
ATOM      8  C   UNL     1       2.098   4.860  18.083  0.00  0.00    +0.000 C 
ATOM      9  C   UNL     1       2.801   3.628  18.457  0.00  0.00    +0.000 A 
ATOM     10  C   UNL     1       2.538   2.329  18.069  0.00  0.00    +0.000 A 
ATOM     11  C   UNL     1       3.355   1.326  18.591  0.00  0.00    +0.000 A 
ATOM     12  C   UNL     1       4.400   1.645  19.479  0.00  0.00    +0.000 A 
ATOM     13  C   UNL     1       4.653   2.970  19.849  0.00  0.00    +0.000 A 
ATOM     14  C   UNL     1       3.843   3.958  19.319  0.00  0.00    +0.000 A 
ATOM     15  C   UNL     1       3.892   5.434  19.510  0.00  0.00    +0.000 C 
ATOM     16  N   UNL     1       2.766   5.911  18.713  0.00  0.00    +0.000 N 
ENDBRANCH   1  16
BRANCH   5  17
ATOM     17  C   UNL     1       0.627   9.736  21.222  0.00  0.00    +0.000 C 
ATOM     18  C   UNL     1       1.254   9.300  22.575  0.00  0.00    +0.000 C 
ATOM     19  O   UNL     1      -0.055   9.028  23.132  0.00  0.00    +0.000 OA
ATOM     20  C   UNL     1      -0.620   9.009  21.794  0.00  0.00    +0.000 C 
BRANCH  17  21
ATOM     21  C   UNL     1       0.467  11.267  21.151  0.00  0.00    +0.000 C 
BRANCH  21  22
ATOM     22  C   UNL     1      -0.942  11.769  21.200  0.00  0.00    +0.000 A 
ATOM     23  N   UNL     1      -1.628  12.129  22.266  0.00  0.00    +0.000 NA
ATOM     24  N   UNL     1      -2.878  12.531  21.866  0.00  0.00    +0.000 NA
ATOM     25  C   UNL     1      -2.920  12.453  20.557  0.00  0.00    +0.000 A 
ATOM     26  N   UNL     1      -1.730  11.981  20.095  0.00  0.00    +0.000 N 
BRANCH  26  27
ATOM     27  C   UNL     1      -1.370  11.839  18.705  0.00  0.00    +0.000 C 
BRANCH  27  28
ATOM     28  C   UNL     1      -2.002  10.643  18.024  0.00  0.00    +0.000 C 
ATOM     29  F   UNL     1      -1.335  10.235  16.927  0.00  0.00    +0.000 F 
ATOM     30  F   UNL     1      -2.056   9.594  18.878  0.00  0.00    +0.000 F 
ATOM     31  F   UNL     1      -3.272  10.925  17.652  0.00  0.00    +0.000 F 
ENDBRANCH  27  28
ENDBRANCH  26  27
ENDBRANCH  21  22
ENDBRANCH  17  21
ENDBRANCH   5  17
TORSDOF 6
ENDMDL
