MODEL 1
REMARK VINA RESULT:      -8.7      0.000      0.000
REMARK  Name = 
REMARK  8 active torsions:
REMARK  status: ('A' for Active; 'I' for Inactive)
REMARK    1  A    between atoms: C_2  and  C_13
REMARK    2  A    between atoms: N_3  and  C_4
REMARK    3  A    between atoms: C_4  and  C_5
REMARK    4  A    between atoms: C_5  and  C_6
REMARK    5  A    between atoms: C_10  and  O_11
REMARK    6  A    between atoms: C_16  and  C_17
REMARK    7  A    between atoms: C_22  and  O_23
REMARK    8  A    between atoms: O_23  and  C_24
REMARK                            x       y       z     vdW  Elec       q    Type
REMARK                         _______ _______ _______ _____ _____    ______ ____
ROOT
ATOM      1  C   UNL     1       6.634   5.147  17.739  0.00  0.00    +0.000 A 
ATOM      2  C   UNL     1       6.604   4.724  16.426  0.00  0.00    +0.000 A 
ATOM      3  C   UNL     1       5.428   3.971  16.264  0.00  0.00    +0.000 A 
ATOM      4  C   UNL     1       4.771   3.973  17.480  0.00  0.00    +0.000 A 
ATOM      5  O   UNL     1       5.528   4.664  18.405  0.00  0.00    +0.000 OA
ENDROOT
BRANCH   4   6
ATOM      6  C   UNL     1       3.460   3.448  17.899  0.00  0.00    +0.000 A 
ATOM      7  C   UNL     1       3.359   2.135  18.390  0.00  0.00    +0.000 A 
ATOM      8  C   UNL     1       2.155   1.653  18.917  0.00  0.00    +0.000 A 
ATOM      9  C   UNL     1       1.036   2.480  18.972  0.00  0.00    +0.000 A 
ATOM     10  C   UNL     1       1.113   3.785  18.485  0.00  0.00    +0.000 A 
ATOM     11  C   UNL     1       2.300   4.267  17.921  0.00  0.00    +0.000 A 
BRANCH  11  12
ATOM     12  O   UNL     1       2.435   5.552  17.475  0.00  0.00    +0.000 OA
BRANCH  12  13
ATOM     13  C   UNL     1       2.803   6.596  18.363  0.00  0.00    +0.000 C 
ATOM     14  F   UNL     1       3.951   7.227  18.048  0.00  0.00    +0.000 F 
ATOM     15  F   UNL     1       1.805   7.506  18.395  0.00  0.00    +0.000 F 
ATOM     16  F   UNL     1       2.937   6.079  19.605  0.00  0.00    +0.000 F 
ENDBRANCH  12  13
ENDBRANCH  11  12
ENDBRANCH   4   6
BRANCH   1  18
ATOM     17  O   UNL     1       8.231   5.701  19.363  0.00  0.00    +0.000 OA
ATOM     18  C   UNL     1       7.597   6.034  18.363  0.00  0.00    +0.000 C 
ATOM     19  N   UNL     1       7.722   7.305  17.830  0.00  0.00    +0.000 N 
ATOM     20  H   UNL     1       7.051   7.592  17.129  0.00  0.00    +0.000 HD
BRANCH  19  21
ATOM     21  C   UNL     1       8.539   8.280  18.543  0.00  0.00    +0.000 C 
BRANCH  21  22
ATOM     22  C   UNL     1       8.478   9.694  17.966  0.00  0.00    +0.000 C 
BRANCH  22  23
ATOM     23  C   UNL     1       9.402  10.642  18.697  0.00  0.00    +0.000 A 
ATOM     24  C   UNL     1      10.466  11.260  18.021  0.00  0.00    +0.000 A 
ATOM     25  C   UNL     1      11.333  12.125  18.697  0.00  0.00    +0.000 A 
ATOM     26  C   UNL     1      11.155  12.379  20.054  0.00  0.00    +0.000 A 
ATOM     27  C   UNL     1      10.106  11.764  20.730  0.00  0.00    +0.000 A 
ATOM     28  C   UNL     1       9.236  10.898  20.066  0.00  0.00    +0.000 A 
BRANCH  27  29
ATOM     29  O   UNL     1       9.897  11.981  22.061  0.00  0.00    +0.000 OA
ATOM     30  H   UNL     1       9.421  11.216  22.426  0.00  0.00    +0.000 HD
ENDBRANCH  27  29
ENDBRANCH  22  23
ENDBRANCH  21  22
ENDBRANCH  19  21
ENDBRANCH   1  18
TORSDOF 8
ENDMDL
MODEL 2
REMARK VINA RESULT:      -8.7      1.313      1.781
REMARK  Name = 
REMARK  8 active torsions:
REMARK  status: ('A' for Active; 'I' for Inactive)
REMARK    1  A    between atoms: C_2  and  C_13
REMARK    2  A    between atoms: N_3  and  C_4
REMARK    3  A    between atoms: C_4  and  C_5
REMARK    4  A    between atoms: C_5  and  C_6
REMARK    5  A    between atoms: C_10  and  O_11
REMARK    6  A    between atoms: C_16  and  C_17
REMARK    7  A    between atoms: C_22  and  O_23
REMARK    8  A    between atoms: O_23  and  C_24
REMARK                            x       y       z     vdW  Elec       q    Type
REMARK                         _______ _______ _______ _____ _____    ______ ____
ROOT
ATOM      1  C   UNL     1       6.404   5.875  17.391  0.00  0.00    +0.000 A 
ATOM      2  C   UNL     1       5.968   5.938  16.083  0.00  0.00    +0.000 A 
ATOM      3  C   UNL     1       4.828   5.121  15.991  0.00  0.00    +0.000 A 
ATOM      4  C   UNL     1       4.598   4.597  17.248  0.00  0.00    +0.000 A 
ATOM      5  O   UNL     1       5.587   5.028  18.109  0.00  0.00    +0.000 OA
ENDROOT
BRANCH   4   6
ATOM      6  C   UNL     1       3.510   3.766  17.791  0.00  0.00    +0.000 A 
ATOM      7  C   UNL     1       3.665   2.371  17.860  0.00  0.00    +0.000 A 
ATOM      8  C   UNL     1       2.706   1.569  18.490  0.00  0.00    +0.000 A 
ATOM      9  C   UNL     1       1.582   2.150  19.071  0.00  0.00    +0.000 A 
ATOM     10  C   UNL     1       1.405   3.532  19.009  0.00  0.00    +0.000 A 
ATOM     11  C   UNL     1       2.338   4.341  18.350  0.00  0.00    +0.000 A 
BRANCH  11  12
ATOM     12  O   UNL     1       2.229   5.704  18.305  0.00  0.00    +0.000 OA
BRANCH  12  13
ATOM     13  C   UNL     1       2.517   6.494  19.448  0.00  0.00    +0.000 C 
ATOM     14  F   UNL     1       1.521   6.561  20.354  0.00  0.00    +0.000 F 
ATOM     15  F   UNL     1       3.618   5.994  20.051  0.00  0.00    +0.000 F 
ATOM     16  F   UNL     1       2.798   7.753  19.043  0.00  0.00    +0.000 F 
ENDBRANCH  12  13
ENDBRANCH  11  12
ENDBRANCH   4   6
BRANCH   1  18
ATOM     17  O   UNL     1       8.217   6.124  18.857  0.00  0.00    +0.000 OA
ATOM     18  C   UNL     1       7.486   6.623  18.002  0.00  0.00    +0.000 C 
ATOM     19  N   UNL     1       7.618   7.952  17.639  0.00  0.00    +0.000 N 
ATOM     20  H   UNL     1       6.884   8.364  17.077  0.00  0.00    +0.000 HD
BRANCH  19  21
ATOM     21  C   UNL     1       8.570   8.780  18.369  0.00  0.00    +0.000 C 
BRANCH  21  22
ATOM     22  C   UNL     1       8.450  10.277  18.085  0.00  0.00    +0.000 C 
BRANCH  22  23
ATOM     23  C   UNL     1       9.638  11.050  18.612  0.00  0.00    +0.000 A 
ATOM     24  C   UNL     1       9.910  11.084  19.989  0.00  0.00    +0.000 A 
ATOM     25  C   UNL     1      10.998  11.812  20.483  0.00  0.00    +0.000 A 
ATOM     26  C   UNL     1      11.823  12.518  19.612  0.00  0.00    +0.000 A 
ATOM     27  C   UNL     1      11.553  12.493  18.248  0.00  0.00    +0.000 A 
ATOM     28  C   UNL     1      10.470  11.772  17.745  0.00  0.00    +0.000 A 
BRANCH  27  29
ATOM     29  O   UNL     1      12.333  13.175  17.359  0.00  0.00    +0.000 OA
ATOM     30  H   UNL     1      12.405  12.648  16.545  0.00  0.00    +0.000 HD
ENDBRANCH  27  29
ENDBRANCH  22  23
ENDBRANCH  21  22
ENDBRANCH  19  21
ENDBRANCH   1  18
TORSDOF 8
ENDMDL
MODEL 3
REMARK VINA RESULT:      -8.6      0.663      1.008
REMARK  Name = 
REMARK  8 active torsions:
REMARK  status: ('A' for Active; 'I' for Inactive)
REMARK    1  A    between atoms: C_2  and  C_13
REMARK    2  A    between atoms: N_3  and  C_4
REMARK    3  A    between atoms: C_4  and  C_5
REMARK    4  A    between atoms: C_5  and  C_6
REMARK    5  A    between atoms: C_10  and  O_11
REMARK    6  A    between atoms: C_16  and  C_17
REMARK    7  A    between atoms: C_22  and  O_23
REMARK    8  A    between atoms: O_23  and  C_24
REMARK                            x       y       z     vdW  Elec       q    Type
REMARK                         _______ _______ _______ _____ _____    ______ ____
ROOT
ATOM      1  C   UNL     1       6.378   5.652  17.306  0.00  0.00    +0.000 A 
ATOM      2  C   UNL     1       6.111   5.537  15.957  0.00  0.00    +0.000 A 
ATOM      3  C   UNL     1       4.945   4.761  15.834  0.00  0.00    +0.000 A 
ATOM      4  C   UNL     1       4.532   4.441  17.113  0.00  0.00    +0.000 A 
ATOM      5  O   UNL     1       5.431   4.956  18.024  0.00  0.00    +0.000 OA
ENDROOT
BRANCH   4   6
ATOM      6  C   UNL     1       3.338   3.745  17.624  0.00  0.00    +0.000 A 
ATOM      7  C   UNL     1       3.342   2.345  17.738  0.00  0.00    +0.000 A 
ATOM      8  C   UNL     1       2.275   1.668  18.340  0.00  0.00    +0.000 A 
ATOM      9  C   UNL     1       1.193   2.381  18.848  0.00  0.00    +0.000 A 
ATOM     10  C   UNL     1       1.165   3.771  18.740  0.00  0.00    +0.000 A 
ATOM     11  C   UNL     1       2.208   4.457  18.107  0.00  0.00    +0.000 A 
BRANCH  11  12
ATOM     12  O   UNL     1       2.245   5.821  18.019  0.00  0.00    +0.000 OA
BRANCH  12  13
ATOM     13  C   UNL     1       2.549   6.615  19.156  0.00  0.00    +0.000 C 
ATOM     14  F   UNL     1       1.511   6.835  19.986  0.00  0.00    +0.000 F 
ATOM     15  F   UNL     1       3.537   6.010  19.851  0.00  0.00    +0.000 F 
ATOM     16  F   UNL     1       3.010   7.815  18.734  0.00  0.00    +0.000 F 
ENDBRANCH  12  13
ENDBRANCH  11  12
ENDBRANCH   4   6
BRANCH   1  18
ATOM     17  O   UNL     1       8.126   5.979  18.834  0.00  0.00    +0.000 OA
ATOM     18  C   UNL     1       7.419   6.439  17.938  0.00  0.00    +0.000 C 
ATOM     19  N   UNL     1       7.538   7.761  17.546  0.00  0.00    +0.000 N 
ATOM     20  H   UNL     1       6.819   8.143  16.945  0.00  0.00    +0.000 HD
BRANCH  19  21
ATOM     21  C   UNL     1       8.443   8.629  18.290  0.00  0.00    +0.000 C 
BRANCH  21  22
ATOM     22  C   UNL     1       8.606  10.027  17.696  0.00  0.00    +0.000 C 
BRANCH  22  23
ATOM     23  C   UNL     1       9.532  10.889  18.525  0.00  0.00    +0.000 A 
ATOM     24  C   UNL     1      10.639  11.516  17.934  0.00  0.00    +0.000 A 
ATOM     25  C   UNL     1      11.507  12.301  18.700  0.00  0.00    +0.000 A 
ATOM     26  C   UNL     1      11.286  12.465  20.064  0.00  0.00    +0.000 A 
ATOM     27  C   UNL     1      10.193  11.839  20.657  0.00  0.00    +0.000 A 
ATOM     28  C   UNL     1       9.322  11.054  19.902  0.00  0.00    +0.000 A 
BRANCH  27  29
ATOM     29  O   UNL     1       9.941  11.969  21.992  0.00  0.00    +0.000 OA
ATOM     30  H   UNL     1      10.746  12.299  22.427  0.00  0.00    +0.000 HD
ENDBRANCH  27  29
ENDBRANCH  22  23
ENDBRANCH  21  22
ENDBRANCH  19  21
ENDBRANCH   1  18
TORSDOF 8
ENDMDL
MODEL 4
REMARK VINA RESULT:      -8.6      1.652      1.895
REMARK  Name = 
REMARK  8 active torsions:
REMARK  status: ('A' for Active; 'I' for Inactive)
REMARK    1  A    between atoms: C_2  and  C_13
REMARK    2  A    between atoms: N_3  and  C_4
REMARK    3  A    between atoms: C_4  and  C_5
REMARK    4  A    between atoms: C_5  and  C_6
REMARK    5  A    between atoms: C_10  and  O_11
REMARK    6  A    between atoms: C_16  and  C_17
REMARK    7  A    between atoms: C_22  and  O_23
REMARK    8  A    between atoms: O_23  and  C_24
REMARK                            x       y       z     vdW  Elec       q    Type
REMARK                         _______ _______ _______ _____ _____    ______ ____
ROOT
ATOM      1  C   UNL     1       6.082   5.316  17.039  0.00  0.00    +0.000 A 
ATOM      2  C   UNL     1       5.667   4.348  16.148  0.00  0.00    +0.000 A 
ATOM      3  C   UNL     1       4.612   3.650  16.761  0.00  0.00    +0.000 A 
ATOM      4  C   UNL     1       4.408   4.225  18.001  0.00  0.00    +0.000 A 
ATOM      5  O   UNL     1       5.336   5.228  18.195  0.00  0.00    +0.000 OA
ENDROOT
BRANCH   4   6
ATOM      6  C   UNL     1       3.394   3.997  19.044  0.00  0.00    +0.000 A 
ATOM      7  C   UNL     1       3.605   3.007  20.019  0.00  0.00    +0.000 A 
ATOM      8  C   UNL     1       2.724   2.857  21.096  0.00  0.00    +0.000 A 
ATOM      9  C   UNL     1       1.625   3.701  21.223  0.00  0.00    +0.000 A 
ATOM     10  C   UNL     1       1.393   4.687  20.264  0.00  0.00    +0.000 A 
ATOM     11  C   UNL     1       2.245   4.824  19.162  0.00  0.00    +0.000 A 
BRANCH  11  12
ATOM     12  O   UNL     1       2.083   5.805  18.223  0.00  0.00    +0.000 OA
BRANCH  12  13
ATOM     13  C   UNL     1       2.508   7.134  18.480  0.00  0.00    +0.000 C 
ATOM     14  F   UNL     1       3.707   7.455  17.955  0.00  0.00    +0.000 F 
ATOM     15  F   UNL     1       1.579   7.985  17.990  0.00  0.00    +0.000 F 
ATOM     16  F   UNL     1       2.576   7.316  19.818  0.00  0.00    +0.000 F 
ENDBRANCH  12  13
ENDBRANCH  11  12
ENDBRANCH   4   6
BRANCH   1  18
ATOM     17  O   UNL     1       7.883   6.291  15.898  0.00  0.00    +0.000 OA
ATOM     18  C   UNL     1       7.076   6.349  16.825  0.00  0.00    +0.000 C 
ATOM     19  N   UNL     1       7.133   7.373  17.755  0.00  0.00    +0.000 N 
ATOM     20  H   UNL     1       6.576   7.281  18.595  0.00  0.00    +0.000 HD
BRANCH  19  21
ATOM     21  C   UNL     1       8.236   8.323  17.677  0.00  0.00    +0.000 C 
BRANCH  21  22
ATOM     22  C   UNL     1       7.900   9.722  18.191  0.00  0.00    +0.000 C 
BRANCH  22  23
ATOM     23  C   UNL     1       9.130  10.457  18.675  0.00  0.00    +0.000 A 
ATOM     24  C   UNL     1       9.287  10.761  20.036  0.00  0.00    +0.000 A 
ATOM     25  C   UNL     1      10.416  11.455  20.486  0.00  0.00    +0.000 A 
ATOM     26  C   UNL     1      11.395  11.861  19.584  0.00  0.00    +0.000 A 
ATOM     27  C   UNL     1      11.240  11.569  18.233  0.00  0.00    +0.000 A 
ATOM     28  C   UNL     1      10.119  10.878  17.774  0.00  0.00    +0.000 A 
BRANCH  27  29
ATOM     29  O   UNL     1      12.174  11.952  17.315  0.00  0.00    +0.000 OA
ATOM     30  H   UNL     1      12.857  11.262  17.263  0.00  0.00    +0.000 HD
ENDBRANCH  27  29
ENDBRANCH  22  23
ENDBRANCH  21  22
ENDBRANCH  19  21
ENDBRANCH   1  18
TORSDOF 8
ENDMDL
MODEL 5
REMARK VINA RESULT:      -8.4      1.275      1.572
REMARK  Name = 
REMARK  8 active torsions:
REMARK  status: ('A' for Active; 'I' for Inactive)
REMARK    1  A    between atoms: C_2  and  C_13
REMARK    2  A    between atoms: N_3  and  C_4
REMARK    3  A    between atoms: C_4  and  C_5
REMARK    4  A    between atoms: C_5  and  C_6
REMARK    5  A    between atoms: C_10  and  O_11
REMARK    6  A    between atoms: C_16  and  C_17
REMARK    7  A    between atoms: C_22  and  O_23
REMARK    8  A    between atoms: O_23  and  C_24
REMARK                            x       y       z     vdW  Elec       q    Type
REMARK                         _______ _______ _______ _____ _____    ______ ____
ROOT
ATOM      1  C   UNL     1       6.253   5.574  17.744  0.00  0.00    +0.000 A 
ATOM      2  C   UNL     1       5.972   5.209  16.443  0.00  0.00    +0.000 A 
ATOM      3  C   UNL     1       4.732   4.547  16.460  0.00  0.00    +0.000 A 
ATOM      4  C   UNL     1       4.290   4.543  17.769  0.00  0.00    +0.000 A 
ATOM      5  O   UNL     1       5.240   5.141  18.572  0.00  0.00    +0.000 OA
ENDROOT
BRANCH   4   6
ATOM      6  C   UNL     1       3.032   4.093  18.389  0.00  0.00    +0.000 A 
ATOM      7  C   UNL     1       2.569   2.786  18.160  0.00  0.00    +0.000 A 
ATOM      8  C   UNL     1       1.450   2.288  18.837  0.00  0.00    +0.000 A 
ATOM      9  C   UNL     1       0.783   3.085  19.763  0.00  0.00    +0.000 A 
ATOM     10  C   UNL     1       1.221   4.387  20.002  0.00  0.00    +0.000 A 
ATOM     11  C   UNL     1       2.316   4.910  19.304  0.00  0.00    +0.000 A 
BRANCH  11  12
ATOM     12  O   UNL     1       2.809   6.163  19.540  0.00  0.00    +0.000 OA
BRANCH  12  13
ATOM     13  C   UNL     1       2.513   7.238  18.662  0.00  0.00    +0.000 C 
ATOM     14  F   UNL     1       3.582   7.764  18.031  0.00  0.00    +0.000 F 
ATOM     15  F   UNL     1       1.633   6.805  17.732  0.00  0.00    +0.000 F 
ATOM     16  F   UNL     1       1.919   8.225  19.371  0.00  0.00    +0.000 F 
ENDBRANCH  12  13
ENDBRANCH  11  12
ENDBRANCH   4   6
BRANCH   1  18
ATOM     17  O   UNL     1       8.123   5.957  19.105  0.00  0.00    +0.000 OA
ATOM     18  C   UNL     1       7.371   6.365  18.220  0.00  0.00    +0.000 C 
ATOM     19  N   UNL     1       7.516   7.636  17.692  0.00  0.00    +0.000 N 
ATOM     20  H   UNL     1       6.770   7.994  17.109  0.00  0.00    +0.000 HD
BRANCH  19  21
ATOM     21  C   UNL     1       8.510   8.524  18.281  0.00  0.00    +0.000 C 
BRANCH  21  22
ATOM     22  C   UNL     1       8.507   9.941  17.708  0.00  0.00    +0.000 C 
BRANCH  22  23
ATOM     23  C   UNL     1       9.339  10.890  18.542  0.00  0.00    +0.000 A 
ATOM     24  C   UNL     1       9.421  10.728  19.934  0.00  0.00    +0.000 A 
ATOM     25  C   UNL     1      10.176  11.613  20.711  0.00  0.00    +0.000 A 
ATOM     26  C   UNL     1      10.850  12.673  20.112  0.00  0.00    +0.000 A 
ATOM     27  C   UNL     1      10.765  12.843  18.734  0.00  0.00    +0.000 A 
ATOM     28  C   UNL     1      10.015  11.966  17.950  0.00  0.00    +0.000 A 
BRANCH  27  29
ATOM     29  O   UNL     1      11.406  13.871  18.107  0.00  0.00    +0.000 OA
ATOM     30  H   UNL     1      10.785  14.288  17.486  0.00  0.00    +0.000 HD
ENDBRANCH  27  29
ENDBRANCH  22  23
ENDBRANCH  21  22
ENDBRANCH  19  21
ENDBRANCH   1  18
TORSDOF 8
ENDMDL
MODEL 6
REMARK VINA RESULT:      -8.4      1.571      1.898
REMARK  Name = 
REMARK  8 active torsions:
REMARK  status: ('A' for Active; 'I' for Inactive)
REMARK    1  A    between atoms: C_2  and  C_13
REMARK    2  A    between atoms: N_3  and  C_4
REMARK    3  A    between atoms: C_4  and  C_5
REMARK    4  A    between atoms: C_5  and  C_6
REMARK    5  A    between atoms: C_10  and  O_11
REMARK    6  A    between atoms: C_16  and  C_17
REMARK    7  A    between atoms: C_22  and  O_23
REMARK    8  A    between atoms: O_23  and  C_24
REMARK                            x       y       z     vdW  Elec       q    Type
REMARK                         _______ _______ _______ _____ _____    ______ ____
ROOT
ATOM      1  C   UNL     1       6.150   5.308  17.211  0.00  0.00    +0.000 A 
ATOM      2  C   UNL     1       5.783   4.375  16.263  0.00  0.00    +0.000 A 
ATOM      3  C   UNL     1       4.705   3.649  16.798  0.00  0.00    +0.000 A 
ATOM      4  C   UNL     1       4.440   4.173  18.049  0.00  0.00    +0.000 A 
ATOM      5  O   UNL     1       5.352   5.172  18.326  0.00  0.00    +0.000 OA
ENDROOT
BRANCH   4   6
ATOM      6  C   UNL     1       3.379   3.900  19.033  0.00  0.00    +0.000 A 
ATOM      7  C   UNL     1       3.570   2.904  20.006  0.00  0.00    +0.000 A 
ATOM      8  C   UNL     1       2.638   2.711  21.033  0.00  0.00    +0.000 A 
ATOM      9  C   UNL     1       1.507   3.519  21.110  0.00  0.00    +0.000 A 
ATOM     10  C   UNL     1       1.295   4.509  20.151  0.00  0.00    +0.000 A 
ATOM     11  C   UNL     1       2.199   4.688  19.099  0.00  0.00    +0.000 A 
BRANCH  11  12
ATOM     12  O   UNL     1       2.056   5.676  18.164  0.00  0.00    +0.000 OA
BRANCH  12  13
ATOM     13  C   UNL     1       2.336   7.029  18.487  0.00  0.00    +0.000 C 
ATOM     14  F   UNL     1       2.191   7.340  19.791  0.00  0.00    +0.000 F 
ATOM     15  F   UNL     1       3.605   7.306  18.115  0.00  0.00    +0.000 F 
ATOM     16  F   UNL     1       1.508   7.824  17.773  0.00  0.00    +0.000 F 
ENDBRANCH  12  13
ENDBRANCH  11  12
ENDBRANCH   4   6
BRANCH   1  18
ATOM     17  O   UNL     1       7.859   6.454  16.087  0.00  0.00    +0.000 OA
ATOM     18  C   UNL     1       7.147   6.354  17.086  0.00  0.00    +0.000 C 
ATOM     19  N   UNL     1       7.321   7.195  18.171  0.00  0.00    +0.000 N 
ATOM     20  H   UNL     1       6.845   6.959  19.033  0.00  0.00    +0.000 HD
BRANCH  19  21
ATOM     21  C   UNL     1       8.437   8.132  18.153  0.00  0.00    +0.000 C 
BRANCH  21  22
ATOM     22  C   UNL     1       8.056   9.557  17.754  0.00  0.00    +0.000 C 
BRANCH  22  23
ATOM     23  C   UNL     1       8.918  10.588  18.448  0.00  0.00    +0.000 A 
ATOM     24  C   UNL     1       9.467  10.322  19.712  0.00  0.00    +0.000 A 
ATOM     25  C   UNL     1      10.251  11.280  20.365  0.00  0.00    +0.000 A 
ATOM     26  C   UNL     1      10.492  12.514  19.769  0.00  0.00    +0.000 A 
ATOM     27  C   UNL     1       9.944  12.785  18.519  0.00  0.00    +0.000 A 
ATOM     28  C   UNL     1       9.160  11.838  17.860  0.00  0.00    +0.000 A 
BRANCH  27  29
ATOM     29  O   UNL     1      10.151  13.984  17.901  0.00  0.00    +0.000 OA
ATOM     30  H   UNL     1      10.725  13.838  17.130  0.00  0.00    +0.000 HD
ENDBRANCH  27  29
ENDBRANCH  22  23
ENDBRANCH  21  22
ENDBRANCH  19  21
ENDBRANCH   1  18
TORSDOF 8
ENDMDL
MODEL 7
REMARK VINA RESULT:      -8.3      1.468      1.741
REMARK  Name = 
REMARK  8 active torsions:
REMARK  status: ('A' for Active; 'I' for Inactive)
REMARK    1  A    between atoms: C_2  and  C_13
REMARK    2  A    between atoms: N_3  and  C_4
REMARK    3  A    between atoms: C_4  and  C_5
REMARK    4  A    between atoms: C_5  and  C_6
REMARK    5  A    between atoms: C_10  and  O_11
REMARK    6  A    between atoms: C_16  and  C_17
REMARK    7  A    between atoms: C_22  and  O_23
REMARK    8  A    between atoms: O_23  and  C_24
REMARK                            x       y       z     vdW  Elec       q    Type
REMARK                         _______ _______ _______ _____ _____    ______ ____
ROOT
ATOM      1  C   UNL     1       5.827   5.196  17.000  0.00  0.00    +0.000 A 
ATOM      2  C   UNL     1       5.353   4.247  16.118  0.00  0.00    +0.000 A 
ATOM      3  C   UNL     1       4.349   3.528  16.790  0.00  0.00    +0.000 A 
ATOM      4  C   UNL     1       4.234   4.073  18.055  0.00  0.00    +0.000 A 
ATOM      5  O   UNL     1       5.169   5.077  18.204  0.00  0.00    +0.000 OA
ENDROOT
BRANCH   4   6
ATOM      6  C   UNL     1       3.301   3.814  19.165  0.00  0.00    +0.000 A 
ATOM      7  C   UNL     1       3.552   2.758  20.056  0.00  0.00    +0.000 A 
ATOM      8  C   UNL     1       2.757   2.569  21.193  0.00  0.00    +0.000 A 
ATOM      9  C   UNL     1       1.705   3.441  21.462  0.00  0.00    +0.000 A 
ATOM     10  C   UNL     1       1.435   4.493  20.587  0.00  0.00    +0.000 A 
ATOM     11  C   UNL     1       2.198   4.670  19.428  0.00  0.00    +0.000 A 
BRANCH  11  12
ATOM     12  O   UNL     1       1.999   5.714  18.567  0.00  0.00    +0.000 OA
BRANCH  12  13
ATOM     13  C   UNL     1       2.429   7.024  18.901  0.00  0.00    +0.000 C 
ATOM     14  F   UNL     1       1.490   7.796  19.484  0.00  0.00    +0.000 F 
ATOM     15  F   UNL     1       3.489   6.930  19.734  0.00  0.00    +0.000 F 
ATOM     16  F   UNL     1       2.840   7.645  17.772  0.00  0.00    +0.000 F 
ENDBRANCH  12  13
ENDBRANCH  11  12
ENDBRANCH   4   6
BRANCH   1  18
ATOM     17  O   UNL     1       7.695   6.099  15.907  0.00  0.00    +0.000 OA
ATOM     18  C   UNL     1       6.798   6.241  16.738  0.00  0.00    +0.000 C 
ATOM     19  N   UNL     1       6.724   7.383  17.517  0.00  0.00    +0.000 N 
ATOM     20  H   UNL     1       6.090   7.376  18.307  0.00  0.00    +0.000 HD
BRANCH  19  21
ATOM     21  C   UNL     1       7.792   8.368  17.411  0.00  0.00    +0.000 C 
BRANCH  21  22
ATOM     22  C   UNL     1       8.618   8.541  18.685  0.00  0.00    +0.000 C 
BRANCH  22  23
ATOM     23  C   UNL     1       8.998   9.986  18.920  0.00  0.00    +0.000 A 
ATOM     24  C   UNL     1       8.949  10.915  17.869  0.00  0.00    +0.000 A 
ATOM     25  C   UNL     1       9.315  12.249  18.079  0.00  0.00    +0.000 A 
ATOM     26  C   UNL     1       9.742  12.670  19.335  0.00  0.00    +0.000 A 
ATOM     27  C   UNL     1       9.800  11.752  20.378  0.00  0.00    +0.000 A 
ATOM     28  C   UNL     1       9.437  10.419  20.180  0.00  0.00    +0.000 A 
BRANCH  27  29
ATOM     29  O   UNL     1      10.216  12.121  21.624  0.00  0.00    +0.000 OA
ATOM     30  H   UNL     1       9.435  12.209  22.196  0.00  0.00    +0.000 HD
ENDBRANCH  27  29
ENDBRANCH  22  23
ENDBRANCH  21  22
ENDBRANCH  19  21
ENDBRANCH   1  18
TORSDOF 8
ENDMDL
MODEL 8
REMARK VINA RESULT:      -8.3      3.754      6.460
REMARK  Name = 
REMARK  8 active torsions:
REMARK  status: ('A' for Active; 'I' for Inactive)
REMARK    1  A    between atoms: C_2  and  C_13
REMARK    2  A    between atoms: N_3  and  C_4
REMARK    3  A    between atoms: C_4  and  C_5
REMARK    4  A    between atoms: C_5  and  C_6
REMARK    5  A    between atoms: C_10  and  O_11
REMARK    6  A    between atoms: C_16  and  C_17
REMARK    7  A    between atoms: C_22  and  O_23
REMARK    8  A    between atoms: O_23  and  C_24
REMARK                            x       y       z     vdW  Elec       q    Type
REMARK                         _______ _______ _______ _____ _____    ______ ____
ROOT
ATOM      1  C   UNL     1       2.633   6.960  18.683  0.00  0.00    +0.000 A 
ATOM      2  C   UNL     1       2.800   8.026  17.822  0.00  0.00    +0.000 A 
ATOM      3  C   UNL     1       2.066   9.101  18.352  0.00  0.00    +0.000 A 
ATOM      4  C   UNL     1       1.486   8.660  19.526  0.00  0.00    +0.000 A 
ATOM      5  O   UNL     1       1.801   7.330  19.718  0.00  0.00    +0.000 OA
ENDROOT
BRANCH   4   6
ATOM      6  C   UNL     1       0.699   9.350  20.563  0.00  0.00    +0.000 A 
ATOM      7  C   UNL     1       0.777   8.922  21.899  0.00  0.00    +0.000 A 
ATOM      8  C   UNL     1       0.144   9.636  22.923  0.00  0.00    +0.000 A 
ATOM      9  C   UNL     1      -0.567  10.797  22.629  0.00  0.00    +0.000 A 
ATOM     10  C   UNL     1      -0.662  11.236  21.309  0.00  0.00    +0.000 A 
ATOM     11  C   UNL     1      -0.066  10.511  20.271  0.00  0.00    +0.000 A 
BRANCH  11  12
ATOM     12  O   UNL     1      -0.094  10.929  18.969  0.00  0.00    +0.000 OA
BRANCH  12  13
ATOM     13  C   UNL     1      -1.193  10.615  18.128  0.00  0.00    +0.000 C 
ATOM     14  F   UNL     1      -0.885   9.863  17.053  0.00  0.00    +0.000 F 
ATOM     15  F   UNL     1      -2.122   9.962  18.860  0.00  0.00    +0.000 F 
ATOM     16  F   UNL     1      -1.744  11.769  17.688  0.00  0.00    +0.000 F 
ENDBRANCH  12  13
ENDBRANCH  11  12
ENDBRANCH   4   6
BRANCH   1  18
ATOM     17  O   UNL     1       3.679   5.087  19.628  0.00  0.00    +0.000 OA
ATOM     18  C   UNL     1       3.272   5.660  18.618  0.00  0.00    +0.000 C 
ATOM     19  N   UNL     1       3.475   5.118  17.361  0.00  0.00    +0.000 N 
ATOM     20  H   UNL     1       3.292   5.706  16.557  0.00  0.00    +0.000 HD
BRANCH  19  21
ATOM     21  C   UNL     1       4.278   3.907  17.247  0.00  0.00    +0.000 C 
BRANCH  21  22
ATOM     22  C   UNL     1       5.636   4.113  16.576  0.00  0.00    +0.000 C 
BRANCH  22  23
ATOM     23  C   UNL     1       6.490   5.112  17.324  0.00  0.00    +0.000 A 
ATOM     24  C   UNL     1       6.857   6.326  16.721  0.00  0.00    +0.000 A 
ATOM     25  C   UNL     1       7.661   7.246  17.402  0.00  0.00    +0.000 A 
ATOM     26  C   UNL     1       8.115   6.964  18.688  0.00  0.00    +0.000 A 
ATOM     27  C   UNL     1       7.761   5.760  19.286  0.00  0.00    +0.000 A 
ATOM     28  C   UNL     1       6.960   4.835  18.616  0.00  0.00    +0.000 A 
BRANCH  27  29
ATOM     29  O   UNL     1       8.187   5.441  20.543  0.00  0.00    +0.000 OA
ATOM     30  H   UNL     1       8.450   6.260  20.996  0.00  0.00    +0.000 HD
ENDBRANCH  27  29
ENDBRANCH  22  23
ENDBRANCH  21  22
ENDBRANCH  19  21
ENDBRANCH   1  18
TORSDOF 8
ENDMDL
MODEL 9
REMARK VINA RESULT:      -8.2      1.025      1.258
REMARK  Name = 
REMARK  8 active torsions:
REMARK  status: ('A' for Active; 'I' for Inactive)
REMARK    1  A    between atoms: C_2  and  C_13
REMARK    2  A    between atoms: N_3  and  C_4
REMARK    3  A    between atoms: C_4  and  C_5
REMARK    4  A    between atoms: C_5  and  C_6
REMARK    5  A    between atoms: C_10  and  O_11
REMARK    6  A    between atoms: C_16  and  C_17
REMARK    7  A    between atoms: C_22  and  O_23
REMARK    8  A    between atoms: O_23  and  C_24
REMARK                            x       y       z     vdW  Elec       q    Type
REMARK                         _______ _______ _______ _____ _____    ______ ____
ROOT
ATOM      1  C   UNL     1       6.316   5.348  17.887  0.00  0.00    +0.000 A 
ATOM      2  C   UNL     1       5.889   4.751  16.718  0.00  0.00    +0.000 A 
ATOM      3  C   UNL     1       4.690   4.080  17.014  0.00  0.00    +0.000 A 
ATOM      4  C   UNL     1       4.418   4.301  18.350  0.00  0.00    +0.000 A 
ATOM      5  O   UNL     1       5.436   5.051  18.904  0.00  0.00    +0.000 OA
ENDROOT
BRANCH   4   6
ATOM      6  C   UNL     1       3.268   3.945  19.200  0.00  0.00    +0.000 A 
ATOM      7  C   UNL     1       3.381   2.890  20.121  0.00  0.00    +0.000 A 
ATOM      8  C   UNL     1       2.354   2.614  21.030  0.00  0.00    +0.000 A 
ATOM      9  C   UNL     1       1.201   3.395  21.041  0.00  0.00    +0.000 A 
ATOM     10  C   UNL     1       1.066   4.443  20.131  0.00  0.00    +0.000 A 
ATOM     11  C   UNL     1       2.069   4.707  19.192  0.00  0.00    +0.000 A 
BRANCH  11  12
ATOM     12  O   UNL     1       2.000   5.752  18.313  0.00  0.00    +0.000 OA
BRANCH  12  13
ATOM     13  C   UNL     1       2.430   7.050  18.691  0.00  0.00    +0.000 C 
ATOM     14  F   UNL     1       1.491   8.011  18.583  0.00  0.00    +0.000 F 
ATOM     15  F   UNL     1       2.858   7.006  19.972  0.00  0.00    +0.000 F 
ATOM     16  F   UNL     1       3.479   7.401  17.913  0.00  0.00    +0.000 F 
ENDBRANCH  12  13
ENDBRANCH  11  12
ENDBRANCH   4   6
BRANCH   1  18
ATOM     17  O   UNL     1       8.287   6.042  18.949  0.00  0.00    +0.000 OA
ATOM     18  C   UNL     1       7.451   6.232  18.066  0.00  0.00    +0.000 C 
ATOM     19  N   UNL     1       7.518   7.348  17.251  0.00  0.00    +0.000 N 
ATOM     20  H   UNL     1       6.715   7.559  16.671  0.00  0.00    +0.000 HD
BRANCH  19  21
ATOM     21  C   UNL     1       8.537   8.353  17.528  0.00  0.00    +0.000 C 
BRANCH  21  22
ATOM     22  C   UNL     1       7.986   9.690  18.020  0.00  0.00    +0.000 C 
BRANCH  22  23
ATOM     23  C   UNL     1       9.060  10.546  18.653  0.00  0.00    +0.000 A 
ATOM     24  C   UNL     1      10.122  11.042  17.881  0.00  0.00    +0.000 A 
ATOM     25  C   UNL     1      11.126  11.820  18.466  0.00  0.00    +0.000 A 
ATOM     26  C   UNL     1      11.088  12.107  19.828  0.00  0.00    +0.000 A 
ATOM     27  C   UNL     1      10.042  11.611  20.599  0.00  0.00    +0.000 A 
ATOM     28  C   UNL     1       9.035  10.834  20.026  0.00  0.00    +0.000 A 
BRANCH  27  29
ATOM     29  O   UNL     1       9.968  11.864  21.938  0.00  0.00    +0.000 OA
ATOM     30  H   UNL     1       9.161  11.447  22.286  0.00  0.00    +0.000 HD
ENDBRANCH  27  29
ENDBRANCH  22  23
ENDBRANCH  21  22
ENDBRANCH  19  21
ENDBRANCH   1  18
TORSDOF 8
ENDMDL
