MODEL 1
REMARK VINA RESULT:      -8.5      0.000      0.000
REMARK  Name = 
REMARK  5 active torsions:
REMARK  status: ('A' for Active; 'I' for Inactive)
REMARK    1  A    between atoms: C_2  and  C_22
REMARK    2  A    between atoms: N_3  and  C_4
REMARK    3  A    between atoms: C_9  and  S_10
REMARK    4  A    between atoms: S_10  and  N_13
REMARK    5  A    between atoms: N_13  and  C_14
REMARK                            x       y       z     vdW  Elec       q    Type
REMARK                         _______ _______ _______ _____ _____    ______ ____
ROOT
ATOM      1  C   UNL     1       7.974   8.228  18.006  0.00  0.00    +0.000 A 
ATOM      2  C   UNL     1       8.488   7.325  18.938  0.00  0.00    +0.000 A 
ATOM      3  C   UNL     1       7.900   6.074  19.134  0.00  0.00    +0.000 A 
ATOM      4  C   UNL     1       6.771   5.695  18.405  0.00  0.00    +0.000 A 
ATOM      5 CL   UNL     1       6.124   4.140  18.774  0.00  0.00    +0.000 Cl
ATOM      6  C   UNL     1       6.231   6.593  17.481  0.00  0.00    +0.000 A 
ATOM      7  C   UNL     1       6.823   7.866  17.298  0.00  0.00    +0.000 A 
ENDROOT
BRANCH   1  10
ATOM      8  O   UNL     1       9.089  10.129  19.925  0.00  0.00    +0.000 OA
ATOM      9  C   UNL     1       9.083  10.339  18.715  0.00  0.00    +0.000 C 
ATOM     10  N   UNL     1       8.586   9.477  17.744  0.00  0.00    +0.000 N 
ATOM     11  H   UNL     1       8.785   9.743  16.783  0.00  0.00    +0.000 HD
BRANCH   9  12
ATOM     12  C   UNL     1       9.698  11.610  18.222  0.00  0.00    +0.000 A 
ATOM     13  C   UNL     1      11.019  11.573  17.775  0.00  0.00    +0.000 A 
ATOM     14  C   UNL     1      11.613  12.752  17.346  0.00  0.00    +0.000 A 
ATOM     15  C   UNL     1      10.873  13.927  17.383  0.00  0.00    +0.000 A 
ATOM     16  C   UNL     1       9.560  13.871  17.838  0.00  0.00    +0.000 A 
ATOM     17  N   UNL     1       8.940  12.739  18.253  0.00  0.00    +0.000 NA
ENDBRANCH   9  12
ENDBRANCH   1  10
BRANCH   6  18
ATOM     18  S   UNL     1       4.871   6.154  16.418  0.00  0.00    +0.000 S 
ATOM     19  O   UNL     1       4.955   6.986  15.234  0.00  0.00    +0.000 OA
ATOM     20  O   UNL     1       4.811   4.716  16.281  0.00  0.00    +0.000 OA
BRANCH  18  21
ATOM     21  N   UNL     1       3.522   6.624  17.291  0.00  0.00    +0.000 N 
ATOM     22  H   UNL     1       3.288   7.615  17.277  0.00  0.00    +0.000 HD
BRANCH  21  23
ATOM     23  C   UNL     1       2.886   5.745  18.196  0.00  0.00    +0.000 A 
ATOM     24  C   UNL     1       2.031   4.737  17.749  0.00  0.00    +0.000 A 
ATOM     25  C   UNL     1       1.472   3.842  18.669  0.00  0.00    +0.000 A 
ATOM     26  C   UNL     1       1.776   3.962  20.024  0.00  0.00    +0.000 A 
ATOM     27 CL   UNL     1       1.097   2.860  21.158  0.00  0.00    +0.000 Cl
ATOM     28  C   UNL     1       2.634   4.966  20.469  0.00  0.00    +0.000 A 
ATOM     29  C   UNL     1       3.198   5.854  19.550  0.00  0.00    +0.000 A 
ENDBRANCH  21  23
ENDBRANCH  18  21
ENDBRANCH   6  18
TORSDOF 5
ENDMDL
MODEL 2
REMARK VINA RESULT:      -8.2      5.268      7.764
REMARK  Name = 
REMARK  5 active torsions:
REMARK  status: ('A' for Active; 'I' for Inactive)
REMARK    1  A    between atoms: C_2  and  C_22
REMARK    2  A    between atoms: N_3  and  C_4
REMARK    3  A    between atoms: C_9  and  S_10
REMARK    4  A    between atoms: S_10  and  N_13
REMARK    5  A    between atoms: N_13  and  C_14
REMARK                            x       y       z     vdW  Elec       q    Type
REMARK                         _______ _______ _______ _____ _____    ______ ____
ROOT
ATOM      1  C   UNL     1       1.949   5.781  20.570  0.00  0.00    +0.000 A 
ATOM      2  C   UNL     1       1.414   4.510  20.786  0.00  0.00    +0.000 A 
ATOM      3  C   UNL     1       2.056   3.364  20.311  0.00  0.00    +0.000 A 
ATOM      4  C   UNL     1       3.252   3.461  19.596  0.00  0.00    +0.000 A 
ATOM      5 CL   UNL     1       3.916   1.973  19.035  0.00  0.00    +0.000 Cl
ATOM      6  C   UNL     1       3.792   4.727  19.354  0.00  0.00    +0.000 A 
ATOM      7  C   UNL     1       3.129   5.885  19.824  0.00  0.00    +0.000 A 
ENDROOT
BRANCH   1  10
ATOM      8  O   UNL     1       1.797   8.429  19.343  0.00  0.00    +0.000 OA
ATOM      9  C   UNL     1       1.331   8.188  20.454  0.00  0.00    +0.000 C 
ATOM     10  N   UNL     1       1.352   6.953  21.092  0.00  0.00    +0.000 N 
ATOM     11  H   UNL     1       0.800   6.894  21.944  0.00  0.00    +0.000 HD
BRANCH   9  12
ATOM     12  C   UNL     1       0.640   9.298  21.179  0.00  0.00    +0.000 A 
ATOM     13  C   UNL     1       0.162   9.048  22.466  0.00  0.00    +0.000 A 
ATOM     14  C   UNL     1      -0.511  10.060  23.138  0.00  0.00    +0.000 A 
ATOM     15  C   UNL     1      -0.689  11.281  22.502  0.00  0.00    +0.000 A 
ATOM     16  C   UNL     1      -0.175  11.446  21.220  0.00  0.00    +0.000 A 
ATOM     17  N   UNL     1       0.498  10.488  20.536  0.00  0.00    +0.000 NA
ENDBRANCH   9  12
ENDBRANCH   1  10
BRANCH   6  18
ATOM     18  S   UNL     1       5.372   4.944  18.562  0.00  0.00    +0.000 S 
ATOM     19  O   UNL     1       5.382   6.263  17.959  0.00  0.00    +0.000 OA
ATOM     20  O   UNL     1       6.426   4.566  19.476  0.00  0.00    +0.000 OA
BRANCH  18  21
ATOM     21  N   UNL     1       5.355   3.809  17.330  0.00  0.00    +0.000 N 
ATOM     22  H   UNL     1       5.134   2.850  17.592  0.00  0.00    +0.000 HD
BRANCH  21  23
ATOM     23  C   UNL     1       5.859   4.108  16.045  0.00  0.00    +0.000 A 
ATOM     24  C   UNL     1       7.116   4.690  15.876  0.00  0.00    +0.000 A 
ATOM     25  C   UNL     1       7.611   4.911  14.585  0.00  0.00    +0.000 A 
ATOM     26  C   UNL     1       6.847   4.544  13.478  0.00  0.00    +0.000 A 
ATOM     27 CL   UNL     1       7.454   4.805  11.890  0.00  0.00    +0.000 Cl
ATOM     28  C   UNL     1       5.595   3.957  13.648  0.00  0.00    +0.000 A 
ATOM     29  C   UNL     1       5.104   3.731  14.935  0.00  0.00    +0.000 A 
ENDBRANCH  21  23
ENDBRANCH  18  21
ENDBRANCH   6  18
TORSDOF 5
ENDMDL
MODEL 3
REMARK VINA RESULT:      -8.0      4.936      7.580
REMARK  Name = 
REMARK  5 active torsions:
REMARK  status: ('A' for Active; 'I' for Inactive)
REMARK    1  A    between atoms: C_2  and  C_22
REMARK    2  A    between atoms: N_3  and  C_4
REMARK    3  A    between atoms: C_9  and  S_10
REMARK    4  A    between atoms: S_10  and  N_13
REMARK    5  A    between atoms: N_13  and  C_14
REMARK                            x       y       z     vdW  Elec       q    Type
REMARK                         _______ _______ _______ _____ _____    ______ ____
ROOT
ATOM      1  C   UNL     1       1.974   5.895  20.347  0.00  0.00    +0.000 A 
ATOM      2  C   UNL     1       1.273   4.691  20.256  0.00  0.00    +0.000 A 
ATOM      3  C   UNL     1       1.869   3.545  19.725  0.00  0.00    +0.000 A 
ATOM      4  C   UNL     1       3.185   3.575  19.261  0.00  0.00    +0.000 A 
ATOM      5 CL   UNL     1       3.782   2.102  18.596  0.00  0.00    +0.000 Cl
ATOM      6  C   UNL     1       3.896   4.776  19.325  0.00  0.00    +0.000 A 
ATOM      7  C   UNL     1       3.281   5.938  19.850  0.00  0.00    +0.000 A 
ENDROOT
BRANCH   1  10
ATOM      8  O   UNL     1       1.692   8.556  19.174  0.00  0.00    +0.000 OA
ATOM      9  C   UNL     1       1.328   8.297  20.318  0.00  0.00    +0.000 C 
ATOM     10  N   UNL     1       1.416   7.054  20.935  0.00  0.00    +0.000 N 
ATOM     11  H   UNL     1       0.941   6.979  21.832  0.00  0.00    +0.000 HD
BRANCH   9  12
ATOM     12  C   UNL     1       0.695   9.391  21.117  0.00  0.00    +0.000 A 
ATOM     13  C   UNL     1       0.070   9.053  22.318  0.00  0.00    +0.000 A 
ATOM     14  C   UNL     1      -0.551  10.054  23.053  0.00  0.00    +0.000 A 
ATOM     15  C   UNL     1      -0.534  11.354  22.562  0.00  0.00    +0.000 A 
ATOM     16  C   UNL     1       0.117  11.602  21.358  0.00  0.00    +0.000 A 
ATOM     17  N   UNL     1       0.745  10.655  20.618  0.00  0.00    +0.000 NA
ENDBRANCH   9  12
ENDBRANCH   1  10
BRANCH   6  18
ATOM     18  S   UNL     1       5.615   4.884  18.873  0.00  0.00    +0.000 S 
ATOM     19  O   UNL     1       6.285   5.675  19.886  0.00  0.00    +0.000 OA
ATOM     20  O   UNL     1       6.111   3.565  18.549  0.00  0.00    +0.000 OA
BRANCH  18  21
ATOM     21  N   UNL     1       5.593   5.768  17.451  0.00  0.00    +0.000 N 
ATOM     22  H   UNL     1       5.227   6.717  17.505  0.00  0.00    +0.000 HD
BRANCH  21  23
ATOM     23  C   UNL     1       5.834   5.157  16.200  0.00  0.00    +0.000 A 
ATOM     24  C   UNL     1       4.848   4.408  15.556  0.00  0.00    +0.000 A 
ATOM     25  C   UNL     1       5.099   3.874  14.287  0.00  0.00    +0.000 A 
ATOM     26  C   UNL     1       6.331   4.098  13.672  0.00  0.00    +0.000 A 
ATOM     27 CL   UNL     1       6.642   3.451  12.109  0.00  0.00    +0.000 Cl
ATOM     28  C   UNL     1       7.312   4.852  14.313  0.00  0.00    +0.000 A 
ATOM     29  C   UNL     1       7.059   5.391  15.576  0.00  0.00    +0.000 A 
ENDBRANCH  21  23
ENDBRANCH  18  21
ENDBRANCH   6  18
TORSDOF 5
ENDMDL
MODEL 4
REMARK VINA RESULT:      -7.9      5.423      7.036
REMARK  Name = 
REMARK  5 active torsions:
REMARK  status: ('A' for Active; 'I' for Inactive)
REMARK    1  A    between atoms: C_2  and  C_22
REMARK    2  A    between atoms: N_3  and  C_4
REMARK    3  A    between atoms: C_9  and  S_10
REMARK    4  A    between atoms: S_10  and  N_13
REMARK    5  A    between atoms: N_13  and  C_14
REMARK                            x       y       z     vdW  Elec       q    Type
REMARK                         _______ _______ _______ _____ _____    ______ ____
ROOT
ATOM      1  C   UNL     1       4.070   3.257  17.293  0.00  0.00    +0.000 A 
ATOM      2  C   UNL     1       3.880   1.938  17.707  0.00  0.00    +0.000 A 
ATOM      3  C   UNL     1       3.176   1.640  18.876  0.00  0.00    +0.000 A 
ATOM      4  C   UNL     1       2.648   2.660  19.670  0.00  0.00    +0.000 A 
ATOM      5 CL   UNL     1       1.837   2.154  21.104  0.00  0.00    +0.000 Cl
ATOM      6  C   UNL     1       2.845   3.988  19.282  0.00  0.00    +0.000 A 
ATOM      7  C   UNL     1       3.573   4.284  18.105  0.00  0.00    +0.000 A 
ENDROOT
BRANCH   1  10
ATOM      8  O   UNL     1       6.777   4.297  16.933  0.00  0.00    +0.000 OA
ATOM      9  C   UNL     1       6.017   4.091  15.989  0.00  0.00    +0.000 C 
ATOM     10  N   UNL     1       4.726   3.585  16.083  0.00  0.00    +0.000 N 
ATOM     11  H   UNL     1       4.287   3.345  15.197  0.00  0.00    +0.000 HD
BRANCH   9  12
ATOM     12  C   UNL     1       6.524   4.364  14.609  0.00  0.00    +0.000 A 
ATOM     13  C   UNL     1       5.966   3.650  13.548  0.00  0.00    +0.000 A 
ATOM     14  C   UNL     1       6.450   3.870  12.266  0.00  0.00    +0.000 A 
ATOM     15  C   UNL     1       7.478   4.787  12.086  0.00  0.00    +0.000 A 
ATOM     16  C   UNL     1       7.972   5.458  13.200  0.00  0.00    +0.000 A 
ATOM     17  N   UNL     1       7.518   5.281  14.465  0.00  0.00    +0.000 NA
ENDBRANCH   9  12
ENDBRANCH   1  10
BRANCH   6  18
ATOM     18  S   UNL     1       2.107   5.350  20.160  0.00  0.00    +0.000 S 
ATOM     19  O   UNL     1       0.680   5.313  19.904  0.00  0.00    +0.000 OA
ATOM     20  O   UNL     1       2.590   5.364  21.522  0.00  0.00    +0.000 OA
BRANCH  18  21
ATOM     21  N   UNL     1       2.739   6.700  19.397  0.00  0.00    +0.000 N 
ATOM     22  H   UNL     1       3.727   6.670  19.154  0.00  0.00    +0.000 HD
BRANCH  21  23
ATOM     23  C   UNL     1       2.012   7.909  19.316  0.00  0.00    +0.000 A 
ATOM     24  C   UNL     1       1.399   8.463  20.440  0.00  0.00    +0.000 A 
ATOM     25  C   UNL     1       0.744   9.696  20.336  0.00  0.00    +0.000 A 
ATOM     26  C   UNL     1       0.712  10.363  19.112  0.00  0.00    +0.000 A 
ATOM     27 CL   UNL     1      -0.084  11.883  18.981  0.00  0.00    +0.000 Cl
ATOM     28  C   UNL     1       1.331   9.811  17.992  0.00  0.00    +0.000 A 
ATOM     29  C   UNL     1       1.990   8.585  18.097  0.00  0.00    +0.000 A 
ENDBRANCH  21  23
ENDBRANCH  18  21
ENDBRANCH   6  18
TORSDOF 5
ENDMDL
MODEL 5
REMARK VINA RESULT:      -7.9      4.881      7.218
REMARK  Name = 
REMARK  5 active torsions:
REMARK  status: ('A' for Active; 'I' for Inactive)
REMARK    1  A    between atoms: C_2  and  C_22
REMARK    2  A    between atoms: N_3  and  C_4
REMARK    3  A    between atoms: C_9  and  S_10
REMARK    4  A    between atoms: S_10  and  N_13
REMARK    5  A    between atoms: N_13  and  C_14
REMARK                            x       y       z     vdW  Elec       q    Type
REMARK                         _______ _______ _______ _____ _____    ______ ____
ROOT
ATOM      1  C   UNL     1       2.164   6.752  19.929  0.00  0.00    +0.000 A 
ATOM      2  C   UNL     1       1.482   5.760  20.635  0.00  0.00    +0.000 A 
ATOM      3  C   UNL     1       2.027   4.485  20.802  0.00  0.00    +0.000 A 
ATOM      4  C   UNL     1       3.274   4.166  20.259  0.00  0.00    +0.000 A 
ATOM      5 CL   UNL     1       3.810   2.547  20.508  0.00  0.00    +0.000 Cl
ATOM      6  C   UNL     1       3.963   5.141  19.533  0.00  0.00    +0.000 A 
ATOM      7  C   UNL     1       3.397   6.426  19.353  0.00  0.00    +0.000 A 
ENDROOT
BRANCH   1  10
ATOM      8  O   UNL     1       1.370   8.603  22.046  0.00  0.00    +0.000 OA
ATOM      9  C   UNL     1       1.290   8.889  20.854  0.00  0.00    +0.000 C 
ATOM     10  N   UNL     1       1.663   8.068  19.796  0.00  0.00    +0.000 N 
ATOM     11  H   UNL     1       1.662   8.512  18.880  0.00  0.00    +0.000 HD
BRANCH   9  12
ATOM     12  C   UNL     1       0.789  10.251  20.493  0.00  0.00    +0.000 A 
ATOM     13  C   UNL     1       0.226  10.433  19.230  0.00  0.00    +0.000 A 
ATOM     14  C   UNL     1      -0.213  11.700  18.869  0.00  0.00    +0.000 A 
ATOM     15  C   UNL     1      -0.068  12.742  19.776  0.00  0.00    +0.000 A 
ATOM     16  C   UNL     1       0.500  12.470  21.016  0.00  0.00    +0.000 A 
ATOM     17  N   UNL     1       0.929  11.245  21.411  0.00  0.00    +0.000 NA
ENDBRANCH   9  12
ENDBRANCH   1  10
BRANCH   6  18
ATOM     18  S   UNL     1       5.608   4.868  18.909  0.00  0.00    +0.000 S 
ATOM     19  O   UNL     1       6.541   5.362  19.904  0.00  0.00    +0.000 OA
ATOM     20  O   UNL     1       5.724   3.508  18.431  0.00  0.00    +0.000 OA
BRANCH  18  21
ATOM     21  N   UNL     1       5.694   5.872  17.571  0.00  0.00    +0.000 N 
ATOM     22  H   UNL     1       5.395   6.837  17.701  0.00  0.00    +0.000 HD
BRANCH  21  23
ATOM     23  C   UNL     1       5.928   5.356  16.277  0.00  0.00    +0.000 A 
ATOM     24  C   UNL     1       7.209   5.339  15.723  0.00  0.00    +0.000 A 
ATOM     25  C   UNL     1       7.414   4.760  14.466  0.00  0.00    +0.000 A 
ATOM     26  C   UNL     1       6.338   4.199  13.777  0.00  0.00    +0.000 A 
ATOM     27 CL   UNL     1       6.586   3.478  12.235  0.00  0.00    +0.000 Cl
ATOM     28  C   UNL     1       5.061   4.211  14.334  0.00  0.00    +0.000 A 
ATOM     29  C   UNL     1       4.857   4.784  15.591  0.00  0.00    +0.000 A 
ENDBRANCH  21  23
ENDBRANCH  18  21
ENDBRANCH   6  18
TORSDOF 5
ENDMDL
MODEL 6
REMARK VINA RESULT:      -7.8      6.425      9.020
REMARK  Name = 
REMARK  5 active torsions:
REMARK  status: ('A' for Active; 'I' for Inactive)
REMARK    1  A    between atoms: C_2  and  C_22
REMARK    2  A    between atoms: N_3  and  C_4
REMARK    3  A    between atoms: C_9  and  S_10
REMARK    4  A    between atoms: S_10  and  N_13
REMARK    5  A    between atoms: N_13  and  C_14
REMARK                            x       y       z     vdW  Elec       q    Type
REMARK                         _______ _______ _______ _____ _____    ______ ____
ROOT
ATOM      1  C   UNL     1       1.364   8.715  20.297  0.00  0.00    +0.000 A 
ATOM      2  C   UNL     1       1.180   8.445  21.654  0.00  0.00    +0.000 A 
ATOM      3  C   UNL     1       0.345   9.239  22.443  0.00  0.00    +0.000 A 
ATOM      4  C   UNL     1      -0.325  10.335  21.894  0.00  0.00    +0.000 A 
ATOM      5 CL   UNL     1      -1.291  11.251  22.988  0.00  0.00    +0.000 Cl
ATOM      6  C   UNL     1      -0.137  10.632  20.541  0.00  0.00    +0.000 A 
ATOM      7  C   UNL     1       0.723   9.832  19.751  0.00  0.00    +0.000 A 
ENDROOT
BRANCH   1  10
ATOM      8  O   UNL     1       1.848   5.843  20.530  0.00  0.00    +0.000 OA
ATOM      9  C   UNL     1       2.352   6.528  19.643  0.00  0.00    +0.000 C 
ATOM     10  N   UNL     1       2.155   7.892  19.462  0.00  0.00    +0.000 N 
ATOM     11  H   UNL     1       2.535   8.275  18.599  0.00  0.00    +0.000 HD
BRANCH   9  12
ATOM     12  C   UNL     1       3.223   5.843  18.639  0.00  0.00    +0.000 A 
ATOM     13  C   UNL     1       3.882   6.628  17.693  0.00  0.00    +0.000 A 
ATOM     14  C   UNL     1       4.667   6.003  16.734  0.00  0.00    +0.000 A 
ATOM     15  C   UNL     1       4.762   4.617  16.747  0.00  0.00    +0.000 A 
ATOM     16  C   UNL     1       4.076   3.912  17.730  0.00  0.00    +0.000 A 
ATOM     17  N   UNL     1       3.310   4.486  18.691  0.00  0.00    +0.000 NA
ENDBRANCH   9  12
ENDBRANCH   1  10
BRANCH   6  18
ATOM     18  S   UNL     1      -1.041  11.930  19.724  0.00  0.00    +0.000 S 
ATOM     19  O   UNL     1      -1.366  12.932  20.722  0.00  0.00    +0.000 OA
ATOM     20  O   UNL     1      -0.343  12.319  18.519  0.00  0.00    +0.000 OA
BRANCH  18  21
ATOM     21  N   UNL     1      -2.464  11.183  19.253  0.00  0.00    +0.000 N 
ATOM     22  H   UNL     1      -3.034  10.773  19.990  0.00  0.00    +0.000 HD
BRANCH  21  23
ATOM     23  C   UNL     1      -2.740  10.915  17.893  0.00  0.00    +0.000 A 
ATOM     24  C   UNL     1      -2.017   9.957  17.182  0.00  0.00    +0.000 A 
ATOM     25  C   UNL     1      -2.363   9.670  15.856  0.00  0.00    +0.000 A 
ATOM     26  C   UNL     1      -3.430  10.339  15.257  0.00  0.00    +0.000 A 
ATOM     27 CL   UNL     1      -3.864   9.985  13.631  0.00  0.00    +0.000 Cl
ATOM     28  C   UNL     1      -4.155  11.291  15.972  0.00  0.00    +0.000 A 
ATOM     29  C   UNL     1      -3.814  11.573  17.296  0.00  0.00    +0.000 A 
ENDBRANCH  21  23
ENDBRANCH  18  21
ENDBRANCH   6  18
TORSDOF 5
ENDMDL
MODEL 7
REMARK VINA RESULT:      -7.8      1.446      1.758
REMARK  Name = 
REMARK  5 active torsions:
REMARK  status: ('A' for Active; 'I' for Inactive)
REMARK    1  A    between atoms: C_2  and  C_22
REMARK    2  A    between atoms: N_3  and  C_4
REMARK    3  A    between atoms: C_9  and  S_10
REMARK    4  A    between atoms: S_10  and  N_13
REMARK    5  A    between atoms: N_13  and  C_14
REMARK                            x       y       z     vdW  Elec       q    Type
REMARK                         _______ _______ _______ _____ _____    ______ ____
ROOT
ATOM      1  C   UNL     1       8.017   8.247  17.926  0.00  0.00    +0.000 A 
ATOM      2  C   UNL     1       8.444   7.423  18.970  0.00  0.00    +0.000 A 
ATOM      3  C   UNL     1       7.922   6.139  19.138  0.00  0.00    +0.000 A 
ATOM      4  C   UNL     1       6.949   5.644  18.267  0.00  0.00    +0.000 A 
ATOM      5 CL   UNL     1       6.365   4.060  18.612  0.00  0.00    +0.000 Cl
ATOM      6  C   UNL     1       6.496   6.461  17.227  0.00  0.00    +0.000 A 
ATOM      7  C   UNL     1       7.017   7.768  17.072  0.00  0.00    +0.000 A 
ENDROOT
BRANCH   1  10
ATOM      8  O   UNL     1       9.157  10.095  19.881  0.00  0.00    +0.000 OA
ATOM      9  C   UNL     1       9.085  10.362  18.684  0.00  0.00    +0.000 C 
ATOM     10  N   UNL     1       8.572   9.527  17.697  0.00  0.00    +0.000 N 
ATOM     11  H   UNL     1       8.716   9.845  16.741  0.00  0.00    +0.000 HD
BRANCH   9  12
ATOM     12  C   UNL     1       9.631  11.675  18.225  0.00  0.00    +0.000 A 
ATOM     13  C   UNL     1      10.915  11.702  17.680  0.00  0.00    +0.000 A 
ATOM     14  C   UNL     1      11.448  12.920  17.280  0.00  0.00    +0.000 A 
ATOM     15  C   UNL     1      10.685  14.070  17.444  0.00  0.00    +0.000 A 
ATOM     16  C   UNL     1       9.412  13.951  17.990  0.00  0.00    +0.000 A 
ATOM     17  N   UNL     1       8.852  12.779  18.381  0.00  0.00    +0.000 NA
ENDBRANCH   9  12
ENDBRANCH   1  10
BRANCH   6  18
ATOM     18  S   UNL     1       5.351   5.877  15.995  0.00  0.00    +0.000 S 
ATOM     19  O   UNL     1       4.912   7.025  15.226  0.00  0.00    +0.000 OA
ATOM     20  O   UNL     1       5.917   4.733  15.316  0.00  0.00    +0.000 OA
BRANCH  18  21
ATOM     21  N   UNL     1       4.052   5.324  16.896  0.00  0.00    +0.000 N 
ATOM     22  H   UNL     1       3.631   4.444  16.603  0.00  0.00    +0.000 HD
BRANCH  21  23
ATOM     23  C   UNL     1       3.414   6.147  17.851  0.00  0.00    +0.000 A 
ATOM     24  C   UNL     1       3.014   7.447  17.538  0.00  0.00    +0.000 A 
ATOM     25  C   UNL     1       2.325   8.209  18.488  0.00  0.00    +0.000 A 
ATOM     26  C   UNL     1       2.038   7.663  19.739  0.00  0.00    +0.000 A 
ATOM     27 CL   UNL     1       1.184   8.593  20.907  0.00  0.00    +0.000 Cl
ATOM     28  C   UNL     1       2.432   6.362  20.048  0.00  0.00    +0.000 A 
ATOM     29  C   UNL     1       3.114   5.600  19.098  0.00  0.00    +0.000 A 
ENDBRANCH  21  23
ENDBRANCH  18  21
ENDBRANCH   6  18
TORSDOF 5
ENDMDL
MODEL 8
REMARK VINA RESULT:      -7.7      5.164      7.671
REMARK  Name = 
REMARK  5 active torsions:
REMARK  status: ('A' for Active; 'I' for Inactive)
REMARK    1  A    between atoms: C_2  and  C_22
REMARK    2  A    between atoms: N_3  and  C_4
REMARK    3  A    between atoms: C_9  and  S_10
REMARK    4  A    between atoms: S_10  and  N_13
REMARK    5  A    between atoms: N_13  and  C_14
REMARK                            x       y       z     vdW  Elec       q    Type
REMARK                         _______ _______ _______ _____ _____    ______ ____
ROOT
ATOM      1  C   UNL     1       1.894   6.082  20.543  0.00  0.00    +0.000 A 
ATOM      2  C   UNL     1       1.370   4.803  20.736  0.00  0.00    +0.000 A 
ATOM      3  C   UNL     1       2.064   3.666  20.316  0.00  0.00    +0.000 A 
ATOM      4  C   UNL     1       3.303   3.780  19.682  0.00  0.00    +0.000 A 
ATOM      5 CL   UNL     1       4.031   2.301  19.181  0.00  0.00    +0.000 Cl
ATOM      6  C   UNL     1       3.834   5.054  19.463  0.00  0.00    +0.000 A 
ATOM      7  C   UNL     1       3.118   6.203  19.877  0.00  0.00    +0.000 A 
ENDROOT
BRANCH   1  10
ATOM      8  O   UNL     1       1.710   8.694  19.247  0.00  0.00    +0.000 OA
ATOM      9  C   UNL     1       1.208   8.465  20.344  0.00  0.00    +0.000 C 
ATOM     10  N   UNL     1       1.241   7.246  21.013  0.00  0.00    +0.000 N 
ATOM     11  H   UNL     1       0.658   7.190  21.844  0.00  0.00    +0.000 HD
BRANCH   9  12
ATOM     12  C   UNL     1       0.455   9.569  21.014  0.00  0.00    +0.000 A 
ATOM     13  C   UNL     1       0.164  10.714  20.271  0.00  0.00    +0.000 A 
ATOM     14  C   UNL     1      -0.505  11.761  20.891  0.00  0.00    +0.000 A 
ATOM     15  C   UNL     1      -0.854  11.634  22.229  0.00  0.00    +0.000 A 
ATOM     16  C   UNL     1      -0.530  10.455  22.892  0.00  0.00    +0.000 A 
ATOM     17  N   UNL     1       0.111   9.406  22.320  0.00  0.00    +0.000 NA
ENDBRANCH   9  12
ENDBRANCH   1  10
BRANCH   6  18
ATOM     18  S   UNL     1       5.458   5.296  18.775  0.00  0.00    +0.000 S 
ATOM     19  O   UNL     1       5.419   6.504  17.975  0.00  0.00    +0.000 OA
ATOM     20  O   UNL     1       6.449   5.159  19.819  0.00  0.00    +0.000 OA
BRANCH  18  21
ATOM     21  N   UNL     1       5.647   3.992  17.741  0.00  0.00    +0.000 N 
ATOM     22  H   UNL     1       5.624   3.065  18.162  0.00  0.00    +0.000 HD
BRANCH  21  23
ATOM     23  C   UNL     1       6.062   4.167  16.402  0.00  0.00    +0.000 A 
ATOM     24  C   UNL     1       5.223   3.846  15.334  0.00  0.00    +0.000 A 
ATOM     25  C   UNL     1       5.642   4.096  14.023  0.00  0.00    +0.000 A 
ATOM     26  C   UNL     1       6.893   4.667  13.792  0.00  0.00    +0.000 A 
ATOM     27 CL   UNL     1       7.410   4.984  12.182  0.00  0.00    +0.000 Cl
ATOM     28  C   UNL     1       7.727   4.993  14.860  0.00  0.00    +0.000 A 
ATOM     29  C   UNL     1       7.306   4.750  16.169  0.00  0.00    +0.000 A 
ENDBRANCH  21  23
ENDBRANCH  18  21
ENDBRANCH   6  18
TORSDOF 5
ENDMDL
MODEL 9
REMARK VINA RESULT:      -7.7      5.693      8.019
REMARK  Name = 
REMARK  5 active torsions:
REMARK  status: ('A' for Active; 'I' for Inactive)
REMARK    1  A    between atoms: C_2  and  C_22
REMARK    2  A    between atoms: N_3  and  C_4
REMARK    3  A    between atoms: C_9  and  S_10
REMARK    4  A    between atoms: S_10  and  N_13
REMARK    5  A    between atoms: N_13  and  C_14
REMARK                            x       y       z     vdW  Elec       q    Type
REMARK                         _______ _______ _______ _____ _____    ______ ____
ROOT
ATOM      1  C   UNL     1       2.320   7.261  19.237  0.00  0.00    +0.000 A 
ATOM      2  C   UNL     1       1.831   6.521  20.315  0.00  0.00    +0.000 A 
ATOM      3  C   UNL     1       1.038   7.114  21.299  0.00  0.00    +0.000 A 
ATOM      4  C   UNL     1       0.717   8.472  21.235  0.00  0.00    +0.000 A 
ATOM      5 CL   UNL     1      -0.236   9.082  22.535  0.00  0.00    +0.000 Cl
ATOM      6  C   UNL     1       1.213   9.233  20.173  0.00  0.00    +0.000 A 
ATOM      7  C   UNL     1       2.029   8.629  19.187  0.00  0.00    +0.000 A 
ENDROOT
BRANCH   1  10
ATOM      8  O   UNL     1       4.685   5.560  19.460  0.00  0.00    +0.000 OA
ATOM      9  C   UNL     1       4.203   5.882  18.377  0.00  0.00    +0.000 C 
ATOM     10  N   UNL     1       3.074   6.673  18.194  0.00  0.00    +0.000 N 
ATOM     11  H   UNL     1       2.731   6.727  17.238  0.00  0.00    +0.000 HD
BRANCH   9  12
ATOM     12  C   UNL     1       4.850   5.353  17.137  0.00  0.00    +0.000 A 
ATOM     13  C   UNL     1       5.084   6.240  16.086  0.00  0.00    +0.000 A 
ATOM     14  C   UNL     1       5.654   5.755  14.916  0.00  0.00    +0.000 A 
ATOM     15  C   UNL     1       5.963   4.403  14.833  0.00  0.00    +0.000 A 
ATOM     16  C   UNL     1       5.701   3.592  15.931  0.00  0.00    +0.000 A 
ATOM     17  N   UNL     1       5.158   4.029  17.095  0.00  0.00    +0.000 NA
ENDBRANCH   9  12
ENDBRANCH   1  10
BRANCH   6  18
ATOM     18  S   UNL     1       0.758  10.938  19.939  0.00  0.00    +0.000 S 
ATOM     19  O   UNL     1       1.124  11.658  21.143  0.00  0.00    +0.000 OA
ATOM     20  O   UNL     1       1.243  11.395  18.656  0.00  0.00    +0.000 OA
BRANCH  18  21
ATOM     21  N   UNL     1      -0.914  10.891  19.848  0.00  0.00    +0.000 N 
ATOM     22  H   UNL     1      -1.419  10.772  20.724  0.00  0.00    +0.000 HD
BRANCH  21  23
ATOM     23  C   UNL     1      -1.581  10.772  18.608  0.00  0.00    +0.000 A 
ATOM     24  C   UNL     1      -1.234   9.780  17.690  0.00  0.00    +0.000 A 
ATOM     25  C   UNL     1      -1.961   9.650  16.501  0.00  0.00    +0.000 A 
ATOM     26  C   UNL     1      -3.031  10.507  16.245  0.00  0.00    +0.000 A 
ATOM     27 CL   UNL     1      -3.933  10.346  14.790  0.00  0.00    +0.000 Cl
ATOM     28  C   UNL     1      -3.381  11.493  17.167  0.00  0.00    +0.000 A 
ATOM     29  C   UNL     1      -2.659  11.619  18.355  0.00  0.00    +0.000 A 
ENDBRANCH  21  23
ENDBRANCH  18  21
ENDBRANCH   6  18
TORSDOF 5
ENDMDL
