MODEL 1
REMARK VINA RESULT:      -7.6      0.000      0.000
REMARK  Name = 
REMARK  5 active torsions:
REMARK  status: ('A' for Active; 'I' for Inactive)
REMARK    1  A    between atoms: C_1  and  C_2
REMARK    2  A    between atoms: C_4  and  S_5
REMARK    3  A    between atoms: S_5  and  N_8
REMARK    4  A    between atoms: C_12  and  C_13
REMARK    5  A    between atoms: C_13  and  C_14
REMARK                            x       y       z     vdW  Elec       q    Type
REMARK                         _______ _______ _______ _____ _____    ______ ____
ROOT
ATOM      1  N   UNL     1       1.057  10.729  19.950  0.00  0.00    +0.000 N 
ATOM      2  C   UNL     1       1.357   9.347  19.757  0.00  0.00    +0.000 A 
ATOM      3  N   UNL     1       1.313   8.535  20.785  0.00  0.00    +0.000 NA
ATOM      4  N   UNL     1       1.784   7.274  20.460  0.00  0.00    +0.000 NA
ATOM      5  C   UNL     1       2.161   7.193  19.199  0.00  0.00    +0.000 A 
ATOM      6  S   UNL     1       1.978   8.664  18.325  0.00  0.00    +0.000 S 
ATOM      7  H   UNL     1       0.949  10.833  20.964  0.00  0.00    +0.000 HD
ENDROOT
BRANCH   1   8
ATOM      8  S   UNL     1      -0.441  11.120  19.278  0.00  0.00    +0.000 S 
ATOM      9  O   UNL     1      -0.993   9.885  18.779  0.00  0.00    +0.000 OA
ATOM     10  O   UNL     1      -0.359  12.317  18.465  0.00  0.00    +0.000 OA
BRANCH   8  14
ATOM     11  C   UNL     1      -4.405  13.672  21.682  0.00  0.00    +0.000 C 
ATOM     12  C   UNL     1      -3.200  12.782  21.764  0.00  0.00    +0.000 A 
ATOM     13  C   UNL     1      -2.504  12.391  20.612  0.00  0.00    +0.000 A 
ATOM     14  C   UNL     1      -1.375  11.572  20.731  0.00  0.00    +0.000 A 
ATOM     15  C   UNL     1      -0.925  11.136  21.983  0.00  0.00    +0.000 A 
ATOM     16  C   UNL     1      -1.623  11.522  23.127  0.00  0.00    +0.000 A 
ATOM     17  C   UNL     1      -2.748  12.337  23.009  0.00  0.00    +0.000 A 
ATOM     18  F   UNL     1      -3.397  12.704  24.122  0.00  0.00    +0.000 F 
ENDBRANCH   8  14
ENDBRANCH   1   8
BRANCH   5  19
ATOM     19  C   UNL     1       2.759   5.890  18.608  0.00  0.00    +0.000 C 
ATOM     20  C   UNL     1       1.888   4.984  17.736  0.00  0.00    +0.000 C 
ATOM     21  C   UNL     1       2.212   4.568  19.136  0.00  0.00    +0.000 C 
BRANCH  19  22
ATOM     22  C   UNL     1       4.254   5.942  18.307  0.00  0.00    +0.000 A 
ATOM     23  C   UNL     1       4.775   6.647  17.210  0.00  0.00    +0.000 A 
ATOM     24  C   UNL     1       6.155   6.781  17.020  0.00  0.00    +0.000 A 
ATOM     25  C   UNL     1       7.043   6.203  17.924  0.00  0.00    +0.000 A 
ATOM     26  C   UNL     1       6.556   5.460  18.993  0.00  0.00    +0.000 A 
ATOM     27  C   UNL     1       5.178   5.323  19.173  0.00  0.00    +0.000 A 
ENDBRANCH  19  22
ENDBRANCH   5  19
TORSDOF 4
ENDMDL
MODEL 2
REMARK VINA RESULT:      -7.6      1.928      3.488
REMARK  Name = 
REMARK  5 active torsions:
REMARK  status: ('A' for Active; 'I' for Inactive)
REMARK    1  A    between atoms: C_1  and  C_2
REMARK    2  A    between atoms: C_4  and  S_5
REMARK    3  A    between atoms: S_5  and  N_8
REMARK    4  A    between atoms: C_12  and  C_13
REMARK    5  A    between atoms: C_13  and  C_14
REMARK                            x       y       z     vdW  Elec       q    Type
REMARK                         _______ _______ _______ _____ _____    ______ ____
ROOT
ATOM      1  N   UNL     1      -0.344  10.026  20.544  0.00  0.00    +0.000 N 
ATOM      2  C   UNL     1       0.683   9.183  20.022  0.00  0.00    +0.000 A 
ATOM      3  N   UNL     1       1.201   9.460  18.849  0.00  0.00    +0.000 NA
ATOM      4  N   UNL     1       2.060   8.462  18.422  0.00  0.00    +0.000 NA
ATOM      5  C   UNL     1       2.153   7.477  19.294  0.00  0.00    +0.000 A 
ATOM      6  S   UNL     1       1.179   7.698  20.696  0.00  0.00    +0.000 S 
ATOM      7  H   UNL     1      -0.553  10.682  19.787  0.00  0.00    +0.000 HD
ENDROOT
BRANCH   1   8
ATOM      8  S   UNL     1       0.237  10.959  21.826  0.00  0.00    +0.000 S 
ATOM      9  O   UNL     1       1.321  11.745  21.292  0.00  0.00    +0.000 OA
ATOM     10  O   UNL     1       0.371  10.171  23.034  0.00  0.00    +0.000 OA
BRANCH   8  14
ATOM     11  C   UNL     1      -4.104  12.451  24.460  0.00  0.00    +0.000 C 
ATOM     12  C   UNL     1      -3.123  12.677  23.348  0.00  0.00    +0.000 A 
ATOM     13  C   UNL     1      -2.020  11.832  23.166  0.00  0.00    +0.000 A 
ATOM     14  C   UNL     1      -1.135  12.066  22.107  0.00  0.00    +0.000 A 
ATOM     15  C   UNL     1      -1.333  13.133  21.222  0.00  0.00    +0.000 A 
ATOM     16  C   UNL     1      -2.428  13.976  21.408  0.00  0.00    +0.000 A 
ATOM     17  C   UNL     1      -3.309  13.743  22.463  0.00  0.00    +0.000 A 
ATOM     18  F   UNL     1      -4.360  14.560  22.617  0.00  0.00    +0.000 F 
ENDBRANCH   8  14
ENDBRANCH   1   8
BRANCH   5  19
ATOM     19  C   UNL     1       3.027   6.226  19.023  0.00  0.00    +0.000 C 
ATOM     20  C   UNL     1       4.546   6.313  19.187  0.00  0.00    +0.000 C 
ATOM     21  C   UNL     1       3.956   6.272  17.814  0.00  0.00    +0.000 C 
BRANCH  19  22
ATOM     22  C   UNL     1       2.355   4.889  19.321  0.00  0.00    +0.000 A 
ATOM     23  C   UNL     1       2.191   4.406  20.629  0.00  0.00    +0.000 A 
ATOM     24  C   UNL     1       1.468   3.238  20.888  0.00  0.00    +0.000 A 
ATOM     25  C   UNL     1       0.900   2.521  19.837  0.00  0.00    +0.000 A 
ATOM     26  C   UNL     1       1.086   2.949  18.528  0.00  0.00    +0.000 A 
ATOM     27  C   UNL     1       1.815   4.113  18.275  0.00  0.00    +0.000 A 
ENDBRANCH  19  22
ENDBRANCH   5  19
TORSDOF 4
ENDMDL
MODEL 3
REMARK VINA RESULT:      -7.6      1.058      2.710
REMARK  Name = 
REMARK  5 active torsions:
REMARK  status: ('A' for Active; 'I' for Inactive)
REMARK    1  A    between atoms: C_1  and  C_2
REMARK    2  A    between atoms: C_4  and  S_5
REMARK    3  A    between atoms: S_5  and  N_8
REMARK    4  A    between atoms: C_12  and  C_13
REMARK    5  A    between atoms: C_13  and  C_14
REMARK                            x       y       z     vdW  Elec       q    Type
REMARK                         _______ _______ _______ _____ _____    ______ ____
ROOT
ATOM      1  N   UNL     1       0.788  11.105  19.789  0.00  0.00    +0.000 N 
ATOM      2  C   UNL     1       1.182   9.736  19.701  0.00  0.00    +0.000 A 
ATOM      3  N   UNL     1       1.203   9.006  20.791  0.00  0.00    +0.000 NA
ATOM      4  N   UNL     1       1.758   7.760  20.560  0.00  0.00    +0.000 NA
ATOM      5  C   UNL     1       2.131   7.604  19.304  0.00  0.00    +0.000 A 
ATOM      6  S   UNL     1       1.839   8.985  18.320  0.00  0.00    +0.000 S 
ATOM      7  H   UNL     1       0.680  11.281  20.792  0.00  0.00    +0.000 HD
ENDROOT
BRANCH   1   8
ATOM      8  S   UNL     1      -0.739  11.336  19.107  0.00  0.00    +0.000 S 
ATOM      9  O   UNL     1      -1.206  10.031  18.713  0.00  0.00    +0.000 OA
ATOM     10  O   UNL     1      -0.747  12.469  18.204  0.00  0.00    +0.000 OA
BRANCH   8  14
ATOM     11  C   UNL     1      -4.881  13.744  21.355  0.00  0.00    +0.000 C 
ATOM     12  C   UNL     1      -3.603  12.971  21.491  0.00  0.00    +0.000 A 
ATOM     13  C   UNL     1      -2.889  12.540  20.365  0.00  0.00    +0.000 A 
ATOM     14  C   UNL     1      -1.692  11.834  20.533  0.00  0.00    +0.000 A 
ATOM     15  C   UNL     1      -1.193  11.549  21.810  0.00  0.00    +0.000 A 
ATOM     16  C   UNL     1      -1.909  11.974  22.929  0.00  0.00    +0.000 A 
ATOM     17  C   UNL     1      -3.101  12.677  22.761  0.00  0.00    +0.000 A 
ATOM     18  F   UNL     1      -3.767  13.083  23.851  0.00  0.00    +0.000 F 
ENDBRANCH   8  14
ENDBRANCH   1   8
BRANCH   5  19
ATOM     19  C   UNL     1       2.814   6.303  18.810  0.00  0.00    +0.000 C 
ATOM     20  C   UNL     1       4.339   6.233  18.726  0.00  0.00    +0.000 C 
ATOM     21  C   UNL     1       3.538   6.360  17.469  0.00  0.00    +0.000 C 
BRANCH  19  22
ATOM     22  C   UNL     1       2.060   5.016  19.128  0.00  0.00    +0.000 A 
ATOM     23  C   UNL     1       1.596   4.150  18.124  0.00  0.00    +0.000 A 
ATOM     24  C   UNL     1       1.013   2.918  18.437  0.00  0.00    +0.000 A 
ATOM     25  C   UNL     1       0.874   2.530  19.768  0.00  0.00    +0.000 A 
ATOM     26  C   UNL     1       1.280   3.387  20.784  0.00  0.00    +0.000 A 
ATOM     27  C   UNL     1       1.855   4.619  20.465  0.00  0.00    +0.000 A 
ENDBRANCH  19  22
ENDBRANCH   5  19
TORSDOF 4
ENDMDL
MODEL 4
REMARK VINA RESULT:      -7.6      1.654      3.192
REMARK  Name = 
REMARK  5 active torsions:
REMARK  status: ('A' for Active; 'I' for Inactive)
REMARK    1  A    between atoms: C_1  and  C_2
REMARK    2  A    between atoms: C_4  and  S_5
REMARK    3  A    between atoms: S_5  and  N_8
REMARK    4  A    between atoms: C_12  and  C_13
REMARK    5  A    between atoms: C_13  and  C_14
REMARK                            x       y       z     vdW  Elec       q    Type
REMARK                         _______ _______ _______ _____ _____    ______ ____
ROOT
ATOM      1  N   UNL     1       0.226  10.190  19.531  0.00  0.00    +0.000 N 
ATOM      2  C   UNL     1       1.212   9.211  19.203  0.00  0.00    +0.000 A 
ATOM      3  N   UNL     1       1.877   9.327  18.079  0.00  0.00    +0.000 NA
ATOM      4  N   UNL     1       2.671   8.219  17.838  0.00  0.00    +0.000 NA
ATOM      5  C   UNL     1       2.568   7.316  18.794  0.00  0.00    +0.000 A 
ATOM      6  S   UNL     1       1.478   7.756  20.050  0.00  0.00    +0.000 S 
ATOM      7  H   UNL     1       0.167  10.789  18.702  0.00  0.00    +0.000 HD
ENDROOT
BRANCH   1   8
ATOM      8  S   UNL     1       0.758  11.182  20.789  0.00  0.00    +0.000 S 
ATOM      9  O   UNL     1       1.316  12.356  20.167  0.00  0.00    +0.000 OA
ATOM     10  O   UNL     1       1.473  10.422  21.793  0.00  0.00    +0.000 OA
BRANCH   8  14
ATOM     11  C   UNL     1      -3.922  13.650  20.688  0.00  0.00    +0.000 C 
ATOM     12  C   UNL     1      -2.907  12.829  21.427  0.00  0.00    +0.000 A 
ATOM     13  C   UNL     1      -1.719  12.413  20.812  0.00  0.00    +0.000 A 
ATOM     14  C   UNL     1      -0.789  11.661  21.540  0.00  0.00    +0.000 A 
ATOM     15  C   UNL     1      -1.025  11.315  22.876  0.00  0.00    +0.000 A 
ATOM     16  C   UNL     1      -2.212  11.725  23.484  0.00  0.00    +0.000 A 
ATOM     17  C   UNL     1      -3.138  12.473  22.759  0.00  0.00    +0.000 A 
ATOM     18  F   UNL     1      -4.266  12.864  23.366  0.00  0.00    +0.000 F 
ENDBRANCH   8  14
ENDBRANCH   1   8
BRANCH   5  19
ATOM     19  C   UNL     1       3.335   5.969  18.730  0.00  0.00    +0.000 C 
ATOM     20  C   UNL     1       4.840   5.941  19.002  0.00  0.00    +0.000 C 
ATOM     21  C   UNL     1       4.343   5.792  17.599  0.00  0.00    +0.000 C 
BRANCH  19  22
ATOM     22  C   UNL     1       2.518   4.741  19.119  0.00  0.00    +0.000 A 
ATOM     23  C   UNL     1       2.191   4.449  20.454  0.00  0.00    +0.000 A 
ATOM     24  C   UNL     1       1.342   3.385  20.778  0.00  0.00    +0.000 A 
ATOM     25  C   UNL     1       0.810   2.584  19.771  0.00  0.00    +0.000 A 
ATOM     26  C   UNL     1       1.155   2.820  18.445  0.00  0.00    +0.000 A 
ATOM     27  C   UNL     1       2.008   3.879  18.128  0.00  0.00    +0.000 A 
ENDBRANCH  19  22
ENDBRANCH   5  19
TORSDOF 4
ENDMDL
MODEL 5
REMARK VINA RESULT:      -7.5      1.649      3.055
REMARK  Name = 
REMARK  5 active torsions:
REMARK  status: ('A' for Active; 'I' for Inactive)
REMARK    1  A    between atoms: C_1  and  C_2
REMARK    2  A    between atoms: C_4  and  S_5
REMARK    3  A    between atoms: S_5  and  N_8
REMARK    4  A    between atoms: C_12  and  C_13
REMARK    5  A    between atoms: C_13  and  C_14
REMARK                            x       y       z     vdW  Elec       q    Type
REMARK                         _______ _______ _______ _____ _____    ______ ____
ROOT
ATOM      1  N   UNL     1       0.171  10.714  18.756  0.00  0.00    +0.000 N 
ATOM      2  C   UNL     1       1.129   9.670  18.587  0.00  0.00    +0.000 A 
ATOM      3  N   UNL     1       1.788   9.586  17.456  0.00  0.00    +0.000 NA
ATOM      4  N   UNL     1       2.551   8.433  17.394  0.00  0.00    +0.000 NA
ATOM      5  C   UNL     1       2.434   7.698  18.483  0.00  0.00    +0.000 A 
ATOM      6  S   UNL     1       1.365   8.364  19.656  0.00  0.00    +0.000 S 
ATOM      7  H   UNL     1       0.121  11.173  17.842  0.00  0.00    +0.000 HD
ENDROOT
BRANCH   1   8
ATOM      8  S   UNL     1       0.739  11.882  19.836  0.00  0.00    +0.000 S 
ATOM      9  O   UNL     1       0.647  13.145  19.148  0.00  0.00    +0.000 OA
ATOM     10  O   UNL     1       1.951  11.444  20.497  0.00  0.00    +0.000 OA
BRANCH   8  14
ATOM     11  C   UNL     1      -3.781  13.670  21.928  0.00  0.00    +0.000 C 
ATOM     12  C   UNL     1      -2.604  12.743  21.991  0.00  0.00    +0.000 A 
ATOM     13  C   UNL     1      -1.632  12.730  20.981  0.00  0.00    +0.000 A 
ATOM     14  C   UNL     1      -0.539  11.861  21.083  0.00  0.00    +0.000 A 
ATOM     15  C   UNL     1      -0.398  11.002  22.179  0.00  0.00    +0.000 A 
ATOM     16  C   UNL     1      -1.369  11.013  23.180  0.00  0.00    +0.000 A 
ATOM     17  C   UNL     1      -2.458  11.878  23.078  0.00  0.00    +0.000 A 
ATOM     18  F   UNL     1      -3.373  11.878  24.056  0.00  0.00    +0.000 F 
ENDBRANCH   8  14
ENDBRANCH   1   8
BRANCH   5  19
ATOM     19  C   UNL     1       3.165   6.340  18.634  0.00  0.00    +0.000 C 
ATOM     20  C   UNL     1       4.616   6.310  19.120  0.00  0.00    +0.000 C 
ATOM     21  C   UNL     1       4.317   6.056  17.676  0.00  0.00    +0.000 C 
BRANCH  19  22
ATOM     22  C   UNL     1       2.270   5.160  18.998  0.00  0.00    +0.000 A 
ATOM     23  C   UNL     1       1.821   4.234  18.041  0.00  0.00    +0.000 A 
ATOM     24  C   UNL     1       1.101   3.095  18.412  0.00  0.00    +0.000 A 
ATOM     25  C   UNL     1       0.806   2.862  19.754  0.00  0.00    +0.000 A 
ATOM     26  C   UNL     1       1.195   3.784  20.718  0.00  0.00    +0.000 A 
ATOM     27  C   UNL     1       1.908   4.924  20.340  0.00  0.00    +0.000 A 
ENDBRANCH  19  22
ENDBRANCH   5  19
TORSDOF 4
ENDMDL
MODEL 6
REMARK VINA RESULT:      -7.5      6.185     10.399
REMARK  Name = 
REMARK  5 active torsions:
REMARK  status: ('A' for Active; 'I' for Inactive)
REMARK    1  A    between atoms: C_1  and  C_2
REMARK    2  A    between atoms: C_4  and  S_5
REMARK    3  A    between atoms: S_5  and  N_8
REMARK    4  A    between atoms: C_12  and  C_13
REMARK    5  A    between atoms: C_13  and  C_14
REMARK                            x       y       z     vdW  Elec       q    Type
REMARK                         _______ _______ _______ _____ _____    ______ ____
ROOT
ATOM      1  N   UNL     1       6.556   4.116  16.337  0.00  0.00    +0.000 N 
ATOM      2  C   UNL     1       5.671   4.643  17.325  0.00  0.00    +0.000 A 
ATOM      3  N   UNL     1       6.168   5.090  18.454  0.00  0.00    +0.000 NA
ATOM      4  N   UNL     1       5.171   5.412  19.358  0.00  0.00    +0.000 NA
ATOM      5  C   UNL     1       3.966   5.195  18.870  0.00  0.00    +0.000 A 
ATOM      6  S   UNL     1       3.970   4.565  17.269  0.00  0.00    +0.000 S 
ATOM      7  H   UNL     1       7.476   4.107  16.789  0.00  0.00    +0.000 HD
ENDROOT
BRANCH   1   8
ATOM      8  S   UNL     1       6.690   5.170  15.025  0.00  0.00    +0.000 S 
ATOM      9  O   UNL     1       8.101   5.383  14.822  0.00  0.00    +0.000 OA
ATOM     10  O   UNL     1       5.747   6.265  15.130  0.00  0.00    +0.000 OA
BRANCH   8  14
ATOM     11  C   UNL     1       7.508   1.917  10.932  0.00  0.00    +0.000 C 
ATOM     12  C   UNL     1       6.560   2.675  11.814  0.00  0.00    +0.000 A 
ATOM     13  C   UNL     1       7.022   3.437  12.895  0.00  0.00    +0.000 A 
ATOM     14  C   UNL     1       6.108   4.143  13.686  0.00  0.00    +0.000 A 
ATOM     15  C   UNL     1       4.735   4.102  13.415  0.00  0.00    +0.000 A 
ATOM     16  C   UNL     1       4.277   3.337  12.343  0.00  0.00    +0.000 A 
ATOM     17  C   UNL     1       5.188   2.634  11.556  0.00  0.00    +0.000 A 
ATOM     18  F   UNL     1       4.725   1.914  10.524  0.00  0.00    +0.000 F 
ENDBRANCH   8  14
ENDBRANCH   1   8
BRANCH   5  19
ATOM     19  C   UNL     1       2.687   5.447  19.709  0.00  0.00    +0.000 C 
ATOM     20  C   UNL     1       2.419   4.599  20.954  0.00  0.00    +0.000 C 
ATOM     21  C   UNL     1       1.625   4.352  19.711  0.00  0.00    +0.000 C 
BRANCH  19  22
ATOM     22  C   UNL     1       2.185   6.888  19.709  0.00  0.00    +0.000 A 
ATOM     23  C   UNL     1       2.271   7.712  18.575  0.00  0.00    +0.000 A 
ATOM     24  C   UNL     1       1.699   8.988  18.559  0.00  0.00    +0.000 A 
ATOM     25  C   UNL     1       1.034   9.470  19.684  0.00  0.00    +0.000 A 
ATOM     26  C   UNL     1       0.974   8.695  20.837  0.00  0.00    +0.000 A 
ATOM     27  C   UNL     1       1.554   7.424  20.849  0.00  0.00    +0.000 A 
ENDBRANCH  19  22
ENDBRANCH   5  19
TORSDOF 4
ENDMDL
MODEL 7
REMARK VINA RESULT:      -7.5      1.768      2.770
REMARK  Name = 
REMARK  5 active torsions:
REMARK  status: ('A' for Active; 'I' for Inactive)
REMARK    1  A    between atoms: C_1  and  C_2
REMARK    2  A    between atoms: C_4  and  S_5
REMARK    3  A    between atoms: S_5  and  N_8
REMARK    4  A    between atoms: C_12  and  C_13
REMARK    5  A    between atoms: C_13  and  C_14
REMARK                            x       y       z     vdW  Elec       q    Type
REMARK                         _______ _______ _______ _____ _____    ______ ____
ROOT
ATOM      1  N   UNL     1       0.220   9.672  19.672  0.00  0.00    +0.000 N 
ATOM      2  C   UNL     1       1.303   8.986  19.045  0.00  0.00    +0.000 A 
ATOM      3  N   UNL     1       1.654   9.324  17.828  0.00  0.00    +0.000 NA
ATOM      4  N   UNL     1       2.604   8.460  17.312  0.00  0.00    +0.000 NA
ATOM      5  C   UNL     1       2.929   7.508  18.166  0.00  0.00    +0.000 A 
ATOM      6  S   UNL     1       2.078   7.598  19.659  0.00  0.00    +0.000 S 
ATOM      7  H   UNL     1      -0.159  10.283  18.942  0.00  0.00    +0.000 HD
ENDROOT
BRANCH   1   8
ATOM      8  S   UNL     1       0.781  10.695  20.893  0.00  0.00    +0.000 S 
ATOM      9  O   UNL     1       1.459  11.780  20.229  0.00  0.00    +0.000 OA
ATOM     10  O   UNL     1       1.388   9.943  21.972  0.00  0.00    +0.000 OA
BRANCH   8  14
ATOM     11  C   UNL     1      -3.710  13.452  20.406  0.00  0.00    +0.000 C 
ATOM     12  C   UNL     1      -2.778  12.635  21.251  0.00  0.00    +0.000 A 
ATOM     13  C   UNL     1      -1.603  12.087  20.718  0.00  0.00    +0.000 A 
ATOM     14  C   UNL     1      -0.750  11.343  21.543  0.00  0.00    +0.000 A 
ATOM     15  C   UNL     1      -1.050  11.137  22.895  0.00  0.00    +0.000 A 
ATOM     16  C   UNL     1      -2.223  11.679  23.421  0.00  0.00    +0.000 A 
ATOM     17  C   UNL     1      -3.072  12.419  22.599  0.00  0.00    +0.000 A 
ATOM     18  F   UNL     1      -4.188  12.938  23.129  0.00  0.00    +0.000 F 
ENDBRANCH   8  14
ENDBRANCH   1   8
BRANCH   5  19
ATOM     19  C   UNL     1       3.948   6.398  17.802  0.00  0.00    +0.000 C 
ATOM     20  C   UNL     1       5.443   6.720  17.779  0.00  0.00    +0.000 C 
ATOM     21  C   UNL     1       4.707   6.549  16.488  0.00  0.00    +0.000 C 
BRANCH  19  22
ATOM     22  C   UNL     1       3.531   4.984  18.194  0.00  0.00    +0.000 A 
ATOM     23  C   UNL     1       2.587   4.248  17.459  0.00  0.00    +0.000 A 
ATOM     24  C   UNL     1       2.308   2.912  17.765  0.00  0.00    +0.000 A 
ATOM     25  C   UNL     1       2.964   2.286  18.823  0.00  0.00    +0.000 A 
ATOM     26  C   UNL     1       3.868   3.003  19.597  0.00  0.00    +0.000 A 
ATOM     27  C   UNL     1       4.137   4.339  19.291  0.00  0.00    +0.000 A 
ENDBRANCH  19  22
ENDBRANCH   5  19
TORSDOF 4
ENDMDL
MODEL 8
REMARK VINA RESULT:      -7.4      1.919      3.242
REMARK  Name = 
REMARK  5 active torsions:
REMARK  status: ('A' for Active; 'I' for Inactive)
REMARK    1  A    between atoms: C_1  and  C_2
REMARK    2  A    between atoms: C_4  and  S_5
REMARK    3  A    between atoms: S_5  and  N_8
REMARK    4  A    between atoms: C_12  and  C_13
REMARK    5  A    between atoms: C_13  and  C_14
REMARK                            x       y       z     vdW  Elec       q    Type
REMARK                         _______ _______ _______ _____ _____    ______ ____
ROOT
ATOM      1  N   UNL     1       0.280  10.647  19.235  0.00  0.00    +0.000 N 
ATOM      2  C   UNL     1       1.199   9.610  18.889  0.00  0.00    +0.000 A 
ATOM      3  N   UNL     1       1.798   9.652  17.723  0.00  0.00    +0.000 NA
ATOM      4  N   UNL     1       2.524   8.499  17.481  0.00  0.00    +0.000 NA
ATOM      5  C   UNL     1       2.441   7.639  18.476  0.00  0.00    +0.000 A 
ATOM      6  S   UNL     1       1.451   8.178  19.777  0.00  0.00    +0.000 S 
ATOM      7  H   UNL     1       0.197  11.216  18.388  0.00  0.00    +0.000 HD
ENDROOT
BRANCH   1   8
ATOM      8  S   UNL     1       0.933  11.659  20.417  0.00  0.00    +0.000 S 
ATOM      9  O   UNL     1       1.774  12.601  19.721  0.00  0.00    +0.000 OA
ATOM     10  O   UNL     1       1.398  10.903  21.562  0.00  0.00    +0.000 OA
BRANCH   8  14
ATOM     11  C   UNL     1      -4.226  12.804  20.146  0.00  0.00    +0.000 C 
ATOM     12  C   UNL     1      -2.881  13.030  20.770  0.00  0.00    +0.000 A 
ATOM     13  C   UNL     1      -1.759  12.294  20.370  0.00  0.00    +0.000 A 
ATOM     14  C   UNL     1      -0.517  12.545  20.965  0.00  0.00    +0.000 A 
ATOM     15  C   UNL     1      -0.375  13.522  21.958  0.00  0.00    +0.000 A 
ATOM     16  C   UNL     1      -1.495  14.250  22.359  0.00  0.00    +0.000 A 
ATOM     17  C   UNL     1      -2.731  14.000  21.766  0.00  0.00    +0.000 A 
ATOM     18  F   UNL     1      -3.792  14.718  22.161  0.00  0.00    +0.000 F 
ENDBRANCH   8  14
ENDBRANCH   1   8
BRANCH   5  19
ATOM     19  C   UNL     1       3.140   6.256  18.422  0.00  0.00    +0.000 C 
ATOM     20  C   UNL     1       4.654   6.165  18.623  0.00  0.00    +0.000 C 
ATOM     21  C   UNL     1       4.083   5.996  17.251  0.00  0.00    +0.000 C 
BRANCH  19  22
ATOM     22  C   UNL     1       2.288   5.081  18.890  0.00  0.00    +0.000 A 
ATOM     23  C   UNL     1       1.759   4.134  17.998  0.00  0.00    +0.000 A 
ATOM     24  C   UNL     1       1.082   3.000  18.457  0.00  0.00    +0.000 A 
ATOM     25  C   UNL     1       0.912   2.794  19.825  0.00  0.00    +0.000 A 
ATOM     26  C   UNL     1       1.383   3.738  20.729  0.00  0.00    +0.000 A 
ATOM     27  C   UNL     1       2.052   4.873  20.264  0.00  0.00    +0.000 A 
ENDBRANCH  19  22
ENDBRANCH   5  19
TORSDOF 4
ENDMDL
MODEL 9
REMARK VINA RESULT:      -7.4      1.784      3.302
REMARK  Name = 
REMARK  5 active torsions:
REMARK  status: ('A' for Active; 'I' for Inactive)
REMARK    1  A    between atoms: C_1  and  C_2
REMARK    2  A    between atoms: C_4  and  S_5
REMARK    3  A    between atoms: S_5  and  N_8
REMARK    4  A    between atoms: C_12  and  C_13
REMARK    5  A    between atoms: C_13  and  C_14
REMARK                            x       y       z     vdW  Elec       q    Type
REMARK                         _______ _______ _______ _____ _____    ______ ____
ROOT
ATOM      1  N   UNL     1       0.190  10.300  19.511  0.00  0.00    +0.000 N 
ATOM      2  C   UNL     1       1.151   9.306  19.155  0.00  0.00    +0.000 A 
ATOM      3  N   UNL     1       1.765   9.396  18.000  0.00  0.00    +0.000 NA
ATOM      4  N   UNL     1       2.537   8.276  17.744  0.00  0.00    +0.000 NA
ATOM      5  C   UNL     1       2.471   7.391  18.719  0.00  0.00    +0.000 A 
ATOM      6  S   UNL     1       1.444   7.864  20.016  0.00  0.00    +0.000 S 
ATOM      7  H   UNL     1       0.098  10.884  18.675  0.00  0.00    +0.000 HD
ENDROOT
BRANCH   1   8
ATOM      8  S   UNL     1       0.788  11.309  20.725  0.00  0.00    +0.000 S 
ATOM      9  O   UNL     1       1.694  12.225  20.077  0.00  0.00    +0.000 OA
ATOM     10  O   UNL     1       1.160  10.553  21.903  0.00  0.00    +0.000 OA
BRANCH   8  14
ATOM     11  C   UNL     1      -3.342  12.288  23.886  0.00  0.00    +0.000 C 
ATOM     12  C   UNL     1      -2.551  12.609  22.652  0.00  0.00    +0.000 A 
ATOM     13  C   UNL     1      -1.376  11.914  22.338  0.00  0.00    +0.000 A 
ATOM     14  C   UNL     1      -0.674  12.232  21.170  0.00  0.00    +0.000 A 
ATOM     15  C   UNL     1      -1.126  13.237  20.305  0.00  0.00    +0.000 A 
ATOM     16  C   UNL     1      -2.292  13.932  20.623  0.00  0.00    +0.000 A 
ATOM     17  C   UNL     1      -2.991  13.614  21.787  0.00  0.00    +0.000 A 
ATOM     18  F   UNL     1      -4.114  14.289  22.067  0.00  0.00    +0.000 F 
ENDBRANCH   8  14
ENDBRANCH   1   8
BRANCH   5  19
ATOM     19  C   UNL     1       3.223   6.037  18.645  0.00  0.00    +0.000 C 
ATOM     20  C   UNL     1       4.738   5.999  18.851  0.00  0.00    +0.000 C 
ATOM     21  C   UNL     1       4.178   5.831  17.474  0.00  0.00    +0.000 C 
BRANCH  19  22
ATOM     22  C   UNL     1       2.414   4.823  19.091  0.00  0.00    +0.000 A 
ATOM     23  C   UNL     1       1.743   3.991  18.180  0.00  0.00    +0.000 A 
ATOM     24  C   UNL     1       1.107   2.818  18.598  0.00  0.00    +0.000 A 
ATOM     25  C   UNL     1       1.123   2.456  19.943  0.00  0.00    +0.000 A 
ATOM     26  C   UNL     1       1.738   3.284  20.875  0.00  0.00    +0.000 A 
ATOM     27  C   UNL     1       2.365   4.459  20.452  0.00  0.00    +0.000 A 
ENDBRANCH  19  22
ENDBRANCH   5  19
TORSDOF 4
ENDMDL
