MODEL 1
REMARK VINA RESULT:      -8.8      0.000      0.000
REMARK  Name = 
REMARK  7 active torsions:
REMARK  status: ('A' for Active; 'I' for Inactive)
REMARK    1  A    between atoms: C_1  and  C_2
REMARK    2  A    between atoms: C_5  and  C_6
REMARK    3  A    between atoms: C_7  and  C_8
REMARK    4  A    between atoms: C_8  and  C_9
REMARK    5  A    between atoms: N_11  and  C_12
REMARK    6  A    between atoms: C_16  and  C_17
REMARK    7  A    between atoms: C_22  and  C_23
REMARK                            x       y       z     vdW  Elec       q    Type
REMARK                         _______ _______ _______ _____ _____    ______ ____
ROOT
ATOM      1  C   UNL     1       3.340   3.900  19.343  0.00  0.00    +0.000 A 
ATOM      2  C   UNL     1       2.494   2.929  19.892  0.00  0.00    +0.000 A 
ATOM      3  C   UNL     1       1.381   3.302  20.652  0.00  0.00    +0.000 A 
ATOM      4  C   UNL     1       1.091   4.651  20.846  0.00  0.00    +0.000 A 
ATOM      5  C   UNL     1       1.937   5.622  20.305  0.00  0.00    +0.000 A 
ATOM      6  C   UNL     1       3.087   5.249  19.591  0.00  0.00    +0.000 A 
ENDROOT
BRANCH   5   7
ATOM      7  C   UNL     1       1.571   7.059  20.363  0.00  0.00    +0.000 C 
ATOM      8  O   UNL     1       2.244   7.866  19.731  0.00  0.00    +0.000 OA
ATOM      9  N   UNL     1       0.528   7.372  21.205  0.00  0.00    +0.000 N 
ATOM     10  C   UNL     1       0.133   8.691  21.451  0.00  0.00    +0.000 A 
ATOM     11  C   UNL     1      -0.015   9.623  20.428  0.00  0.00    +0.000 A 
ATOM     12  C   UNL     1      -0.403  10.923  20.760  0.00  0.00    +0.000 A 
ATOM     13  C   UNL     1      -0.550  11.248  22.112  0.00  0.00    +0.000 A 
ATOM     14  C   UNL     1      -0.395  10.247  23.055  0.00  0.00    +0.000 A 
ATOM     15  N   UNL     1      -0.108   8.968  22.749  0.00  0.00    +0.000 NA
ATOM     16  H   UNL     1       0.355   6.748  21.986  0.00  0.00    +0.000 HD
BRANCH  12  17
ATOM     17  C   UNL     1      -0.659  11.958  19.700  0.00  0.00    +0.000 C 
ATOM     18  F   UNL     1      -0.663  11.462  18.432  0.00  0.00    +0.000 F 
ATOM     19  F   UNL     1      -1.870  12.563  19.864  0.00  0.00    +0.000 F 
ATOM     20  F   UNL     1       0.260  12.960  19.713  0.00  0.00    +0.000 F 
ENDBRANCH  12  17
ENDBRANCH   5   7
BRANCH   1  23
ATOM     21  C   UNL     1       4.302   3.447  17.133  0.00  0.00    +0.000 C 
ATOM     22  O   UNL     1       3.267   3.672  16.505  0.00  0.00    +0.000 OA
ATOM     23  N   UNL     1       4.432   3.557  18.511  0.00  0.00    +0.000 N 
ATOM     24  H   UNL     1       5.357   3.793  18.851  0.00  0.00    +0.000 HD
BRANCH  21  25
ATOM     25  C   UNL     1       5.567   3.023  16.411  0.00  0.00    +0.000 C 
BRANCH  25  32
ATOM     26  C   UNL     1       6.134   3.708  13.219  0.00  0.00    +0.000 C 
ATOM     27  C   UNL     1       6.599   4.428  14.430  0.00  0.00    +0.000 A 
ATOM     28  N   UNL     1       7.398   5.493  14.290  0.00  0.00    +0.000 NA
ATOM     29  O   UNL     1       7.700   5.912  15.564  0.00  0.00    +0.000 OA
ATOM     30  C   UNL     1       7.084   5.109  16.467  0.00  0.00    +0.000 A 
ATOM     31  C   UNL     1       7.358   5.416  17.884  0.00  0.00    +0.000 C 
ATOM     32  C   UNL     1       6.345   4.143  15.806  0.00  0.00    +0.000 A 
ENDBRANCH  25  32
ENDBRANCH  21  25
ENDBRANCH   1  23
TORSDOF 5
ENDMDL
MODEL 2
REMARK VINA RESULT:      -8.6      1.523      2.072
REMARK  Name = 
REMARK  7 active torsions:
REMARK  status: ('A' for Active; 'I' for Inactive)
REMARK    1  A    between atoms: C_1  and  C_2
REMARK    2  A    between atoms: C_5  and  C_6
REMARK    3  A    between atoms: C_7  and  C_8
REMARK    4  A    between atoms: C_8  and  C_9
REMARK    5  A    between atoms: N_11  and  C_12
REMARK    6  A    between atoms: C_16  and  C_17
REMARK    7  A    between atoms: C_22  and  C_23
REMARK                            x       y       z     vdW  Elec       q    Type
REMARK                         _______ _______ _______ _____ _____    ______ ____
ROOT
ATOM      1  C   UNL     1       3.940   3.402  19.531  0.00  0.00    +0.000 A 
ATOM      2  C   UNL     1       3.559   2.415  20.448  0.00  0.00    +0.000 A 
ATOM      3  C   UNL     1       2.622   2.694  21.448  0.00  0.00    +0.000 A 
ATOM      4  C   UNL     1       2.038   3.956  21.521  0.00  0.00    +0.000 A 
ATOM      5  C   UNL     1       2.420   4.946  20.611  0.00  0.00    +0.000 A 
ATOM      6  C   UNL     1       3.404   4.684  19.645  0.00  0.00    +0.000 A 
ENDROOT
BRANCH   5   7
ATOM      7  C   UNL     1       1.706   6.246  20.567  0.00  0.00    +0.000 C 
ATOM      8  O   UNL     1       0.592   6.326  21.075  0.00  0.00    +0.000 OA
ATOM      9  N   UNL     1       2.342   7.249  19.873  0.00  0.00    +0.000 N 
ATOM     10  C   UNL     1       1.752   8.498  19.649  0.00  0.00    +0.000 A 
ATOM     11  C   UNL     1       1.095   9.197  20.657  0.00  0.00    +0.000 A 
ATOM     12  C   UNL     1       0.522  10.433  20.347  0.00  0.00    +0.000 A 
ATOM     13  C   UNL     1       0.569  10.875  19.022  0.00  0.00    +0.000 A 
ATOM     14  C   UNL     1       1.259  10.114  18.094  0.00  0.00    +0.000 A 
ATOM     15  N   UNL     1       1.893   8.964  18.391  0.00  0.00    +0.000 NA
ATOM     16  H   UNL     1       2.989   6.974  19.142  0.00  0.00    +0.000 HD
BRANCH  12  17
ATOM     17  C   UNL     1      -0.132  11.279  21.405  0.00  0.00    +0.000 C 
ATOM     18  F   UNL     1      -0.115  10.723  22.648  0.00  0.00    +0.000 F 
ATOM     19  F   UNL     1       0.477  12.492  21.534  0.00  0.00    +0.000 F 
ATOM     20  F   UNL     1      -1.436  11.548  21.127  0.00  0.00    +0.000 F 
ENDBRANCH  12  17
ENDBRANCH   5   7
BRANCH   1  23
ATOM     21  C   UNL     1       4.474   3.328  17.140  0.00  0.00    +0.000 C 
ATOM     22  O   UNL     1       3.395   3.786  16.763  0.00  0.00    +0.000 OA
ATOM     23  N   UNL     1       4.830   3.131  18.467  0.00  0.00    +0.000 N 
ATOM     24  H   UNL     1       5.821   3.192  18.673  0.00  0.00    +0.000 HD
BRANCH  21  25
ATOM     25  C   UNL     1       5.541   2.936  16.134  0.00  0.00    +0.000 C 
BRANCH  25  32
ATOM     26  C   UNL     1       6.160   3.758  12.984  0.00  0.00    +0.000 C 
ATOM     27  C   UNL     1       6.611   4.421  14.233  0.00  0.00    +0.000 A 
ATOM     28  N   UNL     1       7.417   5.486  14.152  0.00  0.00    +0.000 NA
ATOM     29  O   UNL     1       7.702   5.847  15.448  0.00  0.00    +0.000 OA
ATOM     30  C   UNL     1       7.067   5.009  16.305  0.00  0.00    +0.000 A 
ATOM     31  C   UNL     1       7.321   5.251  17.738  0.00  0.00    +0.000 C 
ATOM     32  C   UNL     1       6.334   4.078  15.590  0.00  0.00    +0.000 A 
ENDBRANCH  25  32
ENDBRANCH  21  25
ENDBRANCH   1  23
TORSDOF 5
ENDMDL
MODEL 3
REMARK VINA RESULT:      -8.6      6.940     11.003
REMARK  Name = 
REMARK  7 active torsions:
REMARK  status: ('A' for Active; 'I' for Inactive)
REMARK    1  A    between atoms: C_1  and  C_2
REMARK    2  A    between atoms: C_5  and  C_6
REMARK    3  A    between atoms: C_7  and  C_8
REMARK    4  A    between atoms: C_8  and  C_9
REMARK    5  A    between atoms: N_11  and  C_12
REMARK    6  A    between atoms: C_16  and  C_17
REMARK    7  A    between atoms: C_22  and  C_23
REMARK                            x       y       z     vdW  Elec       q    Type
REMARK                         _______ _______ _______ _____ _____    ______ ____
ROOT
ATOM      1  C   UNL     1       9.768  11.591  20.746  0.00  0.00    +0.000 A 
ATOM      2  C   UNL     1      10.640  12.319  19.927  0.00  0.00    +0.000 A 
ATOM      3  C   UNL     1      10.827  11.960  18.588  0.00  0.00    +0.000 A 
ATOM      4  C   UNL     1      10.121  10.886  18.051  0.00  0.00    +0.000 A 
ATOM      5  C   UNL     1       9.255  10.153  18.867  0.00  0.00    +0.000 A 
ATOM      6  C   UNL     1       9.112  10.476  20.225  0.00  0.00    +0.000 A 
ENDROOT
BRANCH   5   7
ATOM      7  C   UNL     1       8.378   9.106  18.287  0.00  0.00    +0.000 C 
ATOM      8  O   UNL     1       7.497   9.442  17.502  0.00  0.00    +0.000 OA
ATOM      9  N   UNL     1       8.588   7.830  18.755  0.00  0.00    +0.000 N 
ATOM     10  C   UNL     1       7.774   6.752  18.388  0.00  0.00    +0.000 A 
ATOM     11  C   UNL     1       7.390   6.531  17.069  0.00  0.00    +0.000 A 
ATOM     12  C   UNL     1       6.567   5.438  16.788  0.00  0.00    +0.000 A 
ATOM     13  C   UNL     1       6.104   4.663  17.854  0.00  0.00    +0.000 A 
ATOM     14  C   UNL     1       6.554   4.954  19.130  0.00  0.00    +0.000 A 
ATOM     15  N   UNL     1       7.418   5.949  19.410  0.00  0.00    +0.000 NA
ATOM     16  H   UNL     1       8.990   7.732  19.681  0.00  0.00    +0.000 HD
BRANCH  12  17
ATOM     17  C   UNL     1       6.179   5.093  15.376  0.00  0.00    +0.000 C 
ATOM     18  F   UNL     1       7.203   5.183  14.483  0.00  0.00    +0.000 F 
ATOM     19  F   UNL     1       5.712   3.816  15.276  0.00  0.00    +0.000 F 
ATOM     20  F   UNL     1       5.186   5.889  14.897  0.00  0.00    +0.000 F 
ENDBRANCH  12  17
ENDBRANCH   5   7
BRANCH   1  23
ATOM     21  C   UNL     1       8.575  12.953  22.398  0.00  0.00    +0.000 C 
ATOM     22  O   UNL     1       7.874  13.546  21.580  0.00  0.00    +0.000 OA
ATOM     23  N   UNL     1       9.505  11.971  22.082  0.00  0.00    +0.000 N 
ATOM     24  H   UNL     1       9.672  11.273  22.798  0.00  0.00    +0.000 HD
BRANCH  21  25
ATOM     25  C   UNL     1       8.462  13.262  23.880  0.00  0.00    +0.000 C 
BRANCH  25  32
ATOM     26  C   UNL     1       6.847  16.151  24.010  0.00  0.00    +0.000 C 
ATOM     27  C   UNL     1       6.388  14.801  24.420  0.00  0.00    +0.000 A 
ATOM     28  N   UNL     1       5.174  14.661  24.965  0.00  0.00    +0.000 NA
ATOM     29  O   UNL     1       5.051  13.330  25.284  0.00  0.00    +0.000 OA
ATOM     30  C   UNL     1       6.181  12.669  24.929  0.00  0.00    +0.000 A 
ATOM     31  C   UNL     1       6.208  11.231  25.257  0.00  0.00    +0.000 C 
ATOM     32  C   UNL     1       7.077  13.553  24.352  0.00  0.00    +0.000 A 
ENDBRANCH  25  32
ENDBRANCH  21  25
ENDBRANCH   1  23
TORSDOF 5
ENDMDL
MODEL 4
REMARK VINA RESULT:      -8.6      4.296      9.362
REMARK  Name = 
REMARK  7 active torsions:
REMARK  status: ('A' for Active; 'I' for Inactive)
REMARK    1  A    between atoms: C_1  and  C_2
REMARK    2  A    between atoms: C_5  and  C_6
REMARK    3  A    between atoms: C_7  and  C_8
REMARK    4  A    between atoms: C_8  and  C_9
REMARK    5  A    between atoms: N_11  and  C_12
REMARK    6  A    between atoms: C_16  and  C_17
REMARK    7  A    between atoms: C_22  and  C_23
REMARK                            x       y       z     vdW  Elec       q    Type
REMARK                         _______ _______ _______ _____ _____    ______ ____
ROOT
ATOM      1  C   UNL     1       1.943   6.022  20.215  0.00  0.00    +0.000 A 
ATOM      2  C   UNL     1       1.211   5.015  20.855  0.00  0.00    +0.000 A 
ATOM      3  C   UNL     1       1.156   3.724  20.320  0.00  0.00    +0.000 A 
ATOM      4  C   UNL     1       1.856   3.424  19.153  0.00  0.00    +0.000 A 
ATOM      5  C   UNL     1       2.582   4.428  18.508  0.00  0.00    +0.000 A 
ATOM      6  C   UNL     1       2.590   5.738  19.012  0.00  0.00    +0.000 A 
ENDROOT
BRANCH   5   7
ATOM      7  C   UNL     1       3.458   4.104  17.355  0.00  0.00    +0.000 C 
ATOM      8  O   UNL     1       3.404   2.978  16.871  0.00  0.00    +0.000 OA
ATOM      9  N   UNL     1       4.331   5.097  16.975  0.00  0.00    +0.000 N 
ATOM     10  C   UNL     1       5.294   4.908  15.977  0.00  0.00    +0.000 A 
ATOM     11  C   UNL     1       4.994   4.289  14.767  0.00  0.00    +0.000 A 
ATOM     12  C   UNL     1       6.017   4.129  13.829  0.00  0.00    +0.000 A 
ATOM     13  C   UNL     1       7.309   4.530  14.178  0.00  0.00    +0.000 A 
ATOM     14  C   UNL     1       7.503   5.150  15.401  0.00  0.00    +0.000 A 
ATOM     15  N   UNL     1       6.515   5.392  16.283  0.00  0.00    +0.000 NA
ATOM     16  H   UNL     1       4.610   5.769  17.681  0.00  0.00    +0.000 HD
BRANCH  12  17
ATOM     17  C   UNL     1       5.748   3.542  12.471  0.00  0.00    +0.000 C 
ATOM     18  F   UNL     1       5.880   2.188  12.418  0.00  0.00    +0.000 F 
ATOM     19  F   UNL     1       4.479   3.806  12.046  0.00  0.00    +0.000 F 
ATOM     20  F   UNL     1       6.571   4.042  11.511  0.00  0.00    +0.000 F 
ENDBRANCH  12  17
ENDBRANCH   5   7
BRANCH   1  23
ATOM     21  C   UNL     1       0.979   8.049  21.200  0.00  0.00    +0.000 C 
ATOM     22  O   UNL     1      -0.184   7.645  21.189  0.00  0.00    +0.000 OA
ATOM     23  N   UNL     1       2.076   7.317  20.767  0.00  0.00    +0.000 N 
ATOM     24  H   UNL     1       2.958   7.534  21.217  0.00  0.00    +0.000 HD
BRANCH  21  25
ATOM     25  C   UNL     1       1.310   9.437  21.718  0.00  0.00    +0.000 C 
BRANCH  25  32
ATOM     26  C   UNL     1      -1.237  11.045  23.099  0.00  0.00    +0.000 C 
ATOM     27  C   UNL     1      -0.643  11.211  21.749  0.00  0.00    +0.000 A 
ATOM     28  N   UNL     1      -1.187  12.091  20.900  0.00  0.00    +0.000 NA
ATOM     29  O   UNL     1      -0.468  11.989  19.733  0.00  0.00    +0.000 OA
ATOM     30  C   UNL     1       0.508  11.058  19.878  0.00  0.00    +0.000 A 
ATOM     31  C   UNL     1       1.334  10.809  18.682  0.00  0.00    +0.000 C 
ATOM     32  C   UNL     1       0.463  10.530  21.157  0.00  0.00    +0.000 A 
ENDBRANCH  25  32
ENDBRANCH  21  25
ENDBRANCH   1  23
TORSDOF 5
ENDMDL
MODEL 5
REMARK VINA RESULT:      -8.5      1.198      2.021
REMARK  Name = 
REMARK  7 active torsions:
REMARK  status: ('A' for Active; 'I' for Inactive)
REMARK    1  A    between atoms: C_1  and  C_2
REMARK    2  A    between atoms: C_5  and  C_6
REMARK    3  A    between atoms: C_7  and  C_8
REMARK    4  A    between atoms: C_8  and  C_9
REMARK    5  A    between atoms: N_11  and  C_12
REMARK    6  A    between atoms: C_16  and  C_17
REMARK    7  A    between atoms: C_22  and  C_23
REMARK                            x       y       z     vdW  Elec       q    Type
REMARK                         _______ _______ _______ _____ _____    ______ ____
ROOT
ATOM      1  C   UNL     1       3.652   4.569  19.319  0.00  0.00    +0.000 A 
ATOM      2  C   UNL     1       3.066   3.797  20.330  0.00  0.00    +0.000 A 
ATOM      3  C   UNL     1       2.082   4.341  21.162  0.00  0.00    +0.000 A 
ATOM      4  C   UNL     1       1.657   5.654  20.971  0.00  0.00    +0.000 A 
ATOM      5  C   UNL     1       2.245   6.429  19.967  0.00  0.00    +0.000 A 
ATOM      6  C   UNL     1       3.274   5.902  19.170  0.00  0.00    +0.000 A 
ENDROOT
BRANCH   5   7
ATOM      7  C   UNL     1       1.708   7.773  19.640  0.00  0.00    +0.000 C 
ATOM      8  O   UNL     1       1.912   8.235  18.522  0.00  0.00    +0.000 OA
ATOM      9  N   UNL     1       1.078   8.428  20.674  0.00  0.00    +0.000 N 
ATOM     10  C   UNL     1       0.613   9.742  20.556  0.00  0.00    +0.000 A 
ATOM     11  C   UNL     1      -0.100  10.179  19.443  0.00  0.00    +0.000 A 
ATOM     12  C   UNL     1      -0.518  11.511  19.399  0.00  0.00    +0.000 A 
ATOM     13  C   UNL     1      -0.136  12.363  20.439  0.00  0.00    +0.000 A 
ATOM     14  C   UNL     1       0.560  11.830  21.510  0.00  0.00    +0.000 A 
ATOM     15  N   UNL     1       0.897  10.530  21.613  0.00  0.00    +0.000 NA
ATOM     16  H   UNL     1       1.352   8.182  21.618  0.00  0.00    +0.000 HD
BRANCH  12  17
ATOM     17  C   UNL     1      -1.360  12.029  18.266  0.00  0.00    +0.000 C 
ATOM     18  F   UNL     1      -0.834  13.117  17.638  0.00  0.00    +0.000 F 
ATOM     19  F   UNL     1      -1.535  11.090  17.293  0.00  0.00    +0.000 F 
ATOM     20  F   UNL     1      -2.610  12.388  18.663  0.00  0.00    +0.000 F 
ENDBRANCH  12  17
ENDBRANCH   5   7
BRANCH   1  23
ATOM     21  C   UNL     1       4.231   3.548  17.167  0.00  0.00    +0.000 C 
ATOM     22  O   UNL     1       3.090   3.584  16.707  0.00  0.00    +0.000 OA
ATOM     23  N   UNL     1       4.597   4.027  18.418  0.00  0.00    +0.000 N 
ATOM     24  H   UNL     1       5.552   4.356  18.504  0.00  0.00    +0.000 HD
BRANCH  21  25
ATOM     25  C   UNL     1       5.372   2.960  16.357  0.00  0.00    +0.000 C 
BRANCH  25  32
ATOM     26  C   UNL     1       7.461   5.214  17.595  0.00  0.00    +0.000 C 
ATOM     27  C   UNL     1       7.102   4.944  16.181  0.00  0.00    +0.000 A 
ATOM     28  N   UNL     1       7.630   5.707  15.216  0.00  0.00    +0.000 NA
ATOM     29  O   UNL     1       7.084   5.260  14.036  0.00  0.00    +0.000 OA
ATOM     30  C   UNL     1       6.237   4.231  14.286  0.00  0.00    +0.000 A 
ATOM     31  C   UNL     1       5.540   3.679  13.109  0.00  0.00    +0.000 C 
ATOM     32  C   UNL     1       6.214   3.964  15.644  0.00  0.00    +0.000 A 
ENDBRANCH  25  32
ENDBRANCH  21  25
ENDBRANCH   1  23
TORSDOF 5
ENDMDL
MODEL 6
REMARK VINA RESULT:      -8.4      1.581      2.530
REMARK  Name = 
REMARK  7 active torsions:
REMARK  status: ('A' for Active; 'I' for Inactive)
REMARK    1  A    between atoms: C_1  and  C_2
REMARK    2  A    between atoms: C_5  and  C_6
REMARK    3  A    between atoms: C_7  and  C_8
REMARK    4  A    between atoms: C_8  and  C_9
REMARK    5  A    between atoms: N_11  and  C_12
REMARK    6  A    between atoms: C_16  and  C_17
REMARK    7  A    between atoms: C_22  and  C_23
REMARK                            x       y       z     vdW  Elec       q    Type
REMARK                         _______ _______ _______ _____ _____    ______ ____
ROOT
ATOM      1  C   UNL     1       3.884   3.299  19.548  0.00  0.00    +0.000 A 
ATOM      2  C   UNL     1       3.501   2.335  20.489  0.00  0.00    +0.000 A 
ATOM      3  C   UNL     1       2.581   2.649  21.495  0.00  0.00    +0.000 A 
ATOM      4  C   UNL     1       2.018   3.922  21.552  0.00  0.00    +0.000 A 
ATOM      5  C   UNL     1       2.404   4.888  20.618  0.00  0.00    +0.000 A 
ATOM      6  C   UNL     1       3.370   4.591  19.643  0.00  0.00    +0.000 A 
ENDROOT
BRANCH   5   7
ATOM      7  C   UNL     1       1.710   6.198  20.557  0.00  0.00    +0.000 C 
ATOM      8  O   UNL     1       0.588   6.295  21.044  0.00  0.00    +0.000 OA
ATOM      9  N   UNL     1       2.374   7.190  19.874  0.00  0.00    +0.000 N 
ATOM     10  C   UNL     1       1.807   8.447  19.637  0.00  0.00    +0.000 A 
ATOM     11  C   UNL     1       1.141   9.158  20.631  0.00  0.00    +0.000 A 
ATOM     12  C   UNL     1       0.592  10.402  20.308  0.00  0.00    +0.000 A 
ATOM     13  C   UNL     1       0.671  10.840  18.984  0.00  0.00    +0.000 A 
ATOM     14  C   UNL     1       1.368  10.067  18.070  0.00  0.00    +0.000 A 
ATOM     15  N   UNL     1       1.978   8.908  18.382  0.00  0.00    +0.000 NA
ATOM     16  H   UNL     1       3.031   6.905  19.156  0.00  0.00    +0.000 HD
BRANCH  12  17
ATOM     17  C   UNL     1      -0.070  11.259  21.351  0.00  0.00    +0.000 C 
ATOM     18  F   UNL     1       0.503  12.484  21.506  0.00  0.00    +0.000 F 
ATOM     19  F   UNL     1      -1.379  11.498  21.054  0.00  0.00    +0.000 F 
ATOM     20  F   UNL     1      -0.070  10.681  22.582  0.00  0.00    +0.000 F 
ENDBRANCH  12  17
ENDBRANCH   5   7
BRANCH   1  23
ATOM     21  C   UNL     1       4.420   3.256  17.156  0.00  0.00    +0.000 C 
ATOM     22  O   UNL     1       3.381   3.805  16.791  0.00  0.00    +0.000 OA
ATOM     23  N   UNL     1       4.756   2.993  18.477  0.00  0.00    +0.000 N 
ATOM     24  H   UNL     1       5.747   2.972  18.686  0.00  0.00    +0.000 HD
BRANCH  21  25
ATOM     25  C   UNL     1       5.458   2.815  16.140  0.00  0.00    +0.000 C 
BRANCH  25  32
ATOM     26  C   UNL     1       7.304   5.088  17.691  0.00  0.00    +0.000 C 
ATOM     27  C   UNL     1       7.061   4.908  16.238  0.00  0.00    +0.000 A 
ATOM     28  N   UNL     1       7.602   5.775  15.374  0.00  0.00    +0.000 NA
ATOM     29  O   UNL     1       7.169   5.390  14.127  0.00  0.00    +0.000 OA
ATOM     30  C   UNL     1       6.377   4.294  14.237  0.00  0.00    +0.000 A 
ATOM     31  C   UNL     1       5.799   3.796  12.975  0.00  0.00    +0.000 C 
ATOM     32  C   UNL     1       6.278   3.921  15.567  0.00  0.00    +0.000 A 
ENDBRANCH  25  32
ENDBRANCH  21  25
ENDBRANCH   1  23
TORSDOF 5
ENDMDL
MODEL 7
REMARK VINA RESULT:      -8.4      4.327      9.236
REMARK  Name = 
REMARK  7 active torsions:
REMARK  status: ('A' for Active; 'I' for Inactive)
REMARK    1  A    between atoms: C_1  and  C_2
REMARK    2  A    between atoms: C_5  and  C_6
REMARK    3  A    between atoms: C_7  and  C_8
REMARK    4  A    between atoms: C_8  and  C_9
REMARK    5  A    between atoms: N_11  and  C_12
REMARK    6  A    between atoms: C_16  and  C_17
REMARK    7  A    between atoms: C_22  and  C_23
REMARK                            x       y       z     vdW  Elec       q    Type
REMARK                         _______ _______ _______ _____ _____    ______ ____
ROOT
ATOM      1  C   UNL     1       2.002   6.134  20.235  0.00  0.00    +0.000 A 
ATOM      2  C   UNL     1       1.320   5.112  20.907  0.00  0.00    +0.000 A 
ATOM      3  C   UNL     1       1.322   3.806  20.406  0.00  0.00    +0.000 A 
ATOM      4  C   UNL     1       2.029   3.507  19.244  0.00  0.00    +0.000 A 
ATOM      5  C   UNL     1       2.705   4.527  18.568  0.00  0.00    +0.000 A 
ATOM      6  C   UNL     1       2.655   5.849  19.037  0.00  0.00    +0.000 A 
ENDROOT
BRANCH   5   7
ATOM      7  C   UNL     1       3.591   4.212  17.419  0.00  0.00    +0.000 C 
ATOM      8  O   UNL     1       3.654   3.052  17.023  0.00  0.00    +0.000 OA
ATOM      9  N   UNL     1       4.338   5.263  16.941  0.00  0.00    +0.000 N 
ATOM     10  C   UNL     1       5.297   5.104  15.934  0.00  0.00    +0.000 A 
ATOM     11  C   UNL     1       5.047   4.363  14.783  0.00  0.00    +0.000 A 
ATOM     12  C   UNL     1       6.063   4.245  13.832  0.00  0.00    +0.000 A 
ATOM     13  C   UNL     1       7.308   4.812  14.114  0.00  0.00    +0.000 A 
ATOM     14  C   UNL     1       7.454   5.543  15.280  0.00  0.00    +0.000 A 
ATOM     15  N   UNL     1       6.462   5.743  16.168  0.00  0.00    +0.000 NA
ATOM     16  H   UNL     1       4.554   6.015  17.586  0.00  0.00    +0.000 HD
BRANCH  12  17
ATOM     17  C   UNL     1       5.836   3.527  12.530  0.00  0.00    +0.000 C 
ATOM     18  F   UNL     1       5.975   2.175  12.612  0.00  0.00    +0.000 F 
ATOM     19  F   UNL     1       4.579   3.740  12.046  0.00  0.00    +0.000 F 
ATOM     20  F   UNL     1       6.684   3.937  11.550  0.00  0.00    +0.000 F 
ENDBRANCH  12  17
ENDBRANCH   5   7
BRANCH   1  23
ATOM     21  C   UNL     1       0.957   8.120  21.223  0.00  0.00    +0.000 C 
ATOM     22  O   UNL     1      -0.176   7.643  21.278  0.00  0.00    +0.000 OA
ATOM     23  N   UNL     1       2.078   7.448  20.753  0.00  0.00    +0.000 N 
ATOM     24  H   UNL     1       2.964   7.731  21.154  0.00  0.00    +0.000 HD
BRANCH  21  25
ATOM     25  C   UNL     1       1.223   9.538  21.694  0.00  0.00    +0.000 C 
BRANCH  25  32
ATOM     26  C   UNL     1       1.419  10.499  18.530  0.00  0.00    +0.000 C 
ATOM     27  C   UNL     1       0.544  11.012  19.613  0.00  0.00    +0.000 A 
ATOM     28  N   UNL     1      -0.281  12.034  19.358  0.00  0.00    +0.000 NA
ATOM     29  O   UNL     1      -0.916  12.316  20.544  0.00  0.00    +0.000 OA
ATOM     30  C   UNL     1      -0.481  11.466  21.508  0.00  0.00    +0.000 A 
ATOM     31  C   UNL     1      -1.046  11.685  22.853  0.00  0.00    +0.000 C 
ATOM     32  C   UNL     1       0.448  10.590  20.974  0.00  0.00    +0.000 A 
ENDBRANCH  25  32
ENDBRANCH  21  25
ENDBRANCH   1  23
TORSDOF 5
ENDMDL
MODEL 8
REMARK VINA RESULT:      -8.1      4.326      8.975
REMARK  Name = 
REMARK  7 active torsions:
REMARK  status: ('A' for Active; 'I' for Inactive)
REMARK    1  A    between atoms: C_1  and  C_2
REMARK    2  A    between atoms: C_5  and  C_6
REMARK    3  A    between atoms: C_7  and  C_8
REMARK    4  A    between atoms: C_8  and  C_9
REMARK    5  A    between atoms: N_11  and  C_12
REMARK    6  A    between atoms: C_16  and  C_17
REMARK    7  A    between atoms: C_22  and  C_23
REMARK                            x       y       z     vdW  Elec       q    Type
REMARK                         _______ _______ _______ _____ _____    ______ ____
ROOT
ATOM      1  C   UNL     1       1.642   4.957  20.323  0.00  0.00    +0.000 A 
ATOM      2  C   UNL     1       1.101   3.807  20.913  0.00  0.00    +0.000 A 
ATOM      3  C   UNL     1       1.287   2.551  20.327  0.00  0.00    +0.000 A 
ATOM      4  C   UNL     1       2.039   2.432  19.160  0.00  0.00    +0.000 A 
ATOM      5  C   UNL     1       2.575   3.578  18.566  0.00  0.00    +0.000 A 
ATOM      6  C   UNL     1       2.339   4.845  19.121  0.00  0.00    +0.000 A 
ENDROOT
BRANCH   5   7
ATOM      7  C   UNL     1       3.505   3.465  17.415  0.00  0.00    +0.000 C 
ATOM      8  O   UNL     1       3.643   2.374  16.872  0.00  0.00    +0.000 OA
ATOM      9  N   UNL     1       4.205   4.609  17.104  0.00  0.00    +0.000 N 
ATOM     10  C   UNL     1       5.196   4.636  16.118  0.00  0.00    +0.000 A 
ATOM     11  C   UNL     1       5.017   4.043  14.871  0.00  0.00    +0.000 A 
ATOM     12  C   UNL     1       6.061   4.106  13.946  0.00  0.00    +0.000 A 
ATOM     13  C   UNL     1       7.266   4.694  14.341  0.00  0.00    +0.000 A 
ATOM     14  C   UNL     1       7.341   5.270  15.598  0.00  0.00    +0.000 A 
ATOM     15  N   UNL     1       6.317   5.297  16.472  0.00  0.00    +0.000 NA
ATOM     16  H   UNL     1       4.361   5.278  17.850  0.00  0.00    +0.000 HD
BRANCH  12  17
ATOM     17  C   UNL     1       5.908   3.557  12.554  0.00  0.00    +0.000 C 
ATOM     18  F   UNL     1       4.660   3.714  12.032  0.00  0.00    +0.000 F 
ATOM     19  F   UNL     1       6.755   4.163  11.674  0.00  0.00    +0.000 F 
ATOM     20  F   UNL     1       6.186   2.228  12.481  0.00  0.00    +0.000 F 
ENDBRANCH  12  17
ENDBRANCH   5   7
BRANCH   1  23
ATOM     21  C   UNL     1       1.989   7.383  20.304  0.00  0.00    +0.000 C 
ATOM     22  O   UNL     1       2.482   7.424  19.177  0.00  0.00    +0.000 OA
ATOM     23  N   UNL     1       1.532   6.230  20.928  0.00  0.00    +0.000 N 
ATOM     24  H   UNL     1       0.779   6.356  21.595  0.00  0.00    +0.000 HD
BRANCH  21  25
ATOM     25  C   UNL     1       1.831   8.650  21.125  0.00  0.00    +0.000 C 
BRANCH  25  32
ATOM     26  C   UNL     1       0.894   9.866  18.189  0.00  0.00    +0.000 C 
ATOM     27  C   UNL     1       0.242  10.008  19.514  0.00  0.00    +0.000 A 
ATOM     28  N   UNL     1      -0.865  10.751  19.620  0.00  0.00    +0.000 NA
ATOM     29  O   UNL     1      -1.206  10.738  20.952  0.00  0.00    +0.000 OA
ATOM     30  C   UNL     1      -0.313   9.987  21.645  0.00  0.00    +0.000 A 
ATOM     31  C   UNL     1      -0.530   9.922  23.102  0.00  0.00    +0.000 C 
ATOM     32  C   UNL     1       0.636   9.473  20.778  0.00  0.00    +0.000 A 
ENDBRANCH  25  32
ENDBRANCH  21  25
ENDBRANCH   1  23
TORSDOF 5
ENDMDL
MODEL 9
REMARK VINA RESULT:      -8.1      4.977     10.879
REMARK  Name = 
REMARK  7 active torsions:
REMARK  status: ('A' for Active; 'I' for Inactive)
REMARK    1  A    between atoms: C_1  and  C_2
REMARK    2  A    between atoms: C_5  and  C_6
REMARK    3  A    between atoms: C_7  and  C_8
REMARK    4  A    between atoms: C_8  and  C_9
REMARK    5  A    between atoms: N_11  and  C_12
REMARK    6  A    between atoms: C_16  and  C_17
REMARK    7  A    between atoms: C_22  and  C_23
REMARK                            x       y       z     vdW  Elec       q    Type
REMARK                         _______ _______ _______ _____ _____    ______ ____
ROOT
ATOM      1  C   UNL     1      -1.535  12.466  19.203  0.00  0.00    +0.000 A 
ATOM      2  C   UNL     1      -0.676  13.547  19.438  0.00  0.00    +0.000 A 
ATOM      3  C   UNL     1       0.706  13.351  19.532  0.00  0.00    +0.000 A 
ATOM      4  C   UNL     1       1.241  12.075  19.365  0.00  0.00    +0.000 A 
ATOM      5  C   UNL     1       0.385  10.994  19.138  0.00  0.00    +0.000 A 
ATOM      6  C   UNL     1      -1.006  11.180  19.101  0.00  0.00    +0.000 A 
ENDROOT
BRANCH   5   7
ATOM      7  C   UNL     1       0.933   9.656  18.803  0.00  0.00    +0.000 C 
ATOM      8  O   UNL     1       0.820   9.242  17.654  0.00  0.00    +0.000 OA
ATOM      9  N   UNL     1       1.465   8.952  19.859  0.00  0.00    +0.000 N 
ATOM     10  C   UNL     1       1.923   7.636  19.728  0.00  0.00    +0.000 A 
ATOM     11  C   UNL     1       2.724   7.234  18.663  0.00  0.00    +0.000 A 
ATOM     12  C   UNL     1       3.130   5.899  18.601  0.00  0.00    +0.000 A 
ATOM     13  C   UNL     1       2.651   5.012  19.569  0.00  0.00    +0.000 A 
ATOM     14  C   UNL     1       1.871   5.512  20.598  0.00  0.00    +0.000 A 
ATOM     15  N   UNL     1       1.542   6.811  20.724  0.00  0.00    +0.000 NA
ATOM     16  H   UNL     1       1.114   9.164  20.786  0.00  0.00    +0.000 HD
BRANCH  12  17
ATOM     17  C   UNL     1       4.059   5.413  17.523  0.00  0.00    +0.000 C 
ATOM     18  F   UNL     1       4.348   6.349  16.577  0.00  0.00    +0.000 F 
ATOM     19  F   UNL     1       5.262   5.018  18.030  0.00  0.00    +0.000 F 
ATOM     20  F   UNL     1       3.568   4.336  16.854  0.00  0.00    +0.000 F 
ENDBRANCH  12  17
ENDBRANCH   5   7
BRANCH   1  23
ATOM     21  C   UNL     1      -3.799  12.710  20.111  0.00  0.00    +0.000 C 
ATOM     22  O   UNL     1      -3.458  12.671  21.293  0.00  0.00    +0.000 OA
ATOM     23  N   UNL     1      -2.928  12.642  19.033  0.00  0.00    +0.000 N 
ATOM     24  H   UNL     1      -3.229  13.117  18.189  0.00  0.00    +0.000 HD
BRANCH  21  25
ATOM     25  C   UNL     1      -5.262  12.850  19.734  0.00  0.00    +0.000 C 
BRANCH  25  32
ATOM     26  C   UNL     1      -6.787  10.011  18.964  0.00  0.00    +0.000 C 
ATOM     27  C   UNL     1      -6.866  10.810  20.212  0.00  0.00    +0.000 A 
ATOM     28  N   UNL     1      -7.679  10.406  21.195  0.00  0.00    +0.000 NA
ATOM     29  O   UNL     1      -7.580  11.355  22.185  0.00  0.00    +0.000 OA
ATOM     30  C   UNL     1      -6.708  12.323  21.804  0.00  0.00    +0.000 A 
ATOM     31  C   UNL     1      -6.538  13.437  22.755  0.00  0.00    +0.000 C 
ATOM     32  C   UNL     1      -6.199  12.026  20.552  0.00  0.00    +0.000 A 
ENDBRANCH  25  32
ENDBRANCH  21  25
ENDBRANCH   1  23
TORSDOF 5
ENDMDL
