MODEL 1
REMARK VINA RESULT:      -9.4      0.000      0.000
REMARK  Name = 
REMARK  3 active torsions:
REMARK  status: ('A' for Active; 'I' for Inactive)
REMARK    1  A    between atoms: C_2  and  C_3
REMARK    2  A    between atoms: N_7  and  C_8
REMARK    3  A    between atoms: C_19  and  C_20
REMARK                            x       y       z     vdW  Elec       q    Type
REMARK                         _______ _______ _______ _____ _____    ______ ____
ROOT
ATOM      1  O   UNL     1       0.501   8.539  21.704  0.00  0.00    +0.000 OA
ATOM      2  C   UNL     1       1.066   8.818  20.646  0.00  0.00    +0.000 C 
ATOM      3  N   UNL     1       1.690   7.841  19.865  0.00  0.00    +0.000 N 
ATOM      4  C   UNL     1       2.565   8.129  18.728  0.00  0.00    +0.000 C 
ATOM      5  C   UNL     1       2.437   7.075  17.635  0.00  0.00    +0.000 C 
ATOM      6  C   UNL     1       2.645   5.647  18.153  0.00  0.00    +0.000 C 
ATOM      7  C   UNL     1       1.746   5.399  19.374  0.00  0.00    +0.000 C 
ATOM      8  C   UNL     1       1.835   6.499  20.435  0.00  0.00    +0.000 C 
ENDROOT
BRANCH   6   9
ATOM      9  C   UNL     1       4.089   5.368  18.459  0.00  0.00    +0.000 A 
ATOM     10  N   UNL     1       4.607   5.254  19.667  0.00  0.00    +0.000 NA
ATOM     11  N   UNL     1       5.940   4.966  19.554  0.00  0.00    +0.000 NA
ATOM     12  C   UNL     1       6.228   4.902  18.275  0.00  0.00    +0.000 A 
ATOM     13  C   UNL     1       7.433   4.616  17.581  0.00  0.00    +0.000 A 
ATOM     14  C   UNL     1       7.445   4.635  16.234  0.00  0.00    +0.000 A 
ATOM     15  C   UNL     1       6.248   4.953  15.472  0.00  0.00    +0.000 A 
ATOM     16  C   UNL     1       5.099   5.210  16.127  0.00  0.00    +0.000 A 
ATOM     17  N   UNL     1       5.091   5.176  17.523  0.00  0.00    +0.000 N 
ENDBRANCH   6   9
BRANCH   2  18
ATOM     18  C   UNL     1       1.049  10.252  20.109  0.00  0.00    +0.000 C 
ATOM     19  C   UNL     1       0.235  11.190  20.988  0.00  0.00    +0.000 C 
ATOM     20  C   UNL     1      -1.065  11.391  20.261  0.00  0.00    +0.000 C 
ATOM     21  O   UNL     1      -1.998  11.996  20.768  0.00  0.00    +0.000 OA
ATOM     22  N   UNL     1      -0.959  10.823  18.990  0.00  0.00    +0.000 N 
ATOM     23  C   UNL     1       0.389  10.366  18.741  0.00  0.00    +0.000 C 
BRANCH  22  24
ATOM     24  C   UNL     1      -2.008  10.713  18.032  0.00  0.00    +0.000 A 
ATOM     25  C   UNL     1      -1.893   9.876  16.912  0.00  0.00    +0.000 A 
ATOM     26  C   UNL     1      -2.890   9.816  15.932  0.00  0.00    +0.000 A 
ATOM     27  C   UNL     1      -4.029  10.601  16.053  0.00  0.00    +0.000 A 
ATOM     28  C   UNL     1      -4.171  11.424  17.164  0.00  0.00    +0.000 A 
ATOM     29 CL   UNL     1      -5.579  12.405  17.318  0.00  0.00    +0.000 Cl
ATOM     30  C   UNL     1      -3.181  11.476  18.151  0.00  0.00    +0.000 A 
ENDBRANCH  22  24
ENDBRANCH   2  18
TORSDOF 3
ENDMDL
MODEL 2
REMARK VINA RESULT:      -9.3      2.011      2.793
REMARK  Name = 
REMARK  3 active torsions:
REMARK  status: ('A' for Active; 'I' for Inactive)
REMARK    1  A    between atoms: C_2  and  C_3
REMARK    2  A    between atoms: N_7  and  C_8
REMARK    3  A    between atoms: C_19  and  C_20
REMARK                            x       y       z     vdW  Elec       q    Type
REMARK                         _______ _______ _______ _____ _____    ______ ____
ROOT
ATOM      1  O   UNL     1       0.764   8.697  21.738  0.00  0.00    +0.000 OA
ATOM      2  C   UNL     1       1.115   8.751  20.559  0.00  0.00    +0.000 C 
ATOM      3  N   UNL     1       1.732   7.669  19.924  0.00  0.00    +0.000 N 
ATOM      4  C   UNL     1       2.371   7.740  18.610  0.00  0.00    +0.000 C 
ATOM      5  C   UNL     1       2.215   6.438  17.834  0.00  0.00    +0.000 C 
ATOM      6  C   UNL     1       2.690   5.211  18.622  0.00  0.00    +0.000 C 
ATOM      7  C   UNL     1       2.034   5.198  20.011  0.00  0.00    +0.000 C 
ATOM      8  C   UNL     1       2.141   6.532  20.753  0.00  0.00    +0.000 C 
ENDROOT
BRANCH   6   9
ATOM      9  C   UNL     1       4.187   5.149  18.712  0.00  0.00    +0.000 A 
ATOM     10  N   UNL     1       4.893   5.292  19.818  0.00  0.00    +0.000 NA
ATOM     11  N   UNL     1       6.221   5.141  19.519  0.00  0.00    +0.000 NA
ATOM     12  C   UNL     1       6.317   4.902  18.232  0.00  0.00    +0.000 A 
ATOM     13  C   UNL     1       7.430   4.644  17.391  0.00  0.00    +0.000 A 
ATOM     14  C   UNL     1       7.235   4.445  16.072  0.00  0.00    +0.000 A 
ATOM     15  C   UNL     1       5.904   4.499  15.489  0.00  0.00    +0.000 A 
ATOM     16  C   UNL     1       4.844   4.728  16.288  0.00  0.00    +0.000 A 
ATOM     17  N   UNL     1       5.052   4.921  17.655  0.00  0.00    +0.000 N 
ENDBRANCH   6   9
BRANCH   2  18
ATOM     18  C   UNL     1       0.823   9.996  19.716  0.00  0.00    +0.000 C 
ATOM     19  C   UNL     1       1.646  11.199  20.156  0.00  0.00    +0.000 C 
ATOM     20  C   UNL     1       0.698  12.067  20.936  0.00  0.00    +0.000 C 
ATOM     21  O   UNL     1       1.083  13.057  21.540  0.00  0.00    +0.000 OA
ATOM     22  N   UNL     1      -0.595  11.559  20.791  0.00  0.00    +0.000 N 
ATOM     23  C   UNL     1      -0.618  10.473  19.839  0.00  0.00    +0.000 C 
BRANCH  22  24
ATOM     24  C   UNL     1      -1.761  12.038  21.456  0.00  0.00    +0.000 A 
ATOM     25  C   UNL     1      -1.944  11.856  22.835  0.00  0.00    +0.000 A 
ATOM     26  C   UNL     1      -3.117  12.262  23.481  0.00  0.00    +0.000 A 
ATOM     27  C   UNL     1      -4.139  12.859  22.754  0.00  0.00    +0.000 A 
ATOM     28  C   UNL     1      -3.970  13.063  21.390  0.00  0.00    +0.000 A 
ATOM     29 CL   UNL     1      -5.235  13.797  20.480  0.00  0.00    +0.000 Cl
ATOM     30  C   UNL     1      -2.793  12.670  20.744  0.00  0.00    +0.000 A 
ENDBRANCH  22  24
ENDBRANCH   2  18
TORSDOF 3
ENDMDL
MODEL 3
REMARK VINA RESULT:      -9.3      1.332      1.942
REMARK  Name = 
REMARK  3 active torsions:
REMARK  status: ('A' for Active; 'I' for Inactive)
REMARK    1  A    between atoms: C_2  and  C_3
REMARK    2  A    between atoms: N_7  and  C_8
REMARK    3  A    between atoms: C_19  and  C_20
REMARK                            x       y       z     vdW  Elec       q    Type
REMARK                         _______ _______ _______ _____ _____    ______ ____
ROOT
ATOM      1  O   UNL     1       0.968   9.444  20.755  0.00  0.00    +0.000 OA
ATOM      2  C   UNL     1       1.263   9.130  19.601  0.00  0.00    +0.000 C 
ATOM      3  N   UNL     1       1.844   7.895  19.299  0.00  0.00    +0.000 N 
ATOM      4  C   UNL     1       2.420   7.551  18.000  0.00  0.00    +0.000 C 
ATOM      5  C   UNL     1       2.220   6.078  17.664  0.00  0.00    +0.000 C 
ATOM      6  C   UNL     1       2.724   5.139  18.767  0.00  0.00    +0.000 C 
ATOM      7  C   UNL     1       2.135   5.562  20.121  0.00  0.00    +0.000 C 
ATOM      8  C   UNL     1       2.284   7.055  20.416  0.00  0.00    +0.000 C 
ENDROOT
BRANCH   6   9
ATOM      9  C   UNL     1       4.224   5.078  18.806  0.00  0.00    +0.000 A 
ATOM     10  N   UNL     1       4.966   5.213  19.889  0.00  0.00    +0.000 NA
ATOM     11  N   UNL     1       6.283   5.065  19.546  0.00  0.00    +0.000 NA
ATOM     12  C   UNL     1       6.337   4.836  18.255  0.00  0.00    +0.000 A 
ATOM     13  C   UNL     1       7.421   4.585  17.375  0.00  0.00    +0.000 A 
ATOM     14  C   UNL     1       7.183   4.395  16.063  0.00  0.00    +0.000 A 
ATOM     15  C   UNL     1       5.833   4.451  15.524  0.00  0.00    +0.000 A 
ATOM     16  C   UNL     1       4.800   4.675  16.359  0.00  0.00    +0.000 A 
ATOM     17  N   UNL     1       5.054   4.857  17.720  0.00  0.00    +0.000 N 
ENDBRANCH   6   9
BRANCH   2  18
ATOM     18  C   UNL     1       0.939  10.067  18.432  0.00  0.00    +0.000 C 
ATOM     19  C   UNL     1       1.456  11.480  18.663  0.00  0.00    +0.000 C 
ATOM     20  C   UNL     1       0.248  12.288  19.046  0.00  0.00    +0.000 C 
ATOM     21  O   UNL     1       0.344  13.446  19.423  0.00  0.00    +0.000 OA
ATOM     22  N   UNL     1      -0.893  11.508  18.851  0.00  0.00    +0.000 N 
ATOM     23  C   UNL     1      -0.557  10.253  18.217  0.00  0.00    +0.000 C 
BRANCH  22  24
ATOM     24  C   UNL     1      -2.227  11.875  19.193  0.00  0.00    +0.000 A 
ATOM     25  C   UNL     1      -2.522  12.516  20.406  0.00  0.00    +0.000 A 
ATOM     26  C   UNL     1      -3.837  12.816  20.778  0.00  0.00    +0.000 A 
ATOM     27  C   UNL     1      -4.890  12.476  19.940  0.00  0.00    +0.000 A 
ATOM     28  C   UNL     1      -4.618  11.856  18.726  0.00  0.00    +0.000 A 
ATOM     29 CL   UNL     1      -5.920  11.425  17.684  0.00  0.00    +0.000 Cl
ATOM     30  C   UNL     1      -3.303  11.566  18.346  0.00  0.00    +0.000 A 
ENDBRANCH  22  24
ENDBRANCH   2  18
TORSDOF 3
ENDMDL
MODEL 4
REMARK VINA RESULT:      -9.2      2.217      2.822
REMARK  Name = 
REMARK  3 active torsions:
REMARK  status: ('A' for Active; 'I' for Inactive)
REMARK    1  A    between atoms: C_2  and  C_3
REMARK    2  A    between atoms: N_7  and  C_8
REMARK    3  A    between atoms: C_19  and  C_20
REMARK                            x       y       z     vdW  Elec       q    Type
REMARK                         _______ _______ _______ _____ _____    ______ ____
ROOT
ATOM      1  O   UNL     1       0.678   8.901  21.678  0.00  0.00    +0.000 OA
ATOM      2  C   UNL     1       1.086   8.976  20.518  0.00  0.00    +0.000 C 
ATOM      3  N   UNL     1       1.681   7.887  19.874  0.00  0.00    +0.000 N 
ATOM      4  C   UNL     1       2.384   7.970  18.595  0.00  0.00    +0.000 C 
ATOM      5  C   UNL     1       2.202   6.703  17.766  0.00  0.00    +0.000 C 
ATOM      6  C   UNL     1       2.579   5.429  18.531  0.00  0.00    +0.000 C 
ATOM      7  C   UNL     1       1.859   5.402  19.887  0.00  0.00    +0.000 C 
ATOM      8  C   UNL     1       1.995   6.704  20.680  0.00  0.00    +0.000 C 
ENDROOT
BRANCH   6   9
ATOM      9  C   UNL     1       4.066   5.290  18.687  0.00  0.00    +0.000 A 
ATOM     10  N   UNL     1       4.726   5.362  19.828  0.00  0.00    +0.000 NA
ATOM     11  N   UNL     1       6.057   5.155  19.586  0.00  0.00    +0.000 NA
ATOM     12  C   UNL     1       6.203   4.953  18.297  0.00  0.00    +0.000 A 
ATOM     13  C   UNL     1       7.340   4.667  17.499  0.00  0.00    +0.000 A 
ATOM     14  C   UNL     1       7.198   4.520  16.167  0.00  0.00    +0.000 A 
ATOM     15  C   UNL     1       5.900   4.658  15.526  0.00  0.00    +0.000 A 
ATOM     16  C   UNL     1       4.816   4.914  16.283  0.00  0.00    +0.000 A 
ATOM     17  N   UNL     1       4.968   5.052  17.664  0.00  0.00    +0.000 N 
ENDBRANCH   6   9
BRANCH   2  18
ATOM     18  C   UNL     1       0.895  10.262  19.708  0.00  0.00    +0.000 C 
ATOM     19  C   UNL     1       1.574  11.460  20.356  0.00  0.00    +0.000 C 
ATOM     20  C   UNL     1       0.465  12.246  21.000  0.00  0.00    +0.000 C 
ATOM     21  O   UNL     1       0.693  13.208  21.718  0.00  0.00    +0.000 OA
ATOM     22  N   UNL     1      -0.758  11.707  20.596  0.00  0.00    +0.000 N 
ATOM     23  C   UNL     1      -0.565  10.682  19.596  0.00  0.00    +0.000 C 
BRANCH  22  24
ATOM     24  C   UNL     1      -2.043  12.104  21.066  0.00  0.00    +0.000 A 
ATOM     25  C   UNL     1      -3.014  12.622  20.194  0.00  0.00    +0.000 A 
ATOM     26  C   UNL     1      -4.252  13.078  20.660  0.00  0.00    +0.000 A 
ATOM     27  C   UNL     1      -4.545  13.027  22.016  0.00  0.00    +0.000 A 
ATOM     28  C   UNL     1      -3.605  12.501  22.894  0.00  0.00    +0.000 A 
ATOM     29 CL   UNL     1      -3.958  12.441  24.579  0.00  0.00    +0.000 Cl
ATOM     30  C   UNL     1      -2.370  12.034  22.429  0.00  0.00    +0.000 A 
ENDBRANCH  22  24
ENDBRANCH   2  18
TORSDOF 3
ENDMDL
MODEL 5
REMARK VINA RESULT:      -9.1      1.558      1.947
REMARK  Name = 
REMARK  3 active torsions:
REMARK  status: ('A' for Active; 'I' for Inactive)
REMARK    1  A    between atoms: C_2  and  C_3
REMARK    2  A    between atoms: N_7  and  C_8
REMARK    3  A    between atoms: C_19  and  C_20
REMARK                            x       y       z     vdW  Elec       q    Type
REMARK                         _______ _______ _______ _____ _____    ______ ____
ROOT
ATOM      1  O   UNL     1       0.984   9.509  20.799  0.00  0.00    +0.000 OA
ATOM      2  C   UNL     1       1.284   9.212  19.642  0.00  0.00    +0.000 C 
ATOM      3  N   UNL     1       1.850   7.974  19.323  0.00  0.00    +0.000 N 
ATOM      4  C   UNL     1       2.434   7.646  18.023  0.00  0.00    +0.000 C 
ATOM      5  C   UNL     1       2.216   6.182  17.659  0.00  0.00    +0.000 C 
ATOM      6  C   UNL     1       2.698   5.217  18.748  0.00  0.00    +0.000 C 
ATOM      7  C   UNL     1       2.102   5.623  20.105  0.00  0.00    +0.000 C 
ATOM      8  C   UNL     1       2.270   7.108  20.428  0.00  0.00    +0.000 C 
ENDROOT
BRANCH   6   9
ATOM      9  C   UNL     1       4.196   5.134  18.799  0.00  0.00    +0.000 A 
ATOM     10  N   UNL     1       4.932   5.253  19.889  0.00  0.00    +0.000 NA
ATOM     11  N   UNL     1       6.249   5.088  19.555  0.00  0.00    +0.000 NA
ATOM     12  C   UNL     1       6.310   4.865  18.263  0.00  0.00    +0.000 A 
ATOM     13  C   UNL     1       7.398   4.603  17.390  0.00  0.00    +0.000 A 
ATOM     14  C   UNL     1       7.167   4.424  16.075  0.00  0.00    +0.000 A 
ATOM     15  C   UNL     1       5.823   4.503  15.526  0.00  0.00    +0.000 A 
ATOM     16  C   UNL     1       4.786   4.736  16.354  0.00  0.00    +0.000 A 
ATOM     17  N   UNL     1       5.031   4.908  17.718  0.00  0.00    +0.000 N 
ENDBRANCH   6   9
BRANCH   2  18
ATOM     18  C   UNL     1       0.983  10.174  18.489  0.00  0.00    +0.000 C 
ATOM     19  C   UNL     1       1.414  11.600  18.797  0.00  0.00    +0.000 C 
ATOM     20  C   UNL     1       0.146  12.335  19.133  0.00  0.00    +0.000 C 
ATOM     21  O   UNL     1       0.161  13.482  19.555  0.00  0.00    +0.000 OA
ATOM     22  N   UNL     1      -0.941  11.508  18.843  0.00  0.00    +0.000 N 
ATOM     23  C   UNL     1      -0.505  10.296  18.189  0.00  0.00    +0.000 C 
BRANCH  22  24
ATOM     24  C   UNL     1      -2.309  11.798  19.115  0.00  0.00    +0.000 A 
ATOM     25  C   UNL     1      -3.321  11.491  18.192  0.00  0.00    +0.000 A 
ATOM     26  C   UNL     1      -4.657  11.835  18.424  0.00  0.00    +0.000 A 
ATOM     27  C   UNL     1      -5.010  12.501  19.590  0.00  0.00    +0.000 A 
ATOM     28  C   UNL     1      -4.026  12.799  20.525  0.00  0.00    +0.000 A 
ATOM     29 CL   UNL     1      -4.455  13.630  21.971  0.00  0.00    +0.000 Cl
ATOM     30  C   UNL     1      -2.691  12.445  20.301  0.00  0.00    +0.000 A 
ENDBRANCH  22  24
ENDBRANCH   2  18
TORSDOF 3
ENDMDL
MODEL 6
REMARK VINA RESULT:      -9.1      0.906      1.239
REMARK  Name = 
REMARK  3 active torsions:
REMARK  status: ('A' for Active; 'I' for Inactive)
REMARK    1  A    between atoms: C_2  and  C_3
REMARK    2  A    between atoms: N_7  and  C_8
REMARK    3  A    between atoms: C_19  and  C_20
REMARK                            x       y       z     vdW  Elec       q    Type
REMARK                         _______ _______ _______ _____ _____    ______ ____
ROOT
ATOM      1  O   UNL     1       0.435   8.638  21.626  0.00  0.00    +0.000 OA
ATOM      2  C   UNL     1       1.048   8.932  20.598  0.00  0.00    +0.000 C 
ATOM      3  N   UNL     1       1.675   7.962  19.811  0.00  0.00    +0.000 N 
ATOM      4  C   UNL     1       2.599   8.259  18.718  0.00  0.00    +0.000 C 
ATOM      5  C   UNL     1       2.485   7.242  17.588  0.00  0.00    +0.000 C 
ATOM      6  C   UNL     1       2.635   5.794  18.070  0.00  0.00    +0.000 C 
ATOM      7  C   UNL     1       1.684   5.535  19.248  0.00  0.00    +0.000 C 
ATOM      8  C   UNL     1       1.762   6.599  20.344  0.00  0.00    +0.000 C 
ENDROOT
BRANCH   6   9
ATOM      9  C   UNL     1       4.058   5.466  18.420  0.00  0.00    +0.000 A 
ATOM     10  N   UNL     1       4.531   5.322  19.644  0.00  0.00    +0.000 NA
ATOM     11  N   UNL     1       5.857   4.992  19.571  0.00  0.00    +0.000 NA
ATOM     12  C   UNL     1       6.187   4.934  18.302  0.00  0.00    +0.000 A 
ATOM     13  C   UNL     1       7.404   4.617  17.646  0.00  0.00    +0.000 A 
ATOM     14  C   UNL     1       7.463   4.651  16.300  0.00  0.00    +0.000 A 
ATOM     15  C   UNL     1       6.303   5.015  15.502  0.00  0.00    +0.000 A 
ATOM     16  C   UNL     1       5.141   5.301  16.121  0.00  0.00    +0.000 A 
ATOM     17  N   UNL     1       5.085   5.252  17.516  0.00  0.00    +0.000 N 
ENDBRANCH   6   9
BRANCH   2  18
ATOM     18  C   UNL     1       1.089  10.382  20.105  0.00  0.00    +0.000 C 
ATOM     19  C   UNL     1       0.410  11.342  21.071  0.00  0.00    +0.000 C 
ATOM     20  C   UNL     1      -0.924  11.653  20.452  0.00  0.00    +0.000 C 
ATOM     21  O   UNL     1      -1.772  12.301  21.047  0.00  0.00    +0.000 OA
ATOM     22  N   UNL     1      -0.953  11.122  19.161  0.00  0.00    +0.000 N 
ATOM     23  C   UNL     1       0.338  10.585  18.796  0.00  0.00    +0.000 C 
BRANCH  22  24
ATOM     24  C   UNL     1      -2.076  11.115  18.284  0.00  0.00    +0.000 A 
ATOM     25  C   UNL     1      -3.346  11.526  18.717  0.00  0.00    +0.000 A 
ATOM     26  C   UNL     1      -4.466  11.455  17.882  0.00  0.00    +0.000 A 
ATOM     27  C   UNL     1      -4.337  10.967  16.588  0.00  0.00    +0.000 A 
ATOM     28  C   UNL     1      -3.085  10.571  16.134  0.00  0.00    +0.000 A 
ATOM     29 CL   UNL     1      -2.918   9.957  14.533  0.00  0.00    +0.000 Cl
ATOM     30  C   UNL     1      -1.961  10.652  16.964  0.00  0.00    +0.000 A 
ENDBRANCH  22  24
ENDBRANCH   2  18
TORSDOF 3
ENDMDL
MODEL 7
REMARK VINA RESULT:      -8.6      2.320      2.991
REMARK  Name = 
REMARK  3 active torsions:
REMARK  status: ('A' for Active; 'I' for Inactive)
REMARK    1  A    between atoms: C_2  and  C_3
REMARK    2  A    between atoms: N_7  and  C_8
REMARK    3  A    between atoms: C_19  and  C_20
REMARK                            x       y       z     vdW  Elec       q    Type
REMARK                         _______ _______ _______ _____ _____    ______ ____
ROOT
ATOM      1  O   UNL     1       1.207   8.929  21.011  0.00  0.00    +0.000 OA
ATOM      2  C   UNL     1       1.395   8.622  19.833  0.00  0.00    +0.000 C 
ATOM      3  N   UNL     1       1.993   7.410  19.475  0.00  0.00    +0.000 N 
ATOM      4  C   UNL     1       2.449   7.084  18.124  0.00  0.00    +0.000 C 
ATOM      5  C   UNL     1       2.277   5.602  17.812  0.00  0.00    +0.000 C 
ATOM      6  C   UNL     1       2.930   4.691  18.858  0.00  0.00    +0.000 C 
ATOM      7  C   UNL     1       2.464   5.095  20.265  0.00  0.00    +0.000 C 
ATOM      8  C   UNL     1       2.581   6.595  20.542  0.00  0.00    +0.000 C 
ENDROOT
BRANCH   6   9
ATOM      9  C   UNL     1       4.427   4.691  18.744  0.00  0.00    +0.000 A 
ATOM     10  N   UNL     1       5.271   4.702  19.759  0.00  0.00    +0.000 NA
ATOM     11  N   UNL     1       6.550   4.665  19.273  0.00  0.00    +0.000 NA
ATOM     12  C   UNL     1       6.480   4.628  17.964  0.00  0.00    +0.000 A 
ATOM     13  C   UNL     1       7.477   4.555  16.956  0.00  0.00    +0.000 A 
ATOM     14  C   UNL     1       7.112   4.547  15.659  0.00  0.00    +0.000 A 
ATOM     15  C   UNL     1       5.714   4.620  15.267  0.00  0.00    +0.000 A 
ATOM     16  C   UNL     1       4.764   4.673  16.221  0.00  0.00    +0.000 A 
ATOM     17  N   UNL     1       5.149   4.668  17.563  0.00  0.00    +0.000 N 
ENDBRANCH   6   9
BRANCH   2  18
ATOM     18  C   UNL     1       0.915   9.538  18.703  0.00  0.00    +0.000 C 
ATOM     19  C   UNL     1       1.894  10.669  18.419  0.00  0.00    +0.000 C 
ATOM     20  C   UNL     1       1.284  11.891  19.049  0.00  0.00    +0.000 C 
ATOM     21  O   UNL     1       1.889  12.950  19.110  0.00  0.00    +0.000 OA
ATOM     22  N   UNL     1      -0.011  11.580  19.466  0.00  0.00    +0.000 N 
ATOM     23  C   UNL     1      -0.388  10.254  19.032  0.00  0.00    +0.000 C 
BRANCH  22  24
ATOM     24  C   UNL     1      -0.883  12.437  20.198  0.00  0.00    +0.000 A 
ATOM     25  C   UNL     1      -1.065  13.780  19.834  0.00  0.00    +0.000 A 
ATOM     26  C   UNL     1      -1.865  14.644  20.590  0.00  0.00    +0.000 A 
ATOM     27  C   UNL     1      -2.500  14.180  21.734  0.00  0.00    +0.000 A 
ATOM     28  C   UNL     1      -2.346  12.848  22.102  0.00  0.00    +0.000 A 
ATOM     29 CL   UNL     1      -3.125  12.266  23.524  0.00  0.00    +0.000 Cl
ATOM     30  C   UNL     1      -1.557  11.979  21.341  0.00  0.00    +0.000 A 
ENDBRANCH  22  24
ENDBRANCH   2  18
TORSDOF 3
ENDMDL
MODEL 8
REMARK VINA RESULT:      -8.5      2.350      3.390
REMARK  Name = 
REMARK  3 active torsions:
REMARK  status: ('A' for Active; 'I' for Inactive)
REMARK    1  A    between atoms: C_2  and  C_3
REMARK    2  A    between atoms: N_7  and  C_8
REMARK    3  A    between atoms: C_19  and  C_20
REMARK                            x       y       z     vdW  Elec       q    Type
REMARK                         _______ _______ _______ _____ _____    ______ ____
ROOT
ATOM      1  O   UNL     1       0.971   9.313  20.877  0.00  0.00    +0.000 OA
ATOM      2  C   UNL     1       1.235   9.007  19.713  0.00  0.00    +0.000 C 
ATOM      3  N   UNL     1       1.836   7.786  19.391  0.00  0.00    +0.000 N 
ATOM      4  C   UNL     1       2.378   7.458  18.073  0.00  0.00    +0.000 C 
ATOM      5  C   UNL     1       2.203   5.980  17.742  0.00  0.00    +0.000 C 
ATOM      6  C   UNL     1       2.766   5.054  18.826  0.00  0.00    +0.000 C 
ATOM      7  C   UNL     1       2.212   5.461  20.199  0.00  0.00    +0.000 C 
ATOM      8  C   UNL     1       2.335   6.957  20.492  0.00  0.00    +0.000 C 
ENDROOT
BRANCH   6   9
ATOM      9  C   UNL     1       4.268   5.029  18.815  0.00  0.00    +0.000 A 
ATOM     10  N   UNL     1       5.042   5.211  19.868  0.00  0.00    +0.000 NA
ATOM     11  N   UNL     1       6.350   5.086  19.484  0.00  0.00    +0.000 NA
ATOM     12  C   UNL     1       6.367   4.824  18.198  0.00  0.00    +0.000 A 
ATOM     13  C   UNL     1       7.426   4.576  17.288  0.00  0.00    +0.000 A 
ATOM     14  C   UNL     1       7.148   4.346  15.990  0.00  0.00    +0.000 A 
ATOM     15  C   UNL     1       5.781   4.356  15.497  0.00  0.00    +0.000 A 
ATOM     16  C   UNL     1       4.771   4.576  16.361  0.00  0.00    +0.000 A 
ATOM     17  N   UNL     1       5.065   4.801  17.707  0.00  0.00    +0.000 N 
ENDBRANCH   6   9
BRANCH   2  18
ATOM     18  C   UNL     1       0.850   9.936  18.558  0.00  0.00    +0.000 C 
ATOM     19  C   UNL     1       2.040  10.720  18.024  0.00  0.00    +0.000 C 
ATOM     20  C   UNL     1       1.887  12.107  18.584  0.00  0.00    +0.000 C 
ATOM     21  O   UNL     1       2.756  12.954  18.446  0.00  0.00    +0.000 OA
ATOM     22  N   UNL     1       0.636  12.207  19.196  0.00  0.00    +0.000 N 
ATOM     23  C   UNL     1      -0.146  11.013  18.968  0.00  0.00    +0.000 C 
BRANCH  22  24
ATOM     24  C   UNL     1       0.152  13.326  19.933  0.00  0.00    +0.000 A 
ATOM     25  C   UNL     1      -0.016  13.270  21.325  0.00  0.00    +0.000 A 
ATOM     26  C   UNL     1      -0.556  14.341  22.045  0.00  0.00    +0.000 A 
ATOM     27  C   UNL     1      -0.945  15.497  21.381  0.00  0.00    +0.000 A 
ATOM     28  C   UNL     1      -0.771  15.580  20.004  0.00  0.00    +0.000 A 
ATOM     29 CL   UNL     1      -1.257  17.008  19.172  0.00  0.00    +0.000 Cl
ATOM     30  C   UNL     1      -0.220  14.514  19.284  0.00  0.00    +0.000 A 
ENDBRANCH  22  24
ENDBRANCH   2  18
TORSDOF 3
ENDMDL
MODEL 9
REMARK VINA RESULT:      -8.0      2.768      3.748
REMARK  Name = 
REMARK  3 active torsions:
REMARK  status: ('A' for Active; 'I' for Inactive)
REMARK    1  A    between atoms: C_2  and  C_3
REMARK    2  A    between atoms: N_7  and  C_8
REMARK    3  A    between atoms: C_19  and  C_20
REMARK                            x       y       z     vdW  Elec       q    Type
REMARK                         _______ _______ _______ _____ _____    ______ ____
ROOT
ATOM      1  O   UNL     1       1.098   9.121  21.019  0.00  0.00    +0.000 OA
ATOM      2  C   UNL     1       1.292   8.804  19.845  0.00  0.00    +0.000 C 
ATOM      3  N   UNL     1       1.904   7.595  19.499  0.00  0.00    +0.000 N 
ATOM      4  C   UNL     1       2.366   7.261  18.153  0.00  0.00    +0.000 C 
ATOM      5  C   UNL     1       2.210   5.774  17.855  0.00  0.00    +0.000 C 
ATOM      6  C   UNL     1       2.871   4.880  18.910  0.00  0.00    +0.000 C 
ATOM      7  C   UNL     1       2.398   5.293  20.313  0.00  0.00    +0.000 C 
ATOM      8  C   UNL     1       2.498   6.797  20.576  0.00  0.00    +0.000 C 
ENDROOT
BRANCH   6   9
ATOM      9  C   UNL     1       4.368   4.896  18.800  0.00  0.00    +0.000 A 
ATOM     10  N   UNL     1       5.207   5.093  19.800  0.00  0.00    +0.000 NA
ATOM     11  N   UNL     1       6.489   5.005  19.328  0.00  0.00    +0.000 NA
ATOM     12  C   UNL     1       6.426   4.751  18.042  0.00  0.00    +0.000 A 
ATOM     13  C   UNL     1       7.429   4.537  17.062  0.00  0.00    +0.000 A 
ATOM     14  C   UNL     1       7.071   4.308  15.783  0.00  0.00    +0.000 A 
ATOM     15  C   UNL     1       5.673   4.284  15.383  0.00  0.00    +0.000 A 
ATOM     16  C   UNL     1       4.718   4.471  16.314  0.00  0.00    +0.000 A 
ATOM     17  N   UNL     1       5.096   4.696  17.639  0.00  0.00    +0.000 N 
ENDBRANCH   6   9
BRANCH   2  18
ATOM     18  C   UNL     1       0.805   9.704  18.705  0.00  0.00    +0.000 C 
ATOM     19  C   UNL     1       1.950  10.420  18.003  0.00  0.00    +0.000 C 
ATOM     20  C   UNL     1       1.913  11.832  18.519  0.00  0.00    +0.000 C 
ATOM     21  O   UNL     1       2.789  12.638  18.245  0.00  0.00    +0.000 OA
ATOM     22  N   UNL     1       0.749  12.004  19.270  0.00  0.00    +0.000 N 
ATOM     23  C   UNL     1      -0.096  10.835  19.185  0.00  0.00    +0.000 C 
BRANCH  22  24
ATOM     24  C   UNL     1       0.395  13.168  20.011  0.00  0.00    +0.000 A 
ATOM     25  C   UNL     1      -0.870  13.761  19.884  0.00  0.00    +0.000 A 
ATOM     26  C   UNL     1      -1.199  14.944  20.555  0.00  0.00    +0.000 A 
ATOM     27  C   UNL     1      -0.262  15.562  21.372  0.00  0.00    +0.000 A 
ATOM     28  C   UNL     1       0.992  14.981  21.526  0.00  0.00    +0.000 A 
ATOM     29 CL   UNL     1       2.163  15.745  22.532  0.00  0.00    +0.000 Cl
ATOM     30  C   UNL     1       1.319  13.792  20.864  0.00  0.00    +0.000 A 
ENDBRANCH  22  24
ENDBRANCH   2  18
TORSDOF 3
ENDMDL
