MODEL 1
REMARK VINA RESULT:      -9.2      0.000      0.000
REMARK  Name = 
REMARK  4 active torsions:
REMARK  status: ('A' for Active; 'I' for Inactive)
REMARK    1  A    between atoms: C_7  and  C_8
REMARK    2  A    between atoms: N_10  and  C_11
REMARK    3  A    between atoms: C_11  and  C_12
REMARK    4  A    between atoms: C_12  and  C_13
REMARK                            x       y       z     vdW  Elec       q    Type
REMARK                         _______ _______ _______ _____ _____    ______ ____
ROOT
ATOM      1  C   UNL     1       1.457   9.617  17.957  0.00  0.00    +0.000 C 
ATOM      2  O   UNL     1       2.350  10.297  17.466  0.00  0.00    +0.000 OA
ATOM      3  N   UNL     1       1.574   8.259  18.160  0.00  0.00    +0.000 N 
ATOM      4  H   UNL     1       0.781   7.756  18.538  0.00  0.00    +0.000 HD
ENDROOT
BRANCH   1  11
ATOM      5  O   UNL     1      -5.571  12.743  18.856  0.00  0.00    +0.000 OA
ATOM      6  C   UNL     1      -4.613  11.995  18.683  0.00  0.00    +0.000 C 
ATOM      7  C   UNL     1      -4.716  10.705  17.907  0.00  0.00    +0.000 C 
ATOM      8  C   UNL     1      -3.441  10.391  17.137  0.00  0.00    +0.000 C 
ATOM      9  C   UNL     1      -2.209  10.604  17.976  0.00  0.00    +0.000 A 
ATOM     10  C   UNL     1      -0.992   9.984  17.641  0.00  0.00    +0.000 A 
ATOM     11  C   UNL     1       0.173  10.254  18.378  0.00  0.00    +0.000 A 
ATOM     12  C   UNL     1       0.094  11.144  19.452  0.00  0.00    +0.000 A 
ATOM     13  F   UNL     1       1.172  11.433  20.198  0.00  0.00    +0.000 F 
ATOM     14  C   UNL     1      -1.100  11.784  19.779  0.00  0.00    +0.000 A 
ATOM     15  C   UNL     1      -2.242  11.522  19.031  0.00  0.00    +0.000 A 
ATOM     16  N   UNL     1      -3.415  12.230  19.302  0.00  0.00    +0.000 N 
ATOM     17  H   UNL     1      -3.401  13.019  19.936  0.00  0.00    +0.000 HD
ENDBRANCH   1  11
BRANCH   3  18
ATOM     18  C   UNL     1       2.789   7.526  17.847  0.00  0.00    +0.000 C 
BRANCH  18  19
ATOM     19  C   UNL     1       2.881   6.096  18.459  0.00  0.00    +0.000 C 
ATOM     20  C   UNL     1       1.845   5.116  17.852  0.00  0.00    +0.000 C 
ATOM     21  C   UNL     1       1.671   4.010  18.895  0.00  0.00    +0.000 C 
ATOM     22  C   UNL     1       2.066   4.622  20.237  0.00  0.00    +0.000 C 
ATOM     23  C   UNL     1       2.414   6.081  19.939  0.00  0.00    +0.000 C 
BRANCH  19  24
ATOM     24  C   UNL     1       4.317   5.565  18.232  0.00  0.00    +0.000 A 
ATOM     25  C   UNL     1       5.304   5.569  19.237  0.00  0.00    +0.000 A 
ATOM     26  C   UNL     1       6.593   5.089  18.993  0.00  0.00    +0.000 A 
ATOM     27  C   UNL     1       6.924   4.616  17.733  0.00  0.00    +0.000 A 
ATOM     28  F   UNL     1       8.163   4.166  17.497  0.00  0.00    +0.000 F 
ATOM     29  C   UNL     1       5.983   4.604  16.715  0.00  0.00    +0.000 A 
ATOM     30  C   UNL     1       4.689   5.067  16.964  0.00  0.00    +0.000 A 
ENDBRANCH  19  24
ENDBRANCH  18  19
ENDBRANCH   3  18
TORSDOF 4
ENDMDL
MODEL 2
REMARK VINA RESULT:      -9.1      2.798      3.719
REMARK  Name = 
REMARK  4 active torsions:
REMARK  status: ('A' for Active; 'I' for Inactive)
REMARK    1  A    between atoms: C_7  and  C_8
REMARK    2  A    between atoms: N_10  and  C_11
REMARK    3  A    between atoms: C_11  and  C_12
REMARK    4  A    between atoms: C_12  and  C_13
REMARK                            x       y       z     vdW  Elec       q    Type
REMARK                         _______ _______ _______ _____ _____    ______ ____
ROOT
ATOM      1  C   UNL     1       2.323   6.583  20.037  0.00  0.00    +0.000 C 
ATOM      2  O   UNL     1       1.564   5.930  20.744  0.00  0.00    +0.000 OA
ATOM      3  N   UNL     1       3.555   6.120  19.633  0.00  0.00    +0.000 N 
ATOM      4  H   UNL     1       4.144   6.730  19.079  0.00  0.00    +0.000 HD
ENDROOT
BRANCH   1  11
ATOM      5  O   UNL     1      -0.723  13.537  18.503  0.00  0.00    +0.000 OA
ATOM      6  C   UNL     1      -0.158  12.567  19.001  0.00  0.00    +0.000 C 
ATOM      7  C   UNL     1      -0.024  12.378  20.492  0.00  0.00    +0.000 C 
ATOM      8  C   UNL     1      -0.083  10.912  20.896  0.00  0.00    +0.000 C 
ATOM      9  C   UNL     1       0.767  10.046  20.004  0.00  0.00    +0.000 A 
ATOM     10  C   UNL     1       1.203   8.780  20.431  0.00  0.00    +0.000 A 
ATOM     11  C   UNL     1       1.924   7.943  19.563  0.00  0.00    +0.000 A 
ATOM     12  C   UNL     1       2.202   8.399  18.272  0.00  0.00    +0.000 A 
ATOM     13  F   UNL     1       2.895   7.647  17.402  0.00  0.00    +0.000 F 
ATOM     14  C   UNL     1       1.754   9.642  17.828  0.00  0.00    +0.000 A 
ATOM     15  C   UNL     1       1.027  10.453  18.691  0.00  0.00    +0.000 A 
ATOM     16  N   UNL     1       0.501  11.657  18.218  0.00  0.00    +0.000 N 
ATOM     17  H   UNL     1       0.528  11.874  17.229  0.00  0.00    +0.000 HD
ENDBRANCH   1  11
BRANCH   3  18
ATOM     18  C   UNL     1       4.041   4.794  19.977  0.00  0.00    +0.000 C 
BRANCH  18  19
ATOM     19  C   UNL     1       3.942   3.733  18.840  0.00  0.00    +0.000 C 
ATOM     20  C   UNL     1       2.505   3.589  18.277  0.00  0.00    +0.000 C 
ATOM     21  C   UNL     1       2.455   2.198  17.641  0.00  0.00    +0.000 C 
ATOM     22  C   UNL     1       3.536   1.372  18.333  0.00  0.00    +0.000 C 
ATOM     23  C   UNL     1       4.151   2.295  19.385  0.00  0.00    +0.000 C 
BRANCH  19  24
ATOM     24  C   UNL     1       4.919   4.142  17.711  0.00  0.00    +0.000 A 
ATOM     25  C   UNL     1       4.512   4.333  16.376  0.00  0.00    +0.000 A 
ATOM     26  C   UNL     1       5.424   4.694  15.381  0.00  0.00    +0.000 A 
ATOM     27  C   UNL     1       6.764   4.851  15.700  0.00  0.00    +0.000 A 
ATOM     28  F   UNL     1       7.639   5.186  14.745  0.00  0.00    +0.000 F 
ATOM     29  C   UNL     1       7.205   4.664  17.001  0.00  0.00    +0.000 A 
ATOM     30  C   UNL     1       6.290   4.319  17.999  0.00  0.00    +0.000 A 
ENDBRANCH  19  24
ENDBRANCH  18  19
ENDBRANCH   3  18
TORSDOF 4
ENDMDL
MODEL 3
REMARK VINA RESULT:      -8.8      2.209      2.720
REMARK  Name = 
REMARK  4 active torsions:
REMARK  status: ('A' for Active; 'I' for Inactive)
REMARK    1  A    between atoms: C_7  and  C_8
REMARK    2  A    between atoms: N_10  and  C_11
REMARK    3  A    between atoms: C_11  and  C_12
REMARK    4  A    between atoms: C_12  and  C_13
REMARK                            x       y       z     vdW  Elec       q    Type
REMARK                         _______ _______ _______ _____ _____    ______ ____
ROOT
ATOM      1  C   UNL     1       1.434   9.188  19.132  0.00  0.00    +0.000 C 
ATOM      2  O   UNL     1       1.867   9.889  18.224  0.00  0.00    +0.000 OA
ATOM      3  N   UNL     1       1.691   7.838  19.224  0.00  0.00    +0.000 N 
ATOM      4  H   UNL     1       1.270   7.316  19.982  0.00  0.00    +0.000 HD
ENDROOT
BRANCH   1  11
ATOM      5  O   UNL     1      -3.004  13.375  23.903  0.00  0.00    +0.000 OA
ATOM      6  C   UNL     1      -2.550  12.699  22.984  0.00  0.00    +0.000 C 
ATOM      7  C   UNL     1      -3.103  12.754  21.580  0.00  0.00    +0.000 C 
ATOM      8  C   UNL     1      -2.022  12.560  20.526  0.00  0.00    +0.000 C 
ATOM      9  C   UNL     1      -1.099  11.421  20.867  0.00  0.00    +0.000 A 
ATOM     10  C   UNL     1      -0.328  10.795  19.873  0.00  0.00    +0.000 A 
ATOM     11  C   UNL     1       0.595   9.791  20.211  0.00  0.00    +0.000 A 
ATOM     12  C   UNL     1       0.721   9.424  21.554  0.00  0.00    +0.000 A 
ATOM     13  F   UNL     1       1.579   8.464  21.934  0.00  0.00    +0.000 F 
ATOM     14  C   UNL     1      -0.019  10.054  22.552  0.00  0.00    +0.000 A 
ATOM     15  C   UNL     1      -0.916  11.058  22.206  0.00  0.00    +0.000 A 
ATOM     16  N   UNL     1      -1.590  11.750  23.214  0.00  0.00    +0.000 N 
ATOM     17  H   UNL     1      -1.331  11.621  24.185  0.00  0.00    +0.000 HD
ENDBRANCH   1  11
BRANCH   3  18
ATOM     18  C   UNL     1       2.538   7.139  18.272  0.00  0.00    +0.000 C 
BRANCH  18  19
ATOM     19  C   UNL     1       2.731   5.617  18.545  0.00  0.00    +0.000 C 
ATOM     20  C   UNL     1       1.757   4.732  17.727  0.00  0.00    +0.000 C 
ATOM     21  C   UNL     1       1.668   3.410  18.493  0.00  0.00    +0.000 C 
ATOM     22  C   UNL     1       2.038   3.728  19.940  0.00  0.00    +0.000 C 
ATOM     23  C   UNL     1       2.284   5.236  19.981  0.00  0.00    +0.000 C 
BRANCH  19  24
ATOM     24  C   UNL     1       4.197   5.249  18.208  0.00  0.00    +0.000 A 
ATOM     25  C   UNL     1       4.588   4.721  16.962  0.00  0.00    +0.000 A 
ATOM     26  C   UNL     1       5.920   4.392  16.697  0.00  0.00    +0.000 A 
ATOM     27  C   UNL     1       6.881   4.567  17.680  0.00  0.00    +0.000 A 
ATOM     28  F   UNL     1       8.155   4.242  17.429  0.00  0.00    +0.000 F 
ATOM     29  C   UNL     1       6.534   5.076  18.921  0.00  0.00    +0.000 A 
ATOM     30  C   UNL     1       5.206   5.421  19.181  0.00  0.00    +0.000 A 
ENDBRANCH  19  24
ENDBRANCH  18  19
ENDBRANCH   3  18
TORSDOF 4
ENDMDL
MODEL 4
REMARK VINA RESULT:      -8.7      0.786      1.217
REMARK  Name = 
REMARK  4 active torsions:
REMARK  status: ('A' for Active; 'I' for Inactive)
REMARK    1  A    between atoms: C_7  and  C_8
REMARK    2  A    between atoms: N_10  and  C_11
REMARK    3  A    between atoms: C_11  and  C_12
REMARK    4  A    between atoms: C_12  and  C_13
REMARK                            x       y       z     vdW  Elec       q    Type
REMARK                         _______ _______ _______ _____ _____    ______ ____
ROOT
ATOM      1  C   UNL     1       1.422   9.216  18.264  0.00  0.00    +0.000 C 
ATOM      2  O   UNL     1       2.277   9.612  17.480  0.00  0.00    +0.000 OA
ATOM      3  N   UNL     1       1.624   8.156  19.120  0.00  0.00    +0.000 N 
ATOM      4  H   UNL     1       0.859   7.862  19.715  0.00  0.00    +0.000 HD
ENDROOT
BRANCH   1  11
ATOM      5  O   UNL     1      -5.513  12.522  17.281  0.00  0.00    +0.000 OA
ATOM      6  C   UNL     1      -4.564  11.748  17.374  0.00  0.00    +0.000 C 
ATOM      7  C   UNL     1      -4.505  10.436  16.630  0.00  0.00    +0.000 C 
ATOM      8  C   UNL     1      -3.087  10.071  16.215  0.00  0.00    +0.000 C 
ATOM      9  C   UNL     1      -2.100  10.283  17.332  0.00  0.00    +0.000 A 
ATOM     10  C   UNL     1      -0.858   9.627  17.331  0.00  0.00    +0.000 A 
ATOM     11  C   UNL     1       0.093   9.894  18.331  0.00  0.00    +0.000 A 
ATOM     12  C   UNL     1      -0.229  10.819  19.328  0.00  0.00    +0.000 A 
ATOM     13  F   UNL     1       0.635  11.108  20.314  0.00  0.00    +0.000 F 
ATOM     14  C   UNL     1      -1.448  11.495  19.327  0.00  0.00    +0.000 A 
ATOM     15  C   UNL     1      -2.372  11.234  18.322  0.00  0.00    +0.000 A 
ATOM     16  N   UNL     1      -3.554  11.976  18.269  0.00  0.00    +0.000 N 
ATOM     17  H   UNL     1      -3.677  12.784  18.867  0.00  0.00    +0.000 HD
ENDBRANCH   1  11
BRANCH   3  18
ATOM     18  C   UNL     1       2.890   7.446  19.196  0.00  0.00    +0.000 C 
BRANCH  18  19
ATOM     19  C   UNL     1       2.817   5.921  18.882  0.00  0.00    +0.000 C 
ATOM     20  C   UNL     1       1.691   5.568  17.877  0.00  0.00    +0.000 C 
ATOM     21  C   UNL     1       1.383   4.089  18.114  0.00  0.00    +0.000 C 
ATOM     22  C   UNL     1       1.822   3.784  19.544  0.00  0.00    +0.000 C 
ATOM     23  C   UNL     1       2.329   5.110  20.111  0.00  0.00    +0.000 C 
BRANCH  19  24
ATOM     24  C   UNL     1       4.191   5.478  18.323  0.00  0.00    +0.000 A 
ATOM     25  C   UNL     1       4.413   5.212  16.957  0.00  0.00    +0.000 A 
ATOM     26  C   UNL     1       5.665   4.805  16.489  0.00  0.00    +0.000 A 
ATOM     27  C   UNL     1       6.712   4.637  17.382  0.00  0.00    +0.000 A 
ATOM     28  F   UNL     1       7.908   4.237  16.935  0.00  0.00    +0.000 F 
ATOM     29  C   UNL     1       6.530   4.880  18.735  0.00  0.00    +0.000 A 
ATOM     30  C   UNL     1       5.283   5.303  19.200  0.00  0.00    +0.000 A 
ENDBRANCH  19  24
ENDBRANCH  18  19
ENDBRANCH   3  18
TORSDOF 4
ENDMDL
MODEL 5
REMARK VINA RESULT:      -8.6      2.767      3.960
REMARK  Name = 
REMARK  4 active torsions:
REMARK  status: ('A' for Active; 'I' for Inactive)
REMARK    1  A    between atoms: C_7  and  C_8
REMARK    2  A    between atoms: N_10  and  C_11
REMARK    3  A    between atoms: C_11  and  C_12
REMARK    4  A    between atoms: C_12  and  C_13
REMARK                            x       y       z     vdW  Elec       q    Type
REMARK                         _______ _______ _______ _____ _____    ______ ____
ROOT
ATOM      1  C   UNL     1       1.963   9.019  18.334  0.00  0.00    +0.000 C 
ATOM      2  O   UNL     1       2.104   9.764  17.372  0.00  0.00    +0.000 OA
ATOM      3  N   UNL     1       2.580   7.791  18.429  0.00  0.00    +0.000 N 
ATOM      4  H   UNL     1       2.388   7.214  19.238  0.00  0.00    +0.000 HD
ENDROOT
BRANCH   1  11
ATOM      5  O   UNL     1      -2.413  12.391  23.763  0.00  0.00    +0.000 OA
ATOM      6  C   UNL     1      -1.954  11.916  22.728  0.00  0.00    +0.000 C 
ATOM      7  C   UNL     1      -2.370  12.392  21.357  0.00  0.00    +0.000 C 
ATOM      8  C   UNL     1      -1.226  12.337  20.355  0.00  0.00    +0.000 C 
ATOM      9  C   UNL     1      -0.463  11.042  20.440  0.00  0.00    +0.000 A 
ATOM     10  C   UNL     1       0.323  10.595  19.364  0.00  0.00    +0.000 A 
ATOM     11  C   UNL     1       1.100   9.430  19.482  0.00  0.00    +0.000 A 
ATOM     12  C   UNL     1       1.067   8.724  20.688  0.00  0.00    +0.000 A 
ATOM     13  F   UNL     1       1.780   7.599  20.855  0.00  0.00    +0.000 F 
ATOM     14  C   UNL     1       0.311   9.170  21.770  0.00  0.00    +0.000 A 
ATOM     15  C   UNL     1      -0.439  10.333  21.647  0.00  0.00    +0.000 A 
ATOM     16  N   UNL     1      -1.124  10.828  22.759  0.00  0.00    +0.000 N 
ATOM     17  H   UNL     1      -0.967  10.427  23.675  0.00  0.00    +0.000 HD
ENDBRANCH   1  11
BRANCH   3  18
ATOM     18  C   UNL     1       3.488   7.295  17.409  0.00  0.00    +0.000 C 
BRANCH  18  19
ATOM     19  C   UNL     1       4.154   5.921  17.721  0.00  0.00    +0.000 C 
ATOM     20  C   UNL     1       5.511   6.064  18.456  0.00  0.00    +0.000 C 
ATOM     21  C   UNL     1       6.264   4.762  18.177  0.00  0.00    +0.000 C 
ATOM     22  C   UNL     1       5.680   4.198  16.885  0.00  0.00    +0.000 C 
ATOM     23  C   UNL     1       4.636   5.216  16.425  0.00  0.00    +0.000 C 
BRANCH  19  24
ATOM     24  C   UNL     1       3.167   5.090  18.577  0.00  0.00    +0.000 A 
ATOM     25  C   UNL     1       3.275   4.977  19.977  0.00  0.00    +0.000 A 
ATOM     26  C   UNL     1       2.371   4.211  20.717  0.00  0.00    +0.000 A 
ATOM     27  C   UNL     1       1.354   3.528  20.067  0.00  0.00    +0.000 A 
ATOM     28  F   UNL     1       0.495   2.786  20.775  0.00  0.00    +0.000 F 
ATOM     29  C   UNL     1       1.221   3.607  18.690  0.00  0.00    +0.000 A 
ATOM     30  C   UNL     1       2.115   4.387  17.952  0.00  0.00    +0.000 A 
ENDBRANCH  19  24
ENDBRANCH  18  19
ENDBRANCH   3  18
TORSDOF 4
ENDMDL
MODEL 6
REMARK VINA RESULT:      -8.6      2.947      4.362
REMARK  Name = 
REMARK  4 active torsions:
REMARK  status: ('A' for Active; 'I' for Inactive)
REMARK    1  A    between atoms: C_7  and  C_8
REMARK    2  A    between atoms: N_10  and  C_11
REMARK    3  A    between atoms: C_11  and  C_12
REMARK    4  A    between atoms: C_12  and  C_13
REMARK                            x       y       z     vdW  Elec       q    Type
REMARK                         _______ _______ _______ _____ _____    ______ ____
ROOT
ATOM      1  C   UNL     1       2.954   6.228  19.169  0.00  0.00    +0.000 C 
ATOM      2  O   UNL     1       3.212   5.493  20.115  0.00  0.00    +0.000 OA
ATOM      3  N   UNL     1       3.321   5.939  17.873  0.00  0.00    +0.000 N 
ATOM      4  H   UNL     1       3.104   6.611  17.147  0.00  0.00    +0.000 HD
ENDROOT
BRANCH   1  11
ATOM      5  O   UNL     1      -1.664  12.099  21.217  0.00  0.00    +0.000 OA
ATOM      6  C   UNL     1      -0.821  11.208  21.166  0.00  0.00    +0.000 C 
ATOM      7  C   UNL     1      -0.310  10.497  22.396  0.00  0.00    +0.000 C 
ATOM      8  C   UNL     1       0.013   9.035  22.125  0.00  0.00    +0.000 C 
ATOM      9  C   UNL     1       0.786   8.856  20.845  0.00  0.00    +0.000 A 
ATOM     10  C   UNL     1       1.549   7.697  20.619  0.00  0.00    +0.000 A 
ATOM     11  C   UNL     1       2.198   7.498  19.389  0.00  0.00    +0.000 A 
ATOM     12  C   UNL     1       2.075   8.479  18.402  0.00  0.00    +0.000 A 
ATOM     13  F   UNL     1       2.681   8.348  17.211  0.00  0.00    +0.000 F 
ATOM     14  C   UNL     1       1.303   9.621  18.604  0.00  0.00    +0.000 A 
ATOM     15  C   UNL     1       0.651   9.797  19.819  0.00  0.00    +0.000 A 
ATOM     16  N   UNL     1      -0.195  10.895  19.989  0.00  0.00    +0.000 N 
ATOM     17  H   UNL     1      -0.441  11.479  19.198  0.00  0.00    +0.000 HD
ENDBRANCH   1  11
BRANCH   3  18
ATOM     18  C   UNL     1       4.010   4.711  17.514  0.00  0.00    +0.000 C 
BRANCH  18  19
ATOM     19  C   UNL     1       5.234   4.887  16.565  0.00  0.00    +0.000 C 
ATOM     20  C   UNL     1       4.844   5.472  15.184  0.00  0.00    +0.000 C 
ATOM     21  C   UNL     1       5.968   5.055  14.234  0.00  0.00    +0.000 C 
ATOM     22  C   UNL     1       6.609   3.813  14.848  0.00  0.00    +0.000 C 
ATOM     23  C   UNL     1       5.805   3.517  16.114  0.00  0.00    +0.000 C 
BRANCH  19  24
ATOM     24  C   UNL     1       6.258   5.812  17.267  0.00  0.00    +0.000 A 
ATOM     25  C   UNL     1       6.486   7.145  16.870  0.00  0.00    +0.000 A 
ATOM     26  C   UNL     1       7.425   7.948  17.521  0.00  0.00    +0.000 A 
ATOM     27  C   UNL     1       8.168   7.427  18.569  0.00  0.00    +0.000 A 
ATOM     28  F   UNL     1       9.076   8.193  19.185  0.00  0.00    +0.000 F 
ATOM     29  C   UNL     1       7.980   6.117  18.983  0.00  0.00    +0.000 A 
ATOM     30  C   UNL     1       7.029   5.319  18.342  0.00  0.00    +0.000 A 
ENDBRANCH  19  24
ENDBRANCH  18  19
ENDBRANCH   3  18
TORSDOF 4
ENDMDL
MODEL 7
REMARK VINA RESULT:      -8.5      2.697      3.086
REMARK  Name = 
REMARK  4 active torsions:
REMARK  status: ('A' for Active; 'I' for Inactive)
REMARK    1  A    between atoms: C_7  and  C_8
REMARK    2  A    between atoms: N_10  and  C_11
REMARK    3  A    between atoms: C_11  and  C_12
REMARK    4  A    between atoms: C_12  and  C_13
REMARK                            x       y       z     vdW  Elec       q    Type
REMARK                         _______ _______ _______ _____ _____    ______ ____
ROOT
ATOM      1  C   UNL     1       0.999   9.254  18.861  0.00  0.00    +0.000 C 
ATOM      2  O   UNL     1       0.632   9.422  17.703  0.00  0.00    +0.000 OA
ATOM      3  N   UNL     1       1.943   8.317  19.220  0.00  0.00    +0.000 N 
ATOM      4  H   UNL     1       2.171   8.210  20.200  0.00  0.00    +0.000 HD
ENDROOT
BRANCH   1  11
ATOM      5  O   UNL     1      -1.092  14.540  24.120  0.00  0.00    +0.000 OA
ATOM      6  C   UNL     1      -0.894  13.890  23.098  0.00  0.00    +0.000 C 
ATOM      7  C   UNL     1      -0.802  14.526  21.732  0.00  0.00    +0.000 C 
ATOM      8  C   UNL     1       0.187  13.808  20.826  0.00  0.00    +0.000 C 
ATOM      9  C   UNL     1       0.026  12.312  20.888  0.00  0.00    +0.000 A 
ATOM     10  C   UNL     1       0.506  11.491  19.854  0.00  0.00    +0.000 A 
ATOM     11  C   UNL     1       0.429  10.092  19.958  0.00  0.00    +0.000 A 
ATOM     12  C   UNL     1      -0.141   9.538  21.107  0.00  0.00    +0.000 A 
ATOM     13  F   UNL     1      -0.250   8.208  21.258  0.00  0.00    +0.000 F 
ATOM     14  C   UNL     1      -0.598  10.340  22.151  0.00  0.00    +0.000 A 
ATOM     15  C   UNL     1      -0.500  11.722  22.043  0.00  0.00    +0.000 A 
ATOM     16  N   UNL     1      -0.874  12.522  23.125  0.00  0.00    +0.000 N 
ATOM     17  H   UNL     1      -1.082  12.102  24.023  0.00  0.00    +0.000 HD
ENDBRANCH   1  11
BRANCH   3  18
ATOM     18  C   UNL     1       2.616   7.476  18.244  0.00  0.00    +0.000 C 
BRANCH  18  19
ATOM     19  C   UNL     1       2.713   5.966  18.620  0.00  0.00    +0.000 C 
ATOM     20  C   UNL     1       1.686   5.091  17.857  0.00  0.00    +0.000 C 
ATOM     21  C   UNL     1       1.512   3.832  18.708  0.00  0.00    +0.000 C 
ATOM     22  C   UNL     1       1.897   4.222  20.133  0.00  0.00    +0.000 C 
ATOM     23  C   UNL     1       2.238   5.712  20.075  0.00  0.00    +0.000 C 
BRANCH  19  24
ATOM     24  C   UNL     1       4.153   5.485  18.319  0.00  0.00    +0.000 A 
ATOM     25  C   UNL     1       5.186   5.512  19.276  0.00  0.00    +0.000 A 
ATOM     26  C   UNL     1       6.477   5.078  18.967  0.00  0.00    +0.000 A 
ATOM     27  C   UNL     1       6.763   4.627  17.687  0.00  0.00    +0.000 A 
ATOM     28  F   UNL     1       8.003   4.221  17.388  0.00  0.00    +0.000 F 
ATOM     29  C   UNL     1       5.776   4.593  16.715  0.00  0.00    +0.000 A 
ATOM     30  C   UNL     1       4.481   5.012  17.030  0.00  0.00    +0.000 A 
ENDBRANCH  19  24
ENDBRANCH  18  19
ENDBRANCH   3  18
TORSDOF 4
ENDMDL
MODEL 8
REMARK VINA RESULT:      -8.5      1.501      2.344
REMARK  Name = 
REMARK  4 active torsions:
REMARK  status: ('A' for Active; 'I' for Inactive)
REMARK    1  A    between atoms: C_7  and  C_8
REMARK    2  A    between atoms: N_10  and  C_11
REMARK    3  A    between atoms: C_11  and  C_12
REMARK    4  A    between atoms: C_12  and  C_13
REMARK                            x       y       z     vdW  Elec       q    Type
REMARK                         _______ _______ _______ _____ _____    ______ ____
ROOT
ATOM      1  C   UNL     1       1.578   9.736  18.118  0.00  0.00    +0.000 C 
ATOM      2  O   UNL     1       2.403  10.342  17.444  0.00  0.00    +0.000 OA
ATOM      3  N   UNL     1       1.658   8.383  18.362  0.00  0.00    +0.000 N 
ATOM      4  H   UNL     1       0.921   7.944  18.898  0.00  0.00    +0.000 HD
ENDROOT
BRANCH   1  11
ATOM      5  O   UNL     1      -3.700  13.405  22.438  0.00  0.00    +0.000 OA
ATOM      6  C   UNL     1      -2.703  13.070  21.805  0.00  0.00    +0.000 C 
ATOM      7  C   UNL     1      -1.322  13.589  22.123  0.00  0.00    +0.000 C 
ATOM      8  C   UNL     1      -0.241  12.549  21.865  0.00  0.00    +0.000 C 
ATOM      9  C   UNL     1      -0.435  11.847  20.547  0.00  0.00    +0.000 A 
ATOM     10  C   UNL     1       0.634  11.190  19.915  0.00  0.00    +0.000 A 
ATOM     11  C   UNL     1       0.427  10.466  18.729  0.00  0.00    +0.000 A 
ATOM     12  C   UNL     1      -0.862  10.421  18.191  0.00  0.00    +0.000 A 
ATOM     13  F   UNL     1      -1.118   9.752  17.054  0.00  0.00    +0.000 F 
ATOM     14  C   UNL     1      -1.935  11.048  18.820  0.00  0.00    +0.000 A 
ATOM     15  C   UNL     1      -1.720  11.746  20.002  0.00  0.00    +0.000 A 
ATOM     16  N   UNL     1      -2.810  12.297  20.680  0.00  0.00    +0.000 N 
ATOM     17  H   UNL     1      -3.755  12.075  20.393  0.00  0.00    +0.000 HD
ENDBRANCH   1  11
BRANCH   3  18
ATOM     18  C   UNL     1       2.757   7.566  17.873  0.00  0.00    +0.000 C 
BRANCH  18  19
ATOM     19  C   UNL     1       2.838   6.130  18.473  0.00  0.00    +0.000 C 
ATOM     20  C   UNL     1       1.800   5.161  17.853  0.00  0.00    +0.000 C 
ATOM     21  C   UNL     1       1.614   4.048  18.885  0.00  0.00    +0.000 C 
ATOM     22  C   UNL     1       2.007   4.646  20.234  0.00  0.00    +0.000 C 
ATOM     23  C   UNL     1       2.364   6.105  19.951  0.00  0.00    +0.000 C 
BRANCH  19  24
ATOM     24  C   UNL     1       4.272   5.594  18.248  0.00  0.00    +0.000 A 
ATOM     25  C   UNL     1       5.264   5.615  19.248  0.00  0.00    +0.000 A 
ATOM     26  C   UNL     1       6.552   5.130  19.006  0.00  0.00    +0.000 A 
ATOM     27  C   UNL     1       6.875   4.632  17.753  0.00  0.00    +0.000 A 
ATOM     28  F   UNL     1       8.112   4.177  17.518  0.00  0.00    +0.000 F 
ATOM     29  C   UNL     1       5.929   4.602  16.741  0.00  0.00    +0.000 A 
ATOM     30  C   UNL     1       4.637   5.072  16.988  0.00  0.00    +0.000 A 
ENDBRANCH  19  24
ENDBRANCH  18  19
ENDBRANCH   3  18
TORSDOF 4
ENDMDL
MODEL 9
REMARK VINA RESULT:      -8.5      3.070      8.897
REMARK  Name = 
REMARK  4 active torsions:
REMARK  status: ('A' for Active; 'I' for Inactive)
REMARK    1  A    between atoms: C_7  and  C_8
REMARK    2  A    between atoms: N_10  and  C_11
REMARK    3  A    between atoms: C_11  and  C_12
REMARK    4  A    between atoms: C_12  and  C_13
REMARK                            x       y       z     vdW  Elec       q    Type
REMARK                         _______ _______ _______ _____ _____    ______ ____
ROOT
ATOM      1  C   UNL     1       2.205   8.273  18.214  0.00  0.00    +0.000 C 
ATOM      2  O   UNL     1       1.901   8.634  17.083  0.00  0.00    +0.000 OA
ATOM      3  N   UNL     1       1.967   9.038  19.335  0.00  0.00    +0.000 N 
ATOM      4  H   UNL     1       2.278   8.690  20.233  0.00  0.00    +0.000 HD
ENDROOT
BRANCH   1  11
ATOM      5  O   UNL     1       5.125   1.506  20.594  0.00  0.00    +0.000 OA
ATOM      6  C   UNL     1       4.401   2.436  20.250  0.00  0.00    +0.000 C 
ATOM      7  C   UNL     1       2.979   2.585  20.732  0.00  0.00    +0.000 C 
ATOM      8  C   UNL     1       2.576   4.042  20.903  0.00  0.00    +0.000 C 
ATOM      9  C   UNL     1       3.008   4.888  19.734  0.00  0.00    +0.000 A 
ATOM     10  C   UNL     1       2.390   6.122  19.469  0.00  0.00    +0.000 A 
ATOM     11  C   UNL     1       2.854   6.945  18.429  0.00  0.00    +0.000 A 
ATOM     12  C   UNL     1       3.937   6.505  17.662  0.00  0.00    +0.000 A 
ATOM     13  F   UNL     1       4.417   7.245  16.649  0.00  0.00    +0.000 F 
ATOM     14  C   UNL     1       4.574   5.295  17.930  0.00  0.00    +0.000 A 
ATOM     15  C   UNL     1       4.116   4.499  18.973  0.00  0.00    +0.000 A 
ATOM     16  N   UNL     1       4.810   3.332  19.299  0.00  0.00    +0.000 N 
ATOM     17  H   UNL     1       5.710   3.137  18.877  0.00  0.00    +0.000 HD
ENDBRANCH   1  11
BRANCH   3  18
ATOM     18  C   UNL     1       1.292  10.323  19.272  0.00  0.00    +0.000 C 
BRANCH  18  19
ATOM     19  C   UNL     1       0.107  10.504  20.269  0.00  0.00    +0.000 C 
ATOM     20  C   UNL     1       0.332  11.672  21.263  0.00  0.00    +0.000 C 
ATOM     21  C   UNL     1      -0.566  11.363  22.462  0.00  0.00    +0.000 C 
ATOM     22  C   UNL     1      -0.790   9.853  22.452  0.00  0.00    +0.000 C 
ATOM     23  C   UNL     1       0.025   9.323  21.272  0.00  0.00    +0.000 C 
BRANCH  19  24
ATOM     24  C   UNL     1      -1.183  10.742  19.447  0.00  0.00    +0.000 A 
ATOM     25  C   UNL     1      -2.048  11.830  19.677  0.00  0.00    +0.000 A 
ATOM     26  C   UNL     1      -3.209  12.008  18.921  0.00  0.00    +0.000 A 
ATOM     27  C   UNL     1      -3.536  11.091  17.935  0.00  0.00    +0.000 A 
ATOM     28  F   UNL     1      -4.654  11.256  17.218  0.00  0.00    +0.000 F 
ATOM     29  C   UNL     1      -2.715  10.003  17.685  0.00  0.00    +0.000 A 
ATOM     30  C   UNL     1      -1.545   9.833  18.429  0.00  0.00    +0.000 A 
ENDBRANCH  19  24
ENDBRANCH  18  19
ENDBRANCH   3  18
TORSDOF 4
ENDMDL
