MODEL 1
REMARK VINA RESULT:      -9.2      0.000      0.000
REMARK  Name = 
REMARK  6 active torsions:
REMARK  status: ('A' for Active; 'I' for Inactive)
REMARK    1  A    between atoms: C_1  and  C_2
REMARK    2  A    between atoms: C_4  and  C_5
REMARK    3  A    between atoms: N_7  and  C_8
REMARK    4  A    between atoms: C_12  and  O_13
REMARK    5  A    between atoms: O_13  and  C_14
REMARK    6  A    between atoms: N_24  and  C_25
REMARK                            x       y       z     vdW  Elec       q    Type
REMARK                         _______ _______ _______ _____ _____    ______ ____
ROOT
ATOM      1  C   UNL     1       1.658   7.422  20.152  0.00  0.00    +0.000 C 
ATOM      2  O   UNL     1       1.443   6.582  21.022  0.00  0.00    +0.000 OA
ATOM      3  N   UNL     1       2.361   7.205  18.986  0.00  0.00    +0.000 N 
ATOM      4  H   UNL     1       2.627   8.014  18.426  0.00  0.00    +0.000 HD
ENDROOT
BRANCH   1   8
ATOM      5  C   UNL     1      -0.933  10.412  23.163  0.00  0.00    +0.000 C 
ATOM      6  C   UNL     1      -0.225  10.197  21.856  0.00  0.00    +0.000 A 
ATOM      7  C   UNL     1       0.377   8.965  21.583  0.00  0.00    +0.000 A 
ATOM      8  C   UNL     1       1.061   8.767  20.372  0.00  0.00    +0.000 A 
ATOM      9  C   UNL     1       1.105   9.843  19.516  0.00  0.00    +0.000 A 
ATOM     10  C   UNL     1       1.764  10.097  18.235  0.00  0.00    +0.000 A 
ATOM     11  O   UNL     1       2.307   9.268  17.537  0.00  0.00    +0.000 OA
ATOM     12  N   UNL     1       1.573  11.440  17.947  0.00  0.00    +0.000 N 
ATOM     13  N   UNL     1       0.526  11.933  18.739  0.00  0.00    +0.000 N 
ATOM     14  C   UNL     1       0.380  13.349  18.978  0.00  0.00    +0.000 C 
ATOM     15  C   UNL     1       0.443  11.030  19.823  0.00  0.00    +0.000 A 
ATOM     16  N   UNL     1      -0.211  11.234  20.980  0.00  0.00    +0.000 NA
ATOM     17  H   UNL     1       1.661  11.762  16.989  0.00  0.00    +0.000 HD
ENDBRANCH   1   8
BRANCH   3  18
ATOM     18  C   UNL     1       2.891   5.974  18.536  0.00  0.00    +0.000 A 
ATOM     19  C   UNL     1       2.154   5.030  17.818  0.00  0.00    +0.000 A 
ATOM     20  C   UNL     1       2.741   3.827  17.422  0.00  0.00    +0.000 A 
ATOM     21  C   UNL     1       4.073   3.568  17.737  0.00  0.00    +0.000 A 
ATOM     22  C   UNL     1       4.833   4.512  18.432  0.00  0.00    +0.000 A 
ATOM     23  C   UNL     1       4.239   5.712  18.829  0.00  0.00    +0.000 A 
BRANCH  22  24
ATOM     24  O   UNL     1       6.121   4.135  18.696  0.00  0.00    +0.000 OA
BRANCH  24  25
ATOM     25  C   UNL     1       7.178   4.932  18.164  0.00  0.00    +0.000 C 
ATOM     26  C   UNL     1       7.814   5.823  19.230  0.00  0.00    +0.000 C 
ATOM     27  C   UNL     1       8.167   7.139  18.550  0.00  0.00    +0.000 C 
ATOM     28  C   UNL     1       7.501   7.128  17.182  0.00  0.00    +0.000 C 
ATOM     29  C   UNL     1       6.577   5.922  17.166  0.00  0.00    +0.000 C 
ENDBRANCH  24  25
ENDBRANCH  22  24
ENDBRANCH   3  18
TORSDOF 4
ENDMDL
MODEL 2
REMARK VINA RESULT:      -9.2      0.896      1.061
REMARK  Name = 
REMARK  6 active torsions:
REMARK  status: ('A' for Active; 'I' for Inactive)
REMARK    1  A    between atoms: C_1  and  C_2
REMARK    2  A    between atoms: C_4  and  C_5
REMARK    3  A    between atoms: N_7  and  C_8
REMARK    4  A    between atoms: C_12  and  O_13
REMARK    5  A    between atoms: O_13  and  C_14
REMARK    6  A    between atoms: N_24  and  C_25
REMARK                            x       y       z     vdW  Elec       q    Type
REMARK                         _______ _______ _______ _____ _____    ______ ____
ROOT
ATOM      1  C   UNL     1       2.070   7.175  19.814  0.00  0.00    +0.000 C 
ATOM      2  O   UNL     1       2.136   6.291  20.663  0.00  0.00    +0.000 OA
ATOM      3  N   UNL     1       2.526   7.075  18.516  0.00  0.00    +0.000 N 
ATOM      4  H   UNL     1       2.579   7.924  17.957  0.00  0.00    +0.000 HD
ENDROOT
BRANCH   1   8
ATOM      5  C   UNL     1      -0.350   9.660  23.376  0.00  0.00    +0.000 C 
ATOM      6  C   UNL     1       0.197   9.615  21.978  0.00  0.00    +0.000 A 
ATOM      7  C   UNL     1       0.861   8.472  21.524  0.00  0.00    +0.000 A 
ATOM      8  C   UNL     1       1.395   8.435  20.225  0.00  0.00    +0.000 A 
ATOM      9  C   UNL     1       1.235   9.574  19.469  0.00  0.00    +0.000 A 
ATOM     10  C   UNL     1       1.697   9.989  18.146  0.00  0.00    +0.000 A 
ATOM     11  O   UNL     1       2.213   9.272  17.315  0.00  0.00    +0.000 OA
ATOM     12  N   UNL     1       1.357  11.326  18.004  0.00  0.00    +0.000 N 
ATOM     13  N   UNL     1       0.385  11.653  18.960  0.00  0.00    +0.000 N 
ATOM     14  C   UNL     1       0.152  13.026  19.341  0.00  0.00    +0.000 C 
ATOM     15  C   UNL     1       0.520  10.665  19.961  0.00  0.00    +0.000 A 
ATOM     16  N   UNL     1       0.009  10.714  21.203  0.00  0.00    +0.000 NA
ATOM     17  H   UNL     1       1.291  11.728  17.075  0.00  0.00    +0.000 HD
ENDBRANCH   1   8
BRANCH   3  18
ATOM     18  C   UNL     1       3.074   5.926  17.901  0.00  0.00    +0.000 A 
ATOM     19  C   UNL     1       2.441   4.682  17.879  0.00  0.00    +0.000 A 
ATOM     20  C   UNL     1       3.053   3.587  17.265  0.00  0.00    +0.000 A 
ATOM     21  C   UNL     1       4.300   3.737  16.664  0.00  0.00    +0.000 A 
ATOM     22  C   UNL     1       4.937   4.980  16.653  0.00  0.00    +0.000 A 
ATOM     23  C   UNL     1       4.322   6.071  17.272  0.00  0.00    +0.000 A 
BRANCH  22  24
ATOM     24  O   UNL     1       6.164   4.995  16.048  0.00  0.00    +0.000 OA
BRANCH  24  25
ATOM     25  C   UNL     1       7.302   5.328  16.843  0.00  0.00    +0.000 C 
ATOM     26  C   UNL     1       7.203   4.750  18.254  0.00  0.00    +0.000 C 
ATOM     27  C   UNL     1       7.812   5.779  19.195  0.00  0.00    +0.000 C 
ATOM     28  C   UNL     1       8.013   7.056  18.391  0.00  0.00    +0.000 C 
ATOM     29  C   UNL     1       7.307   6.841  17.063  0.00  0.00    +0.000 C 
ENDBRANCH  24  25
ENDBRANCH  22  24
ENDBRANCH   3  18
TORSDOF 4
ENDMDL
MODEL 3
REMARK VINA RESULT:      -9.2      2.323      2.854
REMARK  Name = 
REMARK  6 active torsions:
REMARK  status: ('A' for Active; 'I' for Inactive)
REMARK    1  A    between atoms: C_1  and  C_2
REMARK    2  A    between atoms: C_4  and  C_5
REMARK    3  A    between atoms: N_7  and  C_8
REMARK    4  A    between atoms: C_12  and  O_13
REMARK    5  A    between atoms: O_13  and  C_14
REMARK    6  A    between atoms: N_24  and  C_25
REMARK                            x       y       z     vdW  Elec       q    Type
REMARK                         _______ _______ _______ _____ _____    ______ ____
ROOT
ATOM      1  C   UNL     1       2.275   7.065  19.705  0.00  0.00    +0.000 C 
ATOM      2  O   UNL     1       1.808   5.988  20.064  0.00  0.00    +0.000 OA
ATOM      3  N   UNL     1       3.363   7.229  18.874  0.00  0.00    +0.000 N 
ATOM      4  H   UNL     1       3.766   8.161  18.787  0.00  0.00    +0.000 HD
ENDROOT
BRANCH   1   8
ATOM      5  C   UNL     1      -0.026   9.379  23.456  0.00  0.00    +0.000 C 
ATOM      6  C   UNL     1       0.426   9.379  22.024  0.00  0.00    +0.000 A 
ATOM      7  C   UNL     1       1.117   8.278  21.510  0.00  0.00    +0.000 A 
ATOM      8  C   UNL     1       1.563   8.282  20.179  0.00  0.00    +0.000 A 
ATOM      9  C   UNL     1       1.292   9.419  19.451  0.00  0.00    +0.000 A 
ATOM     10  C   UNL     1       1.641   9.872  18.105  0.00  0.00    +0.000 A 
ATOM     11  O   UNL     1       2.137   9.193  17.231  0.00  0.00    +0.000 OA
ATOM     12  N   UNL     1       1.222  11.190  18.005  0.00  0.00    +0.000 N 
ATOM     13  N   UNL     1       0.300  11.455  19.029  0.00  0.00    +0.000 N 
ATOM     14  C   UNL     1       0.021  12.809  19.444  0.00  0.00    +0.000 C 
ATOM     15  C   UNL     1       0.556  10.465  20.004  0.00  0.00    +0.000 A 
ATOM     16  N   UNL     1       0.128  10.474  21.279  0.00  0.00    +0.000 NA
ATOM     17  H   UNL     1       1.072  11.598  17.089  0.00  0.00    +0.000 HD
ENDBRANCH   1   8
BRANCH   3  18
ATOM     18  C   UNL     1       4.088   6.206  18.220  0.00  0.00    +0.000 A 
ATOM     19  C   UNL     1       4.332   4.951  18.781  0.00  0.00    +0.000 A 
ATOM     20  C   UNL     1       5.072   3.996  18.081  0.00  0.00    +0.000 A 
ATOM     21  C   UNL     1       5.564   4.292  16.812  0.00  0.00    +0.000 A 
ATOM     22  C   UNL     1       5.307   5.534  16.225  0.00  0.00    +0.000 A 
ATOM     23  C   UNL     1       4.570   6.487  16.931  0.00  0.00    +0.000 A 
BRANCH  22  24
ATOM     24  O   UNL     1       5.857   5.711  14.985  0.00  0.00    +0.000 OA
BRANCH  24  25
ATOM     25  C   UNL     1       6.345   4.560  14.296  0.00  0.00    +0.000 C 
ATOM     26  C   UNL     1       7.411   4.922  13.263  0.00  0.00    +0.000 C 
ATOM     27  C   UNL     1       7.203   3.996  12.073  0.00  0.00    +0.000 C 
ATOM     28  C   UNL     1       5.870   3.293  12.282  0.00  0.00    +0.000 C 
ATOM     29  C   UNL     1       5.203   3.981  13.461  0.00  0.00    +0.000 C 
ENDBRANCH  24  25
ENDBRANCH  22  24
ENDBRANCH   3  18
TORSDOF 4
ENDMDL
MODEL 4
REMARK VINA RESULT:      -9.1      1.726      3.319
REMARK  Name = 
REMARK  6 active torsions:
REMARK  status: ('A' for Active; 'I' for Inactive)
REMARK    1  A    between atoms: C_1  and  C_2
REMARK    2  A    between atoms: C_4  and  C_5
REMARK    3  A    between atoms: N_7  and  C_8
REMARK    4  A    between atoms: C_12  and  O_13
REMARK    5  A    between atoms: O_13  and  C_14
REMARK    6  A    between atoms: N_24  and  C_25
REMARK                            x       y       z     vdW  Elec       q    Type
REMARK                         _______ _______ _______ _____ _____    ______ ____
ROOT
ATOM      1  C   UNL     1       1.887   7.561  19.872  0.00  0.00    +0.000 C 
ATOM      2  O   UNL     1       1.823   6.643  20.684  0.00  0.00    +0.000 OA
ATOM      3  N   UNL     1       2.505   7.500  18.641  0.00  0.00    +0.000 N 
ATOM      4  H   UNL     1       2.648   8.369  18.129  0.00  0.00    +0.000 HD
ENDROOT
BRANCH   1   8
ATOM      5  C   UNL     1      -0.747  10.038  23.285  0.00  0.00    +0.000 C 
ATOM      6  C   UNL     1      -0.112   9.998  21.924  0.00  0.00    +0.000 A 
ATOM      7  C   UNL     1       0.575   8.855  21.508  0.00  0.00    +0.000 A 
ATOM      8  C   UNL     1       1.190   8.821  20.245  0.00  0.00    +0.000 A 
ATOM      9  C   UNL     1       1.083   9.965  19.486  0.00  0.00    +0.000 A 
ATOM     10  C   UNL     1       1.629  10.384  18.197  0.00  0.00    +0.000 A 
ATOM     11  O   UNL     1       2.194   9.669  17.397  0.00  0.00    +0.000 OA
ATOM     12  N   UNL     1       1.303  11.722  18.040  0.00  0.00    +0.000 N 
ATOM     13  N   UNL     1       0.273  12.049  18.934  0.00  0.00    +0.000 N 
ATOM     14  C   UNL     1       0.020  13.421  19.306  0.00  0.00    +0.000 C 
ATOM     15  C   UNL     1       0.341  11.056  19.937  0.00  0.00    +0.000 A 
ATOM     16  N   UNL     1      -0.248  11.101  21.145  0.00  0.00    +0.000 NA
ATOM     17  H   UNL     1       1.297  12.129  17.111  0.00  0.00    +0.000 HD
ENDBRANCH   1   8
BRANCH   3  18
ATOM     18  C   UNL     1       3.104   6.362  18.053  0.00  0.00    +0.000 A 
ATOM     19  C   UNL     1       4.303   6.399  17.339  0.00  0.00    +0.000 A 
ATOM     20  C   UNL     1       4.825   5.234  16.772  0.00  0.00    +0.000 A 
ATOM     21  C   UNL     1       4.151   4.026  16.926  0.00  0.00    +0.000 A 
ATOM     22  C   UNL     1       2.964   3.964  17.660  0.00  0.00    +0.000 A 
ATOM     23  C   UNL     1       2.444   5.133  18.221  0.00  0.00    +0.000 A 
BRANCH  22  24
ATOM     24  O   UNL     1       2.388   2.725  17.724  0.00  0.00    +0.000 OA
BRANCH  24  25
ATOM     25  C   UNL     1       2.109   2.180  19.013  0.00  0.00    +0.000 C 
ATOM     26  C   UNL     1       0.891   2.836  19.660  0.00  0.00    +0.000 C 
ATOM     27  C   UNL     1       1.185   2.937  21.150  0.00  0.00    +0.000 C 
ATOM     28  C   UNL     1       2.657   2.602  21.339  0.00  0.00    +0.000 C 
ATOM     29  C   UNL     1       3.264   2.542  19.947  0.00  0.00    +0.000 C 
ENDBRANCH  24  25
ENDBRANCH  22  24
ENDBRANCH   3  18
TORSDOF 4
ENDMDL
MODEL 5
REMARK VINA RESULT:      -9.1      1.929      4.234
REMARK  Name = 
REMARK  6 active torsions:
REMARK  status: ('A' for Active; 'I' for Inactive)
REMARK    1  A    between atoms: C_1  and  C_2
REMARK    2  A    between atoms: C_4  and  C_5
REMARK    3  A    between atoms: N_7  and  C_8
REMARK    4  A    between atoms: C_12  and  O_13
REMARK    5  A    between atoms: O_13  and  C_14
REMARK    6  A    between atoms: N_24  and  C_25
REMARK                            x       y       z     vdW  Elec       q    Type
REMARK                         _______ _______ _______ _____ _____    ______ ____
ROOT
ATOM      1  C   UNL     1       1.829   8.810  18.349  0.00  0.00    +0.000 C 
ATOM      2  O   UNL     1       1.820   9.015  17.138  0.00  0.00    +0.000 OA
ATOM      3  N   UNL     1       2.336   7.687  18.968  0.00  0.00    +0.000 N 
ATOM      4  H   UNL     1       2.131   7.547  19.956  0.00  0.00    +0.000 HD
ENDROOT
BRANCH   1   8
ATOM      5  C   UNL     1       1.063  13.687  18.938  0.00  0.00    +0.000 C 
ATOM      6  C   UNL     1       0.946  12.289  19.473  0.00  0.00    +0.000 A 
ATOM      7  C   UNL     1       1.417  11.211  18.719  0.00  0.00    +0.000 A 
ATOM      8  C   UNL     1       1.287   9.899  19.205  0.00  0.00    +0.000 A 
ATOM      9  C   UNL     1       0.669   9.762  20.427  0.00  0.00    +0.000 A 
ATOM     10  C   UNL     1       0.259   8.616  21.237  0.00  0.00    +0.000 A 
ATOM     11  O   UNL     1       0.571   7.460  21.043  0.00  0.00    +0.000 OA
ATOM     12  N   UNL     1      -0.477   9.118  22.298  0.00  0.00    +0.000 N 
ATOM     13  N   UNL     1      -0.220  10.491  22.423  0.00  0.00    +0.000 N 
ATOM     14  C   UNL     1      -1.133  11.355  23.133  0.00  0.00    +0.000 C 
ATOM     15  C   UNL     1       0.266  10.880  21.155  0.00  0.00    +0.000 A 
ATOM     16  N   UNL     1       0.380  12.140  20.698  0.00  0.00    +0.000 NA
ATOM     17  H   UNL     1      -0.590   8.559  23.137  0.00  0.00    +0.000 HD
ENDBRANCH   1   8
BRANCH   3  18
ATOM     18  C   UNL     1       3.004   6.609  18.344  0.00  0.00    +0.000 A 
ATOM     19  C   UNL     1       4.225   6.735  17.678  0.00  0.00    +0.000 A 
ATOM     20  C   UNL     1       4.818   5.627  17.070  0.00  0.00    +0.000 A 
ATOM     21  C   UNL     1       4.192   4.384  17.134  0.00  0.00    +0.000 A 
ATOM     22  C   UNL     1       2.984   4.233  17.818  0.00  0.00    +0.000 A 
ATOM     23  C   UNL     1       2.394   5.346  18.420  0.00  0.00    +0.000 A 
BRANCH  22  24
ATOM     24  O   UNL     1       2.461   2.969  17.795  0.00  0.00    +0.000 OA
BRANCH  24  25
ATOM     25  C   UNL     1       2.182   2.334  19.042  0.00  0.00    +0.000 C 
ATOM     26  C   UNL     1       0.936   2.911  19.711  0.00  0.00    +0.000 C 
ATOM     27  C   UNL     1       1.206   2.925  21.209  0.00  0.00    +0.000 C 
ATOM     28  C   UNL     1       2.685   2.621  21.398  0.00  0.00    +0.000 C 
ATOM     29  C   UNL     1       3.312   2.668  20.014  0.00  0.00    +0.000 C 
ENDBRANCH  24  25
ENDBRANCH  22  24
ENDBRANCH   3  18
TORSDOF 4
ENDMDL
MODEL 6
REMARK VINA RESULT:      -9.0      1.590      2.053
REMARK  Name = 
REMARK  6 active torsions:
REMARK  status: ('A' for Active; 'I' for Inactive)
REMARK    1  A    between atoms: C_1  and  C_2
REMARK    2  A    between atoms: C_4  and  C_5
REMARK    3  A    between atoms: N_7  and  C_8
REMARK    4  A    between atoms: C_12  and  O_13
REMARK    5  A    between atoms: O_13  and  C_14
REMARK    6  A    between atoms: N_24  and  C_25
REMARK                            x       y       z     vdW  Elec       q    Type
REMARK                         _______ _______ _______ _____ _____    ______ ____
ROOT
ATOM      1  C   UNL     1       2.063   7.373  19.864  0.00  0.00    +0.000 C 
ATOM      2  O   UNL     1       2.810   7.492  18.897  0.00  0.00    +0.000 OA
ATOM      3  N   UNL     1       1.889   6.225  20.606  0.00  0.00    +0.000 N 
ATOM      4  H   UNL     1       1.118   6.192  21.270  0.00  0.00    +0.000 HD
ENDROOT
BRANCH   1   8
ATOM      5  C   UNL     1      -0.442   9.735  23.451  0.00  0.00    +0.000 C 
ATOM      6  C   UNL     1       0.093   9.718  22.048  0.00  0.00    +0.000 A 
ATOM      7  C   UNL     1       0.807   8.609  21.586  0.00  0.00    +0.000 A 
ATOM      8  C   UNL     1       1.329   8.598  20.283  0.00  0.00    +0.000 A 
ATOM      9  C   UNL     1       1.106   9.728  19.529  0.00  0.00    +0.000 A 
ATOM     10  C   UNL     1       1.533  10.166  18.201  0.00  0.00    +0.000 A 
ATOM     11  O   UNL     1       2.075   9.475  17.364  0.00  0.00    +0.000 OA
ATOM     12  N   UNL     1       1.125  11.483  18.063  0.00  0.00    +0.000 N 
ATOM     13  N   UNL     1       0.147  11.762  19.029  0.00  0.00    +0.000 N 
ATOM     14  C   UNL     1      -0.150  13.122  19.413  0.00  0.00    +0.000 C 
ATOM     15  C   UNL     1       0.342  10.782  20.028  0.00  0.00    +0.000 A 
ATOM     16  N   UNL     1      -0.158  10.806  21.276  0.00  0.00    +0.000 NA
ATOM     17  H   UNL     1       1.030  11.882  17.135  0.00  0.00    +0.000 HD
ENDBRANCH   1   8
BRANCH   3  18
ATOM     18  C   UNL     1       2.587   5.005  20.449  0.00  0.00    +0.000 A 
ATOM     19  C   UNL     1       2.197   3.807  21.049  0.00  0.00    +0.000 A 
ATOM     20  C   UNL     1       2.948   2.644  20.861  0.00  0.00    +0.000 A 
ATOM     21  C   UNL     1       4.089   2.677  20.064  0.00  0.00    +0.000 A 
ATOM     22  C   UNL     1       4.479   3.861  19.434  0.00  0.00    +0.000 A 
ATOM     23  C   UNL     1       3.727   5.021  19.629  0.00  0.00    +0.000 A 
BRANCH  22  24
ATOM     24  O   UNL     1       5.625   3.770  18.693  0.00  0.00    +0.000 OA
BRANCH  24  25
ATOM     25  C   UNL     1       5.726   4.561  17.510  0.00  0.00    +0.000 C 
ATOM     26  C   UNL     1       4.947   3.950  16.346  0.00  0.00    +0.000 C 
ATOM     27  C   UNL     1       5.758   4.218  15.085  0.00  0.00    +0.000 C 
ATOM     28  C   UNL     1       7.120   4.729  15.531  0.00  0.00    +0.000 C 
ATOM     29  C   UNL     1       7.179   4.534  17.037  0.00  0.00    +0.000 C 
ENDBRANCH  24  25
ENDBRANCH  22  24
ENDBRANCH   3  18
TORSDOF 4
ENDMDL
MODEL 7
REMARK VINA RESULT:      -9.0      1.910      2.390
REMARK  Name = 
REMARK  6 active torsions:
REMARK  status: ('A' for Active; 'I' for Inactive)
REMARK    1  A    between atoms: C_1  and  C_2
REMARK    2  A    between atoms: C_4  and  C_5
REMARK    3  A    between atoms: N_7  and  C_8
REMARK    4  A    between atoms: C_12  and  O_13
REMARK    5  A    between atoms: O_13  and  C_14
REMARK    6  A    between atoms: N_24  and  C_25
REMARK                            x       y       z     vdW  Elec       q    Type
REMARK                         _______ _______ _______ _____ _____    ______ ____
ROOT
ATOM      1  C   UNL     1       1.942   6.889  19.835  0.00  0.00    +0.000 C 
ATOM      2  O   UNL     1       1.878   6.034  20.714  0.00  0.00    +0.000 OA
ATOM      3  N   UNL     1       2.415   6.688  18.555  0.00  0.00    +0.000 N 
ATOM      4  H   UNL     1       2.584   7.505  17.971  0.00  0.00    +0.000 HD
ENDROOT
BRANCH   1   8
ATOM      5  C   UNL     1      -0.227   9.778  23.251  0.00  0.00    +0.000 C 
ATOM      6  C   UNL     1       0.335   9.615  21.868  0.00  0.00    +0.000 A 
ATOM      7  C   UNL     1       0.865   8.385  21.470  0.00  0.00    +0.000 A 
ATOM      8  C   UNL     1       1.413   8.234  20.186  0.00  0.00    +0.000 A 
ATOM      9  C   UNL     1       1.403   9.354  19.385  0.00  0.00    +0.000 A 
ATOM     10  C   UNL     1       1.934   9.660  18.058  0.00  0.00    +0.000 A 
ATOM     11  O   UNL     1       2.375   8.856  17.265  0.00  0.00    +0.000 OA
ATOM     12  N   UNL     1       1.757  11.021  17.860  0.00  0.00    +0.000 N 
ATOM     13  N   UNL     1       0.814  11.498  18.783  0.00  0.00    +0.000 N 
ATOM     14  C   UNL     1       0.739  12.902  19.108  0.00  0.00    +0.000 C 
ATOM     15  C   UNL     1       0.814  10.540  19.821  0.00  0.00    +0.000 A 
ATOM     16  N   UNL     1       0.291  10.698  21.050  0.00  0.00    +0.000 NA
ATOM     17  H   UNL     1       1.756  11.392  16.916  0.00  0.00    +0.000 HD
ENDBRANCH   1   8
BRANCH   3  18
ATOM     18  C   UNL     1       2.836   5.461  17.994  0.00  0.00    +0.000 A 
ATOM     19  C   UNL     1       2.097   4.279  18.075  0.00  0.00    +0.000 A 
ATOM     20  C   UNL     1       2.586   3.099  17.509  0.00  0.00    +0.000 A 
ATOM     21  C   UNL     1       3.815   3.102  16.853  0.00  0.00    +0.000 A 
ATOM     22  C   UNL     1       4.555   4.281  16.740  0.00  0.00    +0.000 A 
ATOM     23  C   UNL     1       4.063   5.457  17.311  0.00  0.00    +0.000 A 
BRANCH  22  24
ATOM     24  O   UNL     1       5.751   4.151  16.090  0.00  0.00    +0.000 OA
BRANCH  24  25
ATOM     25  C   UNL     1       5.867   4.701  14.777  0.00  0.00    +0.000 C 
ATOM     26  C   UNL     1       5.578   3.662  13.695  0.00  0.00    +0.000 C 
ATOM     27  C   UNL     1       6.527   3.953  12.541  0.00  0.00    +0.000 C 
ATOM     28  C   UNL     1       7.543   4.968  13.044  0.00  0.00    +0.000 C 
ATOM     29  C   UNL     1       7.328   5.082  14.544  0.00  0.00    +0.000 C 
ENDBRANCH  24  25
ENDBRANCH  22  24
ENDBRANCH   3  18
TORSDOF 4
ENDMDL
MODEL 8
REMARK VINA RESULT:      -9.0      2.897      8.440
REMARK  Name = 
REMARK  6 active torsions:
REMARK  status: ('A' for Active; 'I' for Inactive)
REMARK    1  A    between atoms: C_1  and  C_2
REMARK    2  A    between atoms: C_4  and  C_5
REMARK    3  A    between atoms: N_7  and  C_8
REMARK    4  A    between atoms: C_12  and  O_13
REMARK    5  A    between atoms: O_13  and  C_14
REMARK    6  A    between atoms: N_24  and  C_25
REMARK                            x       y       z     vdW  Elec       q    Type
REMARK                         _______ _______ _______ _____ _____    ______ ____
ROOT
ATOM      1  C   UNL     1       2.594   7.026  19.139  0.00  0.00    +0.000 C 
ATOM      2  O   UNL     1       2.132   7.379  18.058  0.00  0.00    +0.000 OA
ATOM      3  N   UNL     1       2.268   7.568  20.365  0.00  0.00    +0.000 N 
ATOM      4  H   UNL     1       2.840   7.318  21.169  0.00  0.00    +0.000 HD
ENDROOT
BRANCH   1   8
ATOM      5  C   UNL     1       6.961   5.254  17.555  0.00  0.00    +0.000 C 
ATOM      6  C   UNL     1       5.675   5.039  18.301  0.00  0.00    +0.000 A 
ATOM      7  C   UNL     1       4.738   6.072  18.390  0.00  0.00    +0.000 A 
ATOM      8  C   UNL     1       3.546   5.883  19.107  0.00  0.00    +0.000 A 
ATOM      9  C   UNL     1       3.385   4.655  19.707  0.00  0.00    +0.000 A 
ATOM     10  C   UNL     1       2.375   4.081  20.595  0.00  0.00    +0.000 A 
ATOM     11  O   UNL     1       1.296   4.569  20.856  0.00  0.00    +0.000 OA
ATOM     12  N   UNL     1       2.856   2.847  21.005  0.00  0.00    +0.000 N 
ATOM     13  N   UNL     1       3.886   2.449  20.140  0.00  0.00    +0.000 N 
ATOM     14  C   UNL     1       4.848   1.450  20.543  0.00  0.00    +0.000 C 
ATOM     15  C   UNL     1       4.333   3.647  19.541  0.00  0.00    +0.000 A 
ATOM     16  N   UNL     1       5.481   3.817  18.861  0.00  0.00    +0.000 NA
ATOM     17  H   UNL     1       2.209   2.150  21.356  0.00  0.00    +0.000 HD
ENDBRANCH   1   8
BRANCH   3  18
ATOM     18  C   UNL     1       1.296   8.563  20.616  0.00  0.00    +0.000 A 
ATOM     19  C   UNL     1       0.863   8.918  21.894  0.00  0.00    +0.000 A 
ATOM     20  C   UNL     1      -0.115   9.901  22.063  0.00  0.00    +0.000 A 
ATOM     21  C   UNL     1      -0.656  10.538  20.950  0.00  0.00    +0.000 A 
ATOM     22  C   UNL     1      -0.216  10.215  19.664  0.00  0.00    +0.000 A 
ATOM     23  C   UNL     1       0.759   9.229  19.501  0.00  0.00    +0.000 A 
BRANCH  22  24
ATOM     24  O   UNL     1      -0.835  10.897  18.653  0.00  0.00    +0.000 OA
BRANCH  24  25
ATOM     25  C   UNL     1      -2.102  10.422  18.199  0.00  0.00    +0.000 C 
ATOM     26  C   UNL     1      -2.057   9.983  16.736  0.00  0.00    +0.000 C 
ATOM     27  C   UNL     1      -3.391  10.376  16.117  0.00  0.00    +0.000 C 
ATOM     28  C   UNL     1      -4.100  11.276  17.119  0.00  0.00    +0.000 C 
ATOM     29  C   UNL     1      -3.084  11.593  18.203  0.00  0.00    +0.000 C 
ENDBRANCH  24  25
ENDBRANCH  22  24
ENDBRANCH   3  18
TORSDOF 4
ENDMDL
MODEL 9
REMARK VINA RESULT:      -8.9      3.037      8.679
REMARK  Name = 
REMARK  6 active torsions:
REMARK  status: ('A' for Active; 'I' for Inactive)
REMARK    1  A    between atoms: C_1  and  C_2
REMARK    2  A    between atoms: C_4  and  C_5
REMARK    3  A    between atoms: N_7  and  C_8
REMARK    4  A    between atoms: C_12  and  O_13
REMARK    5  A    between atoms: O_13  and  C_14
REMARK    6  A    between atoms: N_24  and  C_25
REMARK                            x       y       z     vdW  Elec       q    Type
REMARK                         _______ _______ _______ _____ _____    ______ ____
ROOT
ATOM      1  C   UNL     1       2.388   7.442  18.765  0.00  0.00    +0.000 C 
ATOM      2  O   UNL     1       2.330   7.545  19.987  0.00  0.00    +0.000 OA
ATOM      3  N   UNL     1       1.939   8.381  17.860  0.00  0.00    +0.000 N 
ATOM      4  H   UNL     1       1.878   8.113  16.879  0.00  0.00    +0.000 HD
ENDROOT
BRANCH   1   8
ATOM      5  C   UNL     1       5.822   5.505  15.736  0.00  0.00    +0.000 C 
ATOM      6  C   UNL     1       4.718   5.300  16.734  0.00  0.00    +0.000 A 
ATOM      7  C   UNL     1       4.063   6.403  17.287  0.00  0.00    +0.000 A 
ATOM      8  C   UNL     1       3.046   6.217  18.238  0.00  0.00    +0.000 A 
ATOM      9  C   UNL     1       2.768   4.914  18.582  0.00  0.00    +0.000 A 
ATOM     10  C   UNL     1       1.881   4.288  19.562  0.00  0.00    +0.000 A 
ATOM     11  O   UNL     1       1.014   4.849  20.198  0.00  0.00    +0.000 OA
ATOM     12  N   UNL     1       2.171   2.932  19.557  0.00  0.00    +0.000 N 
ATOM     13  N   UNL     1       2.876   2.621  18.384  0.00  0.00    +0.000 N 
ATOM     14  C   UNL     1       3.671   1.420  18.294  0.00  0.00    +0.000 C 
ATOM     15  C   UNL     1       3.422   3.853  17.958  0.00  0.00    +0.000 A 
ATOM     16  N   UNL     1       4.400   4.019  17.050  0.00  0.00    +0.000 NA
ATOM     17  H   UNL     1       1.485   2.274  19.909  0.00  0.00    +0.000 HD
ENDBRANCH   1   8
BRANCH   3  18
ATOM     18  C   UNL     1       1.407   9.656  18.161  0.00  0.00    +0.000 A 
ATOM     19  C   UNL     1       2.171  10.823  18.202  0.00  0.00    +0.000 A 
ATOM     20  C   UNL     1       1.578  12.046  18.524  0.00  0.00    +0.000 A 
ATOM     21  C   UNL     1       0.214  12.104  18.797  0.00  0.00    +0.000 A 
ATOM     22  C   UNL     1      -0.571  10.951  18.734  0.00  0.00    +0.000 A 
ATOM     23  C   UNL     1       0.028   9.730  18.417  0.00  0.00    +0.000 A 
BRANCH  22  24
ATOM     24  O   UNL     1      -1.892  11.134  19.040  0.00  0.00    +0.000 OA
BRANCH  24  25
ATOM     25  C   UNL     1      -2.736  11.721  18.050  0.00  0.00    +0.000 C 
ATOM     26  C   UNL     1      -4.201  11.739  18.486  0.00  0.00    +0.000 C 
ATOM     27  C   UNL     1      -5.034  11.477  17.239  0.00  0.00    +0.000 C 
ATOM     28  C   UNL     1      -4.073  11.037  16.144  0.00  0.00    +0.000 C 
ATOM     29  C   UNL     1      -2.728  10.818  16.817  0.00  0.00    +0.000 C 
ENDBRANCH  24  25
ENDBRANCH  22  24
ENDBRANCH   3  18
TORSDOF 4
ENDMDL
