MODEL 1
REMARK VINA RESULT:      -8.4      0.000      0.000
REMARK  Name = 
REMARK  4 active torsions:
REMARK  status: ('A' for Active; 'I' for Inactive)
REMARK    1  A    between atoms: C_2  and  C_13
REMARK    2  A    between atoms: N_3  and  C_4
REMARK    3  A    between atoms: C_18  and  S_19
REMARK    4  A    between atoms: S_19  and  N_22
REMARK                            x       y       z     vdW  Elec       q    Type
REMARK                         _______ _______ _______ _____ _____    ______ ____
ROOT
ATOM      1  C   UNL     1       4.880   5.836  16.759  0.00  0.00    +0.000 A 
ATOM      2  C   UNL     1       5.060   5.962  15.358  0.00  0.00    +0.000 A 
ATOM      3  C   UNL     1       5.656   4.963  14.588  0.00  0.00    +0.000 A 
ATOM      4  C   UNL     1       6.127   3.816  15.205  0.00  0.00    +0.000 A 
ATOM      5  C   UNL     1       5.948   3.655  16.577  0.00  0.00    +0.000 A 
ATOM      6  C   UNL     1       5.277   4.631  17.352  0.00  0.00    +0.000 A 
ENDROOT
BRANCH   1   8
ATOM      7  O   UNL     1       4.859   8.042  17.430  0.00  0.00    +0.000 OA
ATOM      8  C   UNL     1       4.179   7.018  17.346  0.00  0.00    +0.000 C 
ATOM      9  N   UNL     1       2.879   6.892  17.816  0.00  0.00    +0.000 N 
ATOM     10  H   UNL     1       2.287   6.202  17.355  0.00  0.00    +0.000 HD
BRANCH   9  11
ATOM     11  C   UNL     1       2.192   7.926  18.516  0.00  0.00    +0.000 A 
ATOM     12  C   UNL     1       1.606   9.015  17.844  0.00  0.00    +0.000 A 
ATOM     13  C   UNL     1       0.761   9.911  18.505  0.00  0.00    +0.000 A 
ATOM     14  C   UNL     1       0.532   9.725  19.854  0.00  0.00    +0.000 A 
ATOM     15  C   UNL     1       1.224   8.743  20.564  0.00  0.00    +0.000 A 
ATOM     16  C   UNL     1       2.065   7.842  19.911  0.00  0.00    +0.000 A 
ATOM     17  C   UNL     1       0.928   8.857  22.028  0.00  0.00    +0.000 C 
ATOM     18  C   UNL     1      -0.372   9.679  22.033  0.00  0.00    +0.000 C 
ATOM     19  C   UNL     1      -0.424  10.477  20.722  0.00  0.00    +0.000 C 
ENDBRANCH   9  11
ENDBRANCH   1   8
BRANCH   6  20
ATOM     20  S   UNL     1       4.967   4.172  19.051  0.00  0.00    +0.000 S 
ATOM     21  O   UNL     1       5.505   2.842  19.226  0.00  0.00    +0.000 OA
ATOM     22  O   UNL     1       5.434   5.250  19.897  0.00  0.00    +0.000 OA
BRANCH  20  23
ATOM     23  N   UNL     1       3.255   4.064  19.162  0.00  0.00    +0.000 NA
ATOM     24  C   UNL     1       2.632   2.959  18.388  0.00  0.00    +0.000 C 
ATOM     25  C   UNL     1       1.108   3.069  18.382  0.00  0.00    +0.000 C 
ATOM     26  C   UNL     1       0.563   3.141  19.800  0.00  0.00    +0.000 C 
ATOM     27  C   UNL     1       1.154   4.359  20.494  0.00  0.00    +0.000 C 
ATOM     28  C   UNL     1       2.679   4.290  20.516  0.00  0.00    +0.000 C 
ENDBRANCH  20  23
ENDBRANCH   6  20
TORSDOF 4
ENDMDL
MODEL 2
REMARK VINA RESULT:      -7.7      0.608      1.446
REMARK  Name = 
REMARK  4 active torsions:
REMARK  status: ('A' for Active; 'I' for Inactive)
REMARK    1  A    between atoms: C_2  and  C_13
REMARK    2  A    between atoms: N_3  and  C_4
REMARK    3  A    between atoms: C_18  and  S_19
REMARK    4  A    between atoms: S_19  and  N_22
REMARK                            x       y       z     vdW  Elec       q    Type
REMARK                         _______ _______ _______ _____ _____    ______ ____
ROOT
ATOM      1  C   UNL     1       4.815   5.954  16.855  0.00  0.00    +0.000 A 
ATOM      2  C   UNL     1       5.008   6.159  15.465  0.00  0.00    +0.000 A 
ATOM      3  C   UNL     1       5.683   5.240  14.660  0.00  0.00    +0.000 A 
ATOM      4  C   UNL     1       6.221   4.099  15.231  0.00  0.00    +0.000 A 
ATOM      5  C   UNL     1       6.031   3.861  16.591  0.00  0.00    +0.000 A 
ATOM      6  C   UNL     1       5.283   4.751  17.398  0.00  0.00    +0.000 A 
ENDROOT
BRANCH   1   8
ATOM      7  O   UNL     1       4.559   8.167  17.450  0.00  0.00    +0.000 OA
ATOM      8  C   UNL     1       4.027   7.057  17.483  0.00  0.00    +0.000 C 
ATOM      9  N   UNL     1       2.820   6.778  18.111  0.00  0.00    +0.000 N 
ATOM     10  H   UNL     1       2.283   5.992  17.748  0.00  0.00    +0.000 HD
BRANCH   9  11
ATOM     11  C   UNL     1       2.079   7.742  18.854  0.00  0.00    +0.000 A 
ATOM     12  C   UNL     1       1.814   7.577  20.227  0.00  0.00    +0.000 A 
ATOM     13  C   UNL     1       1.271   8.612  20.994  0.00  0.00    +0.000 A 
ATOM     14  C   UNL     1       0.967   9.804  20.368  0.00  0.00    +0.000 A 
ATOM     15  C   UNL     1       1.082   9.931  18.983  0.00  0.00    +0.000 A 
ATOM     16  C   UNL     1       1.627   8.904  18.211  0.00  0.00    +0.000 A 
ATOM     17  C   UNL     1       0.533  11.251  18.536  0.00  0.00    +0.000 C 
ATOM     18  C   UNL     1       0.545  12.065  19.841  0.00  0.00    +0.000 C 
ATOM     19  C   UNL     1       0.504  11.071  21.011  0.00  0.00    +0.000 C 
ENDBRANCH   9  11
ENDBRANCH   1   8
BRANCH   6  20
ATOM     20  S   UNL     1       4.978   4.191  19.068  0.00  0.00    +0.000 S 
ATOM     21  O   UNL     1       5.539   2.864  19.168  0.00  0.00    +0.000 OA
ATOM     22  O   UNL     1       5.426   5.228  19.974  0.00  0.00    +0.000 OA
BRANCH  20  23
ATOM     23  N   UNL     1       3.269   4.048  19.167  0.00  0.00    +0.000 NA
ATOM     24  C   UNL     1       2.642   3.151  18.162  0.00  0.00    +0.000 C 
ATOM     25  C   UNL     1       1.118   3.247  18.198  0.00  0.00    +0.000 C 
ATOM     26  C   UNL     1       0.589   2.981  19.599  0.00  0.00    +0.000 C 
ATOM     27  C   UNL     1       1.182   4.007  20.553  0.00  0.00    +0.000 C 
ATOM     28  C   UNL     1       2.707   3.946  20.543  0.00  0.00    +0.000 C 
ENDBRANCH  20  23
ENDBRANCH   6  20
TORSDOF 4
ENDMDL
MODEL 3
REMARK VINA RESULT:      -7.6      1.755      2.167
REMARK  Name = 
REMARK  4 active torsions:
REMARK  status: ('A' for Active; 'I' for Inactive)
REMARK    1  A    between atoms: C_2  and  C_13
REMARK    2  A    between atoms: N_3  and  C_4
REMARK    3  A    between atoms: C_18  and  S_19
REMARK    4  A    between atoms: S_19  and  N_22
REMARK                            x       y       z     vdW  Elec       q    Type
REMARK                         _______ _______ _______ _____ _____    ______ ____
ROOT
ATOM      1  C   UNL     1       4.152   6.122  17.327  0.00  0.00    +0.000 A 
ATOM      2  C   UNL     1       5.395   6.592  16.832  0.00  0.00    +0.000 A 
ATOM      3  C   UNL     1       6.351   5.738  16.281  0.00  0.00    +0.000 A 
ATOM      4  C   UNL     1       6.107   4.376  16.242  0.00  0.00    +0.000 A 
ATOM      5  C   UNL     1       4.887   3.886  16.704  0.00  0.00    +0.000 A 
ATOM      6  C   UNL     1       3.883   4.754  17.194  0.00  0.00    +0.000 A 
ENDROOT
BRANCH   1   8
ATOM      7  O   UNL     1       3.286   8.251  17.127  0.00  0.00    +0.000 OA
ATOM      8  C   UNL     1       3.286   7.235  17.824  0.00  0.00    +0.000 C 
ATOM      9  N   UNL     1       2.613   7.106  19.031  0.00  0.00    +0.000 N 
ATOM     10  H   UNL     1       2.336   6.164  19.305  0.00  0.00    +0.000 HD
BRANCH   9  11
ATOM     11  C   UNL     1       1.885   8.167  19.644  0.00  0.00    +0.000 A 
ATOM     12  C   UNL     1       1.300   9.200  18.888  0.00  0.00    +0.000 A 
ATOM     13  C   UNL     1       0.419  10.117  19.467  0.00  0.00    +0.000 A 
ATOM     14  C   UNL     1       0.153  10.011  20.817  0.00  0.00    +0.000 A 
ATOM     15  C   UNL     1       0.840   9.090  21.608  0.00  0.00    +0.000 A 
ATOM     16  C   UNL     1       1.718   8.167  21.038  0.00  0.00    +0.000 A 
ATOM     17  C   UNL     1       0.498   9.288  23.053  0.00  0.00    +0.000 C 
ATOM     18  C   UNL     1      -0.817  10.082  22.967  0.00  0.00    +0.000 C 
ATOM     19  C   UNL     1      -0.844  10.795  21.608  0.00  0.00    +0.000 C 
ENDBRANCH   9  11
ENDBRANCH   1   8
BRANCH   6  20
ATOM     20  S   UNL     1       2.316   3.977  17.560  0.00  0.00    +0.000 S 
ATOM     21  O   UNL     1       1.297   4.978  17.345  0.00  0.00    +0.000 OA
ATOM     22  O   UNL     1       2.257   2.727  16.831  0.00  0.00    +0.000 OA
BRANCH  20  23
ATOM     23  N   UNL     1       2.383   3.648  19.246  0.00  0.00    +0.000 NA
ATOM     24  C   UNL     1       1.092   3.771  19.973  0.00  0.00    +0.000 C 
ATOM     25  C   UNL     1       1.289   3.663  21.484  0.00  0.00    +0.000 C 
ATOM     26  C   UNL     1       2.022   2.381  21.848  0.00  0.00    +0.000 C 
ATOM     27  C   UNL     1       3.379   2.377  21.162  0.00  0.00    +0.000 C 
ATOM     28  C   UNL     1       3.227   2.488  19.646  0.00  0.00    +0.000 C 
ENDBRANCH  20  23
ENDBRANCH   6  20
TORSDOF 4
ENDMDL
MODEL 4
REMARK VINA RESULT:      -7.6      4.282      5.526
REMARK  Name = 
REMARK  4 active torsions:
REMARK  status: ('A' for Active; 'I' for Inactive)
REMARK    1  A    between atoms: C_2  and  C_13
REMARK    2  A    between atoms: N_3  and  C_4
REMARK    3  A    between atoms: C_18  and  S_19
REMARK    4  A    between atoms: S_19  and  N_22
REMARK                            x       y       z     vdW  Elec       q    Type
REMARK                         _______ _______ _______ _____ _____    ______ ____
ROOT
ATOM      1  C   UNL     1       6.838   5.875  16.882  0.00  0.00    +0.000 A 
ATOM      2  C   UNL     1       7.455   5.609  15.634  0.00  0.00    +0.000 A 
ATOM      3  C   UNL     1       6.942   4.679  14.728  0.00  0.00    +0.000 A 
ATOM      4  C   UNL     1       5.809   3.956  15.062  0.00  0.00    +0.000 A 
ATOM      5  C   UNL     1       5.169   4.209  16.274  0.00  0.00    +0.000 A 
ATOM      6  C   UNL     1       5.641   5.203  17.164  0.00  0.00    +0.000 A 
ENDROOT
BRANCH   1   8
ATOM      7  O   UNL     1       8.000   6.589  18.742  0.00  0.00    +0.000 OA
ATOM      8  C   UNL     1       7.553   6.940  17.649  0.00  0.00    +0.000 C 
ATOM      9  N   UNL     1       7.613   8.234  17.150  0.00  0.00    +0.000 N 
ATOM     10  H   UNL     1       7.606   8.337  16.135  0.00  0.00    +0.000 HD
BRANCH   9  11
ATOM     11  C   UNL     1       8.148   9.335  17.879  0.00  0.00    +0.000 A 
ATOM     12  C   UNL     1       8.901   9.152  19.054  0.00  0.00    +0.000 A 
ATOM     13  C   UNL     1       9.595  10.210  19.647  0.00  0.00    +0.000 A 
ATOM     14  C   UNL     1       9.502  11.462  19.072  0.00  0.00    +0.000 A 
ATOM     15  C   UNL     1       8.640  11.690  17.999  0.00  0.00    +0.000 A 
ATOM     16  C   UNL     1       7.947  10.638  17.397  0.00  0.00    +0.000 A 
ATOM     17  C   UNL     1       8.593  13.151  17.672  0.00  0.00    +0.000 C 
ATOM     18  C   UNL     1       9.879  13.672  18.336  0.00  0.00    +0.000 C 
ATOM     19  C   UNL     1      10.252  12.694  19.460  0.00  0.00    +0.000 C 
ENDBRANCH   9  11
ENDBRANCH   1   8
BRANCH   6  20
ATOM     20  S   UNL     1       4.591   5.524  18.573  0.00  0.00    +0.000 S 
ATOM     21  O   UNL     1       5.406   5.327  19.750  0.00  0.00    +0.000 OA
ATOM     22  O   UNL     1       3.937   6.798  18.361  0.00  0.00    +0.000 OA
BRANCH  20  23
ATOM     23  N   UNL     1       3.418   4.268  18.530  0.00  0.00    +0.000 NA
ATOM     24  C   UNL     1       3.646   3.147  19.478  0.00  0.00    +0.000 C 
ATOM     25  C   UNL     1       2.676   1.994  19.225  0.00  0.00    +0.000 C 
ATOM     26  C   UNL     1       1.235   2.478  19.259  0.00  0.00    +0.000 C 
ATOM     27  C   UNL     1       1.046   3.540  18.187  0.00  0.00    +0.000 C 
ATOM     28  C   UNL     1       2.002   4.711  18.402  0.00  0.00    +0.000 C 
ENDBRANCH  20  23
ENDBRANCH   6  20
TORSDOF 4
ENDMDL
MODEL 5
REMARK VINA RESULT:      -7.6      1.707      2.407
REMARK  Name = 
REMARK  4 active torsions:
REMARK  status: ('A' for Active; 'I' for Inactive)
REMARK    1  A    between atoms: C_2  and  C_13
REMARK    2  A    between atoms: N_3  and  C_4
REMARK    3  A    between atoms: C_18  and  S_19
REMARK    4  A    between atoms: S_19  and  N_22
REMARK                            x       y       z     vdW  Elec       q    Type
REMARK                         _______ _______ _______ _____ _____    ______ ____
ROOT
ATOM      1  C   UNL     1       4.174   5.728  17.581  0.00  0.00    +0.000 A 
ATOM      2  C   UNL     1       5.158   6.675  17.200  0.00  0.00    +0.000 A 
ATOM      3  C   UNL     1       6.375   6.302  16.629  0.00  0.00    +0.000 A 
ATOM      4  C   UNL     1       6.663   4.958  16.456  0.00  0.00    +0.000 A 
ATOM      5  C   UNL     1       5.708   4.004  16.804  0.00  0.00    +0.000 A 
ATOM      6  C   UNL     1       4.443   4.380  17.313  0.00  0.00    +0.000 A 
ENDROOT
BRANCH   1   8
ATOM      7  O   UNL     1       1.917   6.188  17.475  0.00  0.00    +0.000 OA
ATOM      8  C   UNL     1       2.945   6.380  18.126  0.00  0.00    +0.000 C 
ATOM      9  N   UNL     1       3.029   7.197  19.246  0.00  0.00    +0.000 N 
ATOM     10  H   UNL     1       3.759   6.976  19.923  0.00  0.00    +0.000 HD
BRANCH   9  11
ATOM     11  C   UNL     1       1.939   7.967  19.743  0.00  0.00    +0.000 A 
ATOM     12  C   UNL     1       1.327   7.678  20.977  0.00  0.00    +0.000 A 
ATOM     13  C   UNL     1       0.403   8.553  21.555  0.00  0.00    +0.000 A 
ATOM     14  C   UNL     1       0.072   9.705  20.871  0.00  0.00    +0.000 A 
ATOM     15  C   UNL     1       0.552   9.930  19.581  0.00  0.00    +0.000 A 
ATOM     16  C   UNL     1       1.479   9.064  18.998  0.00  0.00    +0.000 A 
ATOM     17  C   UNL     1      -0.084  11.154  18.996  0.00  0.00    +0.000 C 
ATOM     18  C   UNL     1      -0.600  11.880  20.249  0.00  0.00    +0.000 C 
ATOM     19  C   UNL     1      -0.786  10.830  21.354  0.00  0.00    +0.000 C 
ENDBRANCH   9  11
ENDBRANCH   1   8
BRANCH   6  20
ATOM     20  S   UNL     1       3.278   3.041  17.521  0.00  0.00    +0.000 S 
ATOM     21  O   UNL     1       2.200   3.281  16.590  0.00  0.00    +0.000 OA
ATOM     22  O   UNL     1       4.014   1.795  17.457  0.00  0.00    +0.000 OA
BRANCH  20  23
ATOM     23  N   UNL     1       2.658   3.253  19.110  0.00  0.00    +0.000 NA
ATOM     24  C   UNL     1       1.180   3.368  19.210  0.00  0.00    +0.000 C 
ATOM     25  C   UNL     1       0.742   3.757  20.621  0.00  0.00    +0.000 C 
ATOM     26  C   UNL     1       1.303   2.788  21.651  0.00  0.00    +0.000 C 
ATOM     27  C   UNL     1       2.822   2.808  21.570  0.00  0.00    +0.000 C 
ATOM     28  C   UNL     1       3.301   2.429  20.171  0.00  0.00    +0.000 C 
ENDBRANCH  20  23
ENDBRANCH   6  20
TORSDOF 4
ENDMDL
MODEL 6
REMARK VINA RESULT:      -7.5      2.060      2.824
REMARK  Name = 
REMARK  4 active torsions:
REMARK  status: ('A' for Active; 'I' for Inactive)
REMARK    1  A    between atoms: C_2  and  C_13
REMARK    2  A    between atoms: N_3  and  C_4
REMARK    3  A    between atoms: C_18  and  S_19
REMARK    4  A    between atoms: S_19  and  N_22
REMARK                            x       y       z     vdW  Elec       q    Type
REMARK                         _______ _______ _______ _____ _____    ______ ____
ROOT
ATOM      1  C   UNL     1       3.800   6.056  17.645  0.00  0.00    +0.000 A 
ATOM      2  C   UNL     1       4.908   6.801  17.169  0.00  0.00    +0.000 A 
ATOM      3  C   UNL     1       5.887   6.243  16.345  0.00  0.00    +0.000 A 
ATOM      4  C   UNL     1       5.806   4.904  16.002  0.00  0.00    +0.000 A 
ATOM      5  C   UNL     1       4.719   4.150  16.440  0.00  0.00    +0.000 A 
ATOM      6  C   UNL     1       3.684   4.729  17.212  0.00  0.00    +0.000 A 
ENDROOT
BRANCH   1   8
ATOM      7  O   UNL     1       2.577   6.415  19.567  0.00  0.00    +0.000 OA
ATOM      8  C   UNL     1       2.873   6.889  18.470  0.00  0.00    +0.000 C 
ATOM      9  N   UNL     1       2.355   8.069  17.953  0.00  0.00    +0.000 N 
ATOM     10  H   UNL     1       2.934   8.571  17.281  0.00  0.00    +0.000 HD
BRANCH   9  11
ATOM     11  C   UNL     1       1.359   8.846  18.612  0.00  0.00    +0.000 A 
ATOM     12  C   UNL     1       1.406   9.093  19.997  0.00  0.00    +0.000 A 
ATOM     13  C   UNL     1       0.551  10.020  20.602  0.00  0.00    +0.000 A 
ATOM     14  C   UNL     1      -0.372  10.675  19.812  0.00  0.00    +0.000 A 
ATOM     15  C   UNL     1      -0.533  10.331  18.469  0.00  0.00    +0.000 A 
ATOM     16  C   UNL     1       0.319   9.410  17.857  0.00  0.00    +0.000 A 
ATOM     17  C   UNL     1      -1.704  11.059  17.884  0.00  0.00    +0.000 C 
ATOM     18  C   UNL     1      -1.895  12.216  18.878  0.00  0.00    +0.000 C 
ATOM     19  C   UNL     1      -1.287  11.784  20.220  0.00  0.00    +0.000 C 
ENDBRANCH   9  11
ENDBRANCH   1   8
BRANCH   6  20
ATOM     20  S   UNL     1       2.279   3.668  17.519  0.00  0.00    +0.000 S 
ATOM     21  O   UNL     1       1.100   4.447  17.218  0.00  0.00    +0.000 OA
ATOM     22  O   UNL     1       2.506   2.416  16.829  0.00  0.00    +0.000 OA
BRANCH  20  23
ATOM     23  N   UNL     1       2.309   3.395  19.216  0.00  0.00    +0.000 NA
ATOM     24  C   UNL     1       0.980   3.239  19.862  0.00  0.00    +0.000 C 
ATOM     25  C   UNL     1       1.099   3.206  21.385  0.00  0.00    +0.000 C 
ATOM     26  C   UNL     1       2.074   2.128  21.832  0.00  0.00    +0.000 C 
ATOM     27  C   UNL     1       3.438   2.416  21.226  0.00  0.00    +0.000 C 
ATOM     28  C   UNL     1       3.363   2.462  19.702  0.00  0.00    +0.000 C 
ENDBRANCH  20  23
ENDBRANCH   6  20
TORSDOF 4
ENDMDL
MODEL 7
REMARK VINA RESULT:      -7.4      1.662      2.065
REMARK  Name = 
REMARK  4 active torsions:
REMARK  status: ('A' for Active; 'I' for Inactive)
REMARK    1  A    between atoms: C_2  and  C_13
REMARK    2  A    between atoms: N_3  and  C_4
REMARK    3  A    between atoms: C_18  and  S_19
REMARK    4  A    between atoms: S_19  and  N_22
REMARK                            x       y       z     vdW  Elec       q    Type
REMARK                         _______ _______ _______ _____ _____    ______ ____
ROOT
ATOM      1  C   UNL     1       4.371   5.492  17.166  0.00  0.00    +0.000 A 
ATOM      2  C   UNL     1       5.496   6.002  16.469  0.00  0.00    +0.000 A 
ATOM      3  C   UNL     1       6.192   5.251  15.520  0.00  0.00    +0.000 A 
ATOM      4  C   UNL     1       5.805   3.946  15.266  0.00  0.00    +0.000 A 
ATOM      5  C   UNL     1       4.692   3.423  15.922  0.00  0.00    +0.000 A 
ATOM      6  C   UNL     1       3.936   4.204  16.829  0.00  0.00    +0.000 A 
ENDROOT
BRANCH   1   8
ATOM      7  O   UNL     1       4.156   6.431  19.261  0.00  0.00    +0.000 OA
ATOM      8  C   UNL     1       3.776   6.503  18.092  0.00  0.00    +0.000 C 
ATOM      9  N   UNL     1       2.812   7.387  17.628  0.00  0.00    +0.000 N 
ATOM     10  H   UNL     1       2.865   7.654  16.645  0.00  0.00    +0.000 HD
BRANCH   9  11
ATOM     11  C   UNL     1       2.093   8.282  18.472  0.00  0.00    +0.000 A 
ATOM     12  C   UNL     1       1.447   9.425  17.964  0.00  0.00    +0.000 A 
ATOM     13  C   UNL     1       0.577  10.182  18.753  0.00  0.00    +0.000 A 
ATOM     14  C   UNL     1       0.384   9.803  20.066  0.00  0.00    +0.000 A 
ATOM     15  C   UNL     1       1.131   8.767  20.626  0.00  0.00    +0.000 A 
ATOM     16  C   UNL     1       1.999   8.003  19.844  0.00  0.00    +0.000 A 
ATOM     17  C   UNL     1       0.860   8.667  22.096  0.00  0.00    +0.000 C 
ATOM     18  C   UNL     1      -0.475   9.419  22.231  0.00  0.00    +0.000 C 
ATOM     19  C   UNL     1      -0.588  10.385  21.042  0.00  0.00    +0.000 C 
ENDBRANCH   9  11
ENDBRANCH   1   8
BRANCH   6  20
ATOM     20  S   UNL     1       2.436   3.438  17.425  0.00  0.00    +0.000 S 
ATOM     21  O   UNL     1       1.346   4.302  17.032  0.00  0.00    +0.000 OA
ATOM     22  O   UNL     1       2.442   2.054  17.001  0.00  0.00    +0.000 OA
BRANCH  20  23
ATOM     23  N   UNL     1       2.570   3.508  19.138  0.00  0.00    +0.000 NA
ATOM     24  C   UNL     1       1.525   4.307  19.829  0.00  0.00    +0.000 C 
ATOM     25  C   UNL     1       1.842   4.478  21.314  0.00  0.00    +0.000 C 
ATOM     26  C   UNL     1       2.057   3.130  21.984  0.00  0.00    +0.000 C 
ATOM     27  C   UNL     1       3.214   2.419  21.300  0.00  0.00    +0.000 C 
ATOM     28  C   UNL     1       2.938   2.231  19.810  0.00  0.00    +0.000 C 
ENDBRANCH  20  23
ENDBRANCH   6  20
TORSDOF 4
ENDMDL
MODEL 8
REMARK VINA RESULT:      -7.3      2.025      2.795
REMARK  Name = 
REMARK  4 active torsions:
REMARK  status: ('A' for Active; 'I' for Inactive)
REMARK    1  A    between atoms: C_2  and  C_13
REMARK    2  A    between atoms: N_3  and  C_4
REMARK    3  A    between atoms: C_18  and  S_19
REMARK    4  A    between atoms: S_19  and  N_22
REMARK                            x       y       z     vdW  Elec       q    Type
REMARK                         _______ _______ _______ _____ _____    ______ ____
ROOT
ATOM      1  C   UNL     1       3.906   6.009  17.803  0.00  0.00    +0.000 A 
ATOM      2  C   UNL     1       5.093   6.711  17.470  0.00  0.00    +0.000 A 
ATOM      3  C   UNL     1       6.097   6.149  16.679  0.00  0.00    +0.000 A 
ATOM      4  C   UNL     1       5.960   4.848  16.227  0.00  0.00    +0.000 A 
ATOM      5  C   UNL     1       4.797   4.139  16.522  0.00  0.00    +0.000 A 
ATOM      6  C   UNL     1       3.743   4.729  17.259  0.00  0.00    +0.000 A 
ENDROOT
BRANCH   1   8
ATOM      7  O   UNL     1       2.700   6.386  19.732  0.00  0.00    +0.000 OA
ATOM      8  C   UNL     1       2.971   6.841  18.620  0.00  0.00    +0.000 C 
ATOM      9  N   UNL     1       2.418   7.995  18.082  0.00  0.00    +0.000 N 
ATOM     10  H   UNL     1       2.976   8.495  17.390  0.00  0.00    +0.000 HD
BRANCH   9  11
ATOM     11  C   UNL     1       1.413   8.765  18.736  0.00  0.00    +0.000 A 
ATOM     12  C   UNL     1       1.365   8.887  20.137  0.00  0.00    +0.000 A 
ATOM     13  C   UNL     1       0.512   9.802  20.761  0.00  0.00    +0.000 A 
ATOM     14  C   UNL     1      -0.316  10.573  19.970  0.00  0.00    +0.000 A 
ATOM     15  C   UNL     1      -0.389  10.357  18.593  0.00  0.00    +0.000 A 
ATOM     16  C   UNL     1       0.462   9.449  17.962  0.00  0.00    +0.000 A 
ATOM     17  C   UNL     1      -1.476  11.196  17.994  0.00  0.00    +0.000 C 
ATOM     18  C   UNL     1      -1.687  12.271  19.073  0.00  0.00    +0.000 C 
ATOM     19  C   UNL     1      -1.205  11.691  20.410  0.00  0.00    +0.000 C 
ENDBRANCH   9  11
ENDBRANCH   1   8
BRANCH   6  20
ATOM     20  S   UNL     1       2.255   3.747  17.377  0.00  0.00    +0.000 S 
ATOM     21  O   UNL     1       1.144   4.662  17.249  0.00  0.00    +0.000 OA
ATOM     22  O   UNL     1       2.378   2.637  16.454  0.00  0.00    +0.000 OA
BRANCH  20  23
ATOM     23  N   UNL     1       2.260   3.149  18.988  0.00  0.00    +0.000 NA
ATOM     24  C   UNL     1       3.581   3.151  19.667  0.00  0.00    +0.000 C 
ATOM     25  C   UNL     1       3.524   2.419  21.007  0.00  0.00    +0.000 C 
ATOM     26  C   UNL     1       2.433   2.995  21.896  0.00  0.00    +0.000 C 
ATOM     27  C   UNL     1       1.095   2.855  21.187  0.00  0.00    +0.000 C 
ATOM     28  C   UNL     1       1.112   3.571  19.838  0.00  0.00    +0.000 C 
ENDBRANCH  20  23
ENDBRANCH   6  20
TORSDOF 4
ENDMDL
MODEL 9
REMARK VINA RESULT:      -7.3      0.448      1.059
REMARK  Name = 
REMARK  4 active torsions:
REMARK  status: ('A' for Active; 'I' for Inactive)
REMARK    1  A    between atoms: C_2  and  C_13
REMARK    2  A    between atoms: N_3  and  C_4
REMARK    3  A    between atoms: C_18  and  S_19
REMARK    4  A    between atoms: S_19  and  N_22
REMARK                            x       y       z     vdW  Elec       q    Type
REMARK                         _______ _______ _______ _____ _____    ______ ____
ROOT
ATOM      1  C   UNL     1       4.819   5.881  16.809  0.00  0.00    +0.000 A 
ATOM      2  C   UNL     1       4.971   5.958  15.401  0.00  0.00    +0.000 A 
ATOM      3  C   UNL     1       5.581   4.946  14.658  0.00  0.00    +0.000 A 
ATOM      4  C   UNL     1       6.094   3.837  15.310  0.00  0.00    +0.000 A 
ATOM      5  C   UNL     1       5.944   3.725  16.691  0.00  0.00    +0.000 A 
ATOM      6  C   UNL     1       5.260   4.711  17.440  0.00  0.00    +0.000 A 
ENDROOT
BRANCH   1   8
ATOM      7  O   UNL     1       4.733   8.121  17.354  0.00  0.00    +0.000 OA
ATOM      8  C   UNL     1       4.097   7.066  17.363  0.00  0.00    +0.000 C 
ATOM      9  N   UNL     1       2.828   6.914  17.907  0.00  0.00    +0.000 N 
ATOM     10  H   UNL     1       2.245   6.174  17.517  0.00  0.00    +0.000 HD
BRANCH   9  11
ATOM     11  C   UNL     1       2.130   7.958  18.581  0.00  0.00    +0.000 A 
ATOM     12  C   UNL     1       1.519   9.016  17.882  0.00  0.00    +0.000 A 
ATOM     13  C   UNL     1       0.666   9.918  18.524  0.00  0.00    +0.000 A 
ATOM     14  C   UNL     1       0.455   9.770  19.880  0.00  0.00    +0.000 A 
ATOM     15  C   UNL     1       1.171   8.823  20.614  0.00  0.00    +0.000 A 
ATOM     16  C   UNL     1       2.020   7.916  19.980  0.00  0.00    +0.000 A 
ATOM     17  C   UNL     1       0.888   8.978  22.077  0.00  0.00    +0.000 C 
ATOM     18  C   UNL     1      -0.425   9.778  22.070  0.00  0.00    +0.000 C 
ATOM     19  C   UNL     1      -0.505  10.533  20.735  0.00  0.00    +0.000 C 
ENDBRANCH   9  11
ENDBRANCH   1   8
BRANCH   6  20
ATOM     20  S   UNL     1       4.993   4.310  19.161  0.00  0.00    +0.000 S 
ATOM     21  O   UNL     1       6.025   3.369  19.532  0.00  0.00    +0.000 OA
ATOM     22  O   UNL     1       4.860   5.552  19.893  0.00  0.00    +0.000 OA
BRANCH  20  23
ATOM     23  N   UNL     1       3.490   3.476  19.180  0.00  0.00    +0.000 NA
ATOM     24  C   UNL     1       2.496   3.970  20.167  0.00  0.00    +0.000 C 
ATOM     25  C   UNL     1       1.282   3.046  20.251  0.00  0.00    +0.000 C 
ATOM     26  C   UNL     1       0.660   2.839  18.879  0.00  0.00    +0.000 C 
ATOM     27  C   UNL     1       1.699   2.225  17.954  0.00  0.00    +0.000 C 
ATOM     28  C   UNL     1       2.933   3.118  17.846  0.00  0.00    +0.000 C 
ENDBRANCH  20  23
ENDBRANCH   6  20
TORSDOF 4
ENDMDL
