MODEL 1
REMARK VINA RESULT:      -8.5      0.000      0.000
REMARK  Name = 
REMARK  6 active torsions:
REMARK  status: ('A' for Active; 'I' for Inactive)
REMARK    1  A    between atoms: C_1  and  C_2
REMARK    2  A    between atoms: C_2  and  C_3
REMARK    3  A    between atoms: C_2  and  C_24
REMARK    4  A    between atoms: C_7  and  N_8
REMARK    5  A    between atoms: C_16  and  C_17
REMARK    6  A    between atoms: N_28  and  C_29
REMARK                            x       y       z     vdW  Elec       q    Type
REMARK                         _______ _______ _______ _____ _____    ______ ____
ROOT
ATOM      1  N   UNL     1       3.693   5.306  19.364  0.00  0.00    +0.000 N 
ATOM      2  C   UNL     1       5.103   5.746  19.449  0.00  0.00    +0.000 C 
ATOM      3  C   UNL     1       5.665   5.254  18.150  0.00  0.00    +0.000 A 
ATOM      4  C   UNL     1       4.898   4.154  17.751  0.00  0.00    +0.000 A 
ATOM      5  C   UNL     1       5.065   3.514  16.540  0.00  0.00    +0.000 A 
ATOM      6  C   UNL     1       6.036   4.034  15.697  0.00  0.00    +0.000 A 
ATOM      7  F   UNL     1       6.193   3.506  14.476  0.00  0.00    +0.000 F 
ATOM      8  C   UNL     1       6.799   5.156  16.055  0.00  0.00    +0.000 A 
ATOM      9  C   UNL     1       6.623   5.796  17.299  0.00  0.00    +0.000 A 
ATOM     10  C   UNL     1       3.691   4.111  18.604  0.00  0.00    +0.000 C 
ATOM     11  O   UNL     1       2.799   3.295  18.474  0.00  0.00    +0.000 OA
ENDROOT
BRANCH   1  16
ATOM     12  C   UNL     1       1.699   8.409  19.577  0.00  0.00    +0.000 A 
ATOM     13  C   UNL     1       2.096   9.013  18.372  0.00  0.00    +0.000 A 
ATOM     14  C   UNL     1       2.745   8.276  17.386  0.00  0.00    +0.000 A 
ATOM     15  C   UNL     1       3.078   6.945  17.619  0.00  0.00    +0.000 A 
ATOM     16  C   UNL     1       2.851   6.379  18.883  0.00  0.00    +0.000 A 
ATOM     17  C   UNL     1       2.077   7.080  19.819  0.00  0.00    +0.000 A 
BRANCH  12  19
ATOM     18  C   UNL     1       0.244   8.314  21.592  0.00  0.00    +0.000 C 
ATOM     19  C   UNL     1       1.012   9.250  20.645  0.00  0.00    +0.000 C 
BRANCH  19  20
ATOM     20  C   UNL     1       0.107  10.328  20.102  0.00  0.00    +0.000 A 
ATOM     21  N   UNL     1      -1.073  10.135  19.541  0.00  0.00    +0.000 NA
ATOM     22  N   UNL     1      -1.609  11.358  19.217  0.00  0.00    +0.000 NA
ATOM     23  C   UNL     1      -0.756  12.274  19.593  0.00  0.00    +0.000 A 
ATOM     24  N   UNL     1       0.339  11.680  20.146  0.00  0.00    +0.000 N 
ATOM     25  C   UNL     1       1.492  12.383  20.646  0.00  0.00    +0.000 C 
ENDBRANCH  19  20
ENDBRANCH  12  19
ENDBRANCH   1  16
BRANCH   9  26
ATOM     26  C   UNL     1       7.370   7.073  17.583  0.00  0.00    +0.000 C 
ATOM     27  F   UNL     1       8.153   7.026  18.694  0.00  0.00    +0.000 F 
ATOM     28  F   UNL     1       8.198   7.422  16.562  0.00  0.00    +0.000 F 
ATOM     29  F   UNL     1       6.531   8.129  17.764  0.00  0.00    +0.000 F 
ENDBRANCH   9  26
TORSDOF 4
ENDMDL
MODEL 2
REMARK VINA RESULT:      -8.4      0.626      1.166
REMARK  Name = 
REMARK  6 active torsions:
REMARK  status: ('A' for Active; 'I' for Inactive)
REMARK    1  A    between atoms: C_1  and  C_2
REMARK    2  A    between atoms: C_2  and  C_3
REMARK    3  A    between atoms: C_2  and  C_24
REMARK    4  A    between atoms: C_7  and  N_8
REMARK    5  A    between atoms: C_16  and  C_17
REMARK    6  A    between atoms: N_28  and  C_29
REMARK                            x       y       z     vdW  Elec       q    Type
REMARK                         _______ _______ _______ _____ _____    ______ ____
ROOT
ATOM      1  N   UNL     1       3.610   5.224  19.379  0.00  0.00    +0.000 N 
ATOM      2  C   UNL     1       5.029   5.639  19.430  0.00  0.00    +0.000 C 
ATOM      3  C   UNL     1       5.522   5.239  18.073  0.00  0.00    +0.000 A 
ATOM      4  C   UNL     1       4.720   4.182  17.629  0.00  0.00    +0.000 A 
ATOM      5  C   UNL     1       4.820   3.634  16.367  0.00  0.00    +0.000 A 
ATOM      6  C   UNL     1       5.760   4.204  15.521  0.00  0.00    +0.000 A 
ATOM      7  F   UNL     1       5.851   3.768  14.257  0.00  0.00    +0.000 F 
ATOM      8  C   UNL     1       6.557   5.285  15.926  0.00  0.00    +0.000 A 
ATOM      9  C   UNL     1       6.448   5.832  17.221  0.00  0.00    +0.000 A 
ATOM     10  C   UNL     1       3.553   4.091  18.533  0.00  0.00    +0.000 C 
ATOM     11  O   UNL     1       2.643   3.298  18.385  0.00  0.00    +0.000 OA
ENDROOT
BRANCH   1  16
ATOM     12  C   UNL     1       1.666   8.320  19.922  0.00  0.00    +0.000 A 
ATOM     13  C   UNL     1       2.024   9.016  18.755  0.00  0.00    +0.000 A 
ATOM     14  C   UNL     1       2.624   8.355  17.687  0.00  0.00    +0.000 A 
ATOM     15  C   UNL     1       2.949   7.006  17.798  0.00  0.00    +0.000 A 
ATOM     16  C   UNL     1       2.763   6.341  19.021  0.00  0.00    +0.000 A 
ATOM     17  C   UNL     1       2.036   6.971  20.040  0.00  0.00    +0.000 A 
BRANCH  12  19
ATOM     18  C   UNL     1      -0.243   8.339  21.514  0.00  0.00    +0.000 C 
ATOM     19  C   UNL     1       1.032   9.078  21.080  0.00  0.00    +0.000 C 
BRANCH  19  20
ATOM     20  C   UNL     1       0.740  10.529  20.789  0.00  0.00    +0.000 A 
ATOM     21  N   UNL     1       1.391  11.564  21.289  0.00  0.00    +0.000 NA
ATOM     22  N   UNL     1       0.863  12.714  20.755  0.00  0.00    +0.000 NA
ATOM     23  C   UNL     1      -0.091  12.364  19.933  0.00  0.00    +0.000 A 
ATOM     24  N   UNL     1      -0.213  11.006  19.925  0.00  0.00    +0.000 N 
ATOM     25  C   UNL     1      -1.182  10.272  19.154  0.00  0.00    +0.000 C 
ENDBRANCH  19  20
ENDBRANCH  12  19
ENDBRANCH   1  16
BRANCH   9  26
ATOM     26  C   UNL     1       7.229   7.075  17.564  0.00  0.00    +0.000 C 
ATOM     27  F   UNL     1       7.980   6.967  18.692  0.00  0.00    +0.000 F 
ATOM     28  F   UNL     1       8.093   7.428  16.575  0.00  0.00    +0.000 F 
ATOM     29  F   UNL     1       6.419   8.152  17.757  0.00  0.00    +0.000 F 
ENDBRANCH   9  26
TORSDOF 4
ENDMDL
MODEL 3
REMARK VINA RESULT:      -8.3      4.272      8.278
REMARK  Name = 
REMARK  6 active torsions:
REMARK  status: ('A' for Active; 'I' for Inactive)
REMARK    1  A    between atoms: C_1  and  C_2
REMARK    2  A    between atoms: C_2  and  C_3
REMARK    3  A    between atoms: C_2  and  C_24
REMARK    4  A    between atoms: C_7  and  N_8
REMARK    5  A    between atoms: C_16  and  C_17
REMARK    6  A    between atoms: N_28  and  C_29
REMARK                            x       y       z     vdW  Elec       q    Type
REMARK                         _______ _______ _______ _____ _____    ______ ____
ROOT
ATOM      1  N   UNL     1       0.272   9.156  20.644  0.00  0.00    +0.000 N 
ATOM      2  C   UNL     1      -0.963   9.112  19.831  0.00  0.00    +0.000 C 
ATOM      3  C   UNL     1      -1.077  10.527  19.356  0.00  0.00    +0.000 A 
ATOM      4  C   UNL     1      -0.428  11.339  20.293  0.00  0.00    +0.000 A 
ATOM      5  C   UNL     1      -0.243  12.695  20.121  0.00  0.00    +0.000 A 
ATOM      6  C   UNL     1      -0.717  13.237  18.936  0.00  0.00    +0.000 A 
ATOM      7  F   UNL     1      -0.498  14.532  18.675  0.00  0.00    +0.000 F 
ATOM      8  C   UNL     1      -1.343  12.443  17.962  0.00  0.00    +0.000 A 
ATOM      9  C   UNL     1      -1.532  11.060  18.153  0.00  0.00    +0.000 A 
ATOM     10  C   UNL     1       0.343  10.458  21.196  0.00  0.00    +0.000 C 
ATOM     11  O   UNL     1       1.056  10.865  22.093  0.00  0.00    +0.000 OA
ENDROOT
BRANCH   1  16
ATOM     12  C   UNL     1       2.743   6.764  19.292  0.00  0.00    +0.000 A 
ATOM     13  C   UNL     1       2.799   7.226  17.966  0.00  0.00    +0.000 A 
ATOM     14  C   UNL     1       2.284   8.472  17.624  0.00  0.00    +0.000 A 
ATOM     15  C   UNL     1       1.635   9.244  18.584  0.00  0.00    +0.000 A 
ATOM     16  C   UNL     1       1.412   8.720  19.867  0.00  0.00    +0.000 A 
ATOM     17  C   UNL     1       2.051   7.530  20.242  0.00  0.00    +0.000 A 
BRANCH  12  19
ATOM     18  C   UNL     1       4.798   5.363  19.306  0.00  0.00    +0.000 C 
ATOM     19  C   UNL     1       3.295   5.385  19.628  0.00  0.00    +0.000 C 
BRANCH  19  20
ATOM     20  C   UNL     1       2.582   4.245  18.944  0.00  0.00    +0.000 A 
ATOM     21  N   UNL     1       2.764   3.859  17.694  0.00  0.00    +0.000 NA
ATOM     22  N   UNL     1       1.969   2.765  17.453  0.00  0.00    +0.000 NA
ATOM     23  C   UNL     1       1.324   2.496  18.558  0.00  0.00    +0.000 A 
ATOM     24  N   UNL     1       1.666   3.399  19.519  0.00  0.00    +0.000 N 
ATOM     25  C   UNL     1       1.129   3.423  20.854  0.00  0.00    +0.000 C 
ENDBRANCH  19  20
ENDBRANCH  12  19
ENDBRANCH   1  16
BRANCH   9  26
ATOM     26  C   UNL     1      -2.088  10.229  17.026  0.00  0.00    +0.000 C 
ATOM     27  F   UNL     1      -1.254   9.247  16.593  0.00  0.00    +0.000 F 
ATOM     28  F   UNL     1      -3.247   9.605  17.371  0.00  0.00    +0.000 F 
ATOM     29  F   UNL     1      -2.378  10.981  15.929  0.00  0.00    +0.000 F 
ENDBRANCH   9  26
TORSDOF 4
ENDMDL
MODEL 4
REMARK VINA RESULT:      -8.3      5.349      8.467
REMARK  Name = 
REMARK  6 active torsions:
REMARK  status: ('A' for Active; 'I' for Inactive)
REMARK    1  A    between atoms: C_1  and  C_2
REMARK    2  A    between atoms: C_2  and  C_3
REMARK    3  A    between atoms: C_2  and  C_24
REMARK    4  A    between atoms: C_7  and  N_8
REMARK    5  A    between atoms: C_16  and  C_17
REMARK    6  A    between atoms: N_28  and  C_29
REMARK                            x       y       z     vdW  Elec       q    Type
REMARK                         _______ _______ _______ _____ _____    ______ ____
ROOT
ATOM      1  N   UNL     1      -1.871  12.480  19.139  0.00  0.00    +0.000 N 
ATOM      2  C   UNL     1      -0.483  12.148  18.751  0.00  0.00    +0.000 C 
ATOM      3  C   UNL     1      -0.057  11.233  19.858  0.00  0.00    +0.000 A 
ATOM      4  C   UNL     1      -0.815  11.561  20.988  0.00  0.00    +0.000 A 
ATOM      5  C   UNL     1      -0.764  10.847  22.168  0.00  0.00    +0.000 A 
ATOM      6  C   UNL     1       0.076   9.743  22.184  0.00  0.00    +0.000 A 
ATOM      7  F   UNL     1       0.110   8.963  23.272  0.00  0.00    +0.000 F 
ATOM      8  C   UNL     1       0.823   9.369  21.056  0.00  0.00    +0.000 A 
ATOM      9  C   UNL     1       0.767  10.112  19.859  0.00  0.00    +0.000 A 
ATOM     10  C   UNL     1      -1.909  12.456  20.554  0.00  0.00    +0.000 C 
ATOM     11  O   UNL     1      -2.772  12.881  21.299  0.00  0.00    +0.000 OA
ENDROOT
BRANCH   1  16
ATOM     12  C   UNL     1      -5.134  11.467  17.730  0.00  0.00    +0.000 A 
ATOM     13  C   UNL     1      -4.690  10.905  16.521  0.00  0.00    +0.000 A 
ATOM     14  C   UNL     1      -3.348  10.588  16.333  0.00  0.00    +0.000 A 
ATOM     15  C   UNL     1      -2.415  10.900  17.318  0.00  0.00    +0.000 A 
ATOM     16  C   UNL     1      -2.813  11.623  18.453  0.00  0.00    +0.000 A 
ATOM     17  C   UNL     1      -4.180  11.815  18.699  0.00  0.00    +0.000 A 
BRANCH  12  19
ATOM     18  C   UNL     1      -6.842  13.222  17.301  0.00  0.00    +0.000 C 
ATOM     19  C   UNL     1      -6.605  11.824  17.894  0.00  0.00    +0.000 C 
BRANCH  19  20
ATOM     20  C   UNL     1      -7.109  11.750  19.314  0.00  0.00    +0.000 A 
ATOM     21  N   UNL     1      -7.445  12.780  20.069  0.00  0.00    +0.000 NA
ATOM     22  N   UNL     1      -7.897  12.308  21.278  0.00  0.00    +0.000 NA
ATOM     23  C   UNL     1      -7.840  11.003  21.237  0.00  0.00    +0.000 A 
ATOM     24  N   UNL     1      -7.345  10.604  20.032  0.00  0.00    +0.000 N 
ATOM     25  C   UNL     1      -7.120   9.235  19.647  0.00  0.00    +0.000 C 
ENDBRANCH  19  20
ENDBRANCH  12  19
ENDBRANCH   1  16
BRANCH   9  26
ATOM     26  C   UNL     1       1.483   9.597  18.638  0.00  0.00    +0.000 C 
ATOM     27  F   UNL     1       0.659   9.235  17.619  0.00  0.00    +0.000 F 
ATOM     28  F   UNL     1       2.335  10.520  18.115  0.00  0.00    +0.000 F 
ATOM     29  F   UNL     1       2.241   8.499  18.912  0.00  0.00    +0.000 F 
ENDBRANCH   9  26
TORSDOF 4
ENDMDL
MODEL 5
REMARK VINA RESULT:      -8.2      3.350      4.596
REMARK  Name = 
REMARK  6 active torsions:
REMARK  status: ('A' for Active; 'I' for Inactive)
REMARK    1  A    between atoms: C_1  and  C_2
REMARK    2  A    between atoms: C_2  and  C_3
REMARK    3  A    between atoms: C_2  and  C_24
REMARK    4  A    between atoms: C_7  and  N_8
REMARK    5  A    between atoms: C_16  and  C_17
REMARK    6  A    between atoms: N_28  and  C_29
REMARK                            x       y       z     vdW  Elec       q    Type
REMARK                         _______ _______ _______ _____ _____    ______ ____
ROOT
ATOM      1  N   UNL     1       2.734   6.133  17.515  0.00  0.00    +0.000 N 
ATOM      2  C   UNL     1       1.765   5.049  17.787  0.00  0.00    +0.000 C 
ATOM      3  C   UNL     1       2.580   4.099  18.611  0.00  0.00    +0.000 A 
ATOM      4  C   UNL     1       3.922   4.286  18.264  0.00  0.00    +0.000 A 
ATOM      5  C   UNL     1       4.966   3.652  18.905  0.00  0.00    +0.000 A 
ATOM      6  C   UNL     1       4.625   2.813  19.955  0.00  0.00    +0.000 A 
ATOM      7  F   UNL     1       5.597   2.229  20.668  0.00  0.00    +0.000 F 
ATOM      8  C   UNL     1       3.290   2.629  20.348  0.00  0.00    +0.000 A 
ATOM      9  C   UNL     1       2.232   3.278  19.680  0.00  0.00    +0.000 A 
ATOM     10  C   UNL     1       4.012   5.524  17.460  0.00  0.00    +0.000 C 
ATOM     11  O   UNL     1       5.057   5.987  17.044  0.00  0.00    +0.000 OA
ENDROOT
BRANCH   1  16
ATOM     12  C   UNL     1       1.604   9.429  18.743  0.00  0.00    +0.000 A 
ATOM     13  C   UNL     1       1.202   9.060  20.038  0.00  0.00    +0.000 A 
ATOM     14  C   UNL     1       1.590   7.839  20.583  0.00  0.00    +0.000 A 
ATOM     15  C   UNL     1       2.319   6.936  19.815  0.00  0.00    +0.000 A 
ATOM     16  C   UNL     1       2.574   7.213  18.463  0.00  0.00    +0.000 A 
ATOM     17  C   UNL     1       2.302   8.495  17.964  0.00  0.00    +0.000 A 
BRANCH  12  19
ATOM     18  C   UNL     1       2.254  11.802  18.378  0.00  0.00    +0.000 C 
ATOM     19  C   UNL     1       1.142  10.762  18.168  0.00  0.00    +0.000 C 
BRANCH  19  20
ATOM     20  C   UNL     1      -0.171  11.257  18.722  0.00  0.00    +0.000 A 
ATOM     21  N   UNL     1      -0.315  12.119  19.712  0.00  0.00    +0.000 NA
ATOM     22  N   UNL     1      -1.656  12.354  19.896  0.00  0.00    +0.000 NA
ATOM     23  C   UNL     1      -2.306  11.643  19.013  0.00  0.00    +0.000 A 
ATOM     24  N   UNL     1      -1.421  10.931  18.258  0.00  0.00    +0.000 N 
ATOM     25  C   UNL     1      -1.785  10.019  17.206  0.00  0.00    +0.000 C 
ENDBRANCH  19  20
ENDBRANCH  12  19
ENDBRANCH   1  16
BRANCH   9  26
ATOM     26  C   UNL     1       0.831   3.154  20.221  0.00  0.00    +0.000 C 
ATOM     27  F   UNL     1       0.216   4.344  20.453  0.00  0.00    +0.000 F 
ATOM     28  F   UNL     1       0.013   2.472  19.375  0.00  0.00    +0.000 F 
ATOM     29  F   UNL     1       0.796   2.480  21.403  0.00  0.00    +0.000 F 
ENDBRANCH   9  26
TORSDOF 4
ENDMDL
MODEL 6
REMARK VINA RESULT:      -8.1      1.782      2.526
REMARK  Name = 
REMARK  6 active torsions:
REMARK  status: ('A' for Active; 'I' for Inactive)
REMARK    1  A    between atoms: C_1  and  C_2
REMARK    2  A    between atoms: C_2  and  C_3
REMARK    3  A    between atoms: C_2  and  C_24
REMARK    4  A    between atoms: C_7  and  N_8
REMARK    5  A    between atoms: C_16  and  C_17
REMARK    6  A    between atoms: N_28  and  C_29
REMARK                            x       y       z     vdW  Elec       q    Type
REMARK                         _______ _______ _______ _____ _____    ______ ____
ROOT
ATOM      1  N   UNL     1       3.188   6.177  20.173  0.00  0.00    +0.000 N 
ATOM      2  C   UNL     1       4.376   5.969  19.317  0.00  0.00    +0.000 C 
ATOM      3  C   UNL     1       3.999   4.740  18.549  0.00  0.00    +0.000 A 
ATOM      4  C   UNL     1       3.090   4.018  19.330  0.00  0.00    +0.000 A 
ATOM      5  C   UNL     1       2.447   2.881  18.886  0.00  0.00    +0.000 A 
ATOM      6  C   UNL     1       2.727   2.481  17.588  0.00  0.00    +0.000 A 
ATOM      7  F   UNL     1       2.076   1.430  17.073  0.00  0.00    +0.000 F 
ATOM      8  C   UNL     1       3.609   3.202  16.769  0.00  0.00    +0.000 A 
ATOM      9  C   UNL     1       4.265   4.359  17.237  0.00  0.00    +0.000 A 
ATOM     10  C   UNL     1       2.657   4.892  20.441  0.00  0.00    +0.000 C 
ATOM     11  O   UNL     1       1.828   4.570  21.272  0.00  0.00    +0.000 OA
ENDROOT
BRANCH   1  16
ATOM     12  C   UNL     1       1.145   9.250  19.971  0.00  0.00    +0.000 A 
ATOM     13  C   UNL     1       1.434   9.624  18.648  0.00  0.00    +0.000 A 
ATOM     14  C   UNL     1       2.022   8.723  17.765  0.00  0.00    +0.000 A 
ATOM     15  C   UNL     1       2.403   7.461  18.211  0.00  0.00    +0.000 A 
ATOM     16  C   UNL     1       2.286   7.136  19.572  0.00  0.00    +0.000 A 
ATOM     17  C   UNL     1       1.571   7.991  20.421  0.00  0.00    +0.000 A 
BRANCH  12  19
ATOM     18  C   UNL     1      -0.358   9.523  21.933  0.00  0.00    +0.000 C 
ATOM     19  C   UNL     1       0.523  10.268  20.917  0.00  0.00    +0.000 C 
BRANCH  19  20
ATOM     20  C   UNL     1      -0.255  11.362  20.230  0.00  0.00    +0.000 A 
ATOM     21  N   UNL     1      -1.476  11.252  19.741  0.00  0.00    +0.000 NA
ATOM     22  N   UNL     1      -1.859  12.471  19.236  0.00  0.00    +0.000 NA
ATOM     23  C   UNL     1      -0.873  13.305  19.434  0.00  0.00    +0.000 A 
ATOM     24  N   UNL     1       0.159  12.659  20.046  0.00  0.00    +0.000 N 
ATOM     25  C   UNL     1       1.419  13.262  20.392  0.00  0.00    +0.000 C 
ENDBRANCH  19  20
ENDBRANCH  12  19
ENDBRANCH   1  16
BRANCH   9  26
ATOM     26  C   UNL     1       5.098   5.172  16.280  0.00  0.00    +0.000 C 
ATOM     27  F   UNL     1       5.187   4.643  15.031  0.00  0.00    +0.000 F 
ATOM     28  F   UNL     1       4.609   6.431  16.115  0.00  0.00    +0.000 F 
ATOM     29  F   UNL     1       6.380   5.320  16.714  0.00  0.00    +0.000 F 
ENDBRANCH   9  26
TORSDOF 4
ENDMDL
MODEL 7
REMARK VINA RESULT:      -8.1      3.286      4.588
REMARK  Name = 
REMARK  6 active torsions:
REMARK  status: ('A' for Active; 'I' for Inactive)
REMARK    1  A    between atoms: C_1  and  C_2
REMARK    2  A    between atoms: C_2  and  C_3
REMARK    3  A    between atoms: C_2  and  C_24
REMARK    4  A    between atoms: C_7  and  N_8
REMARK    5  A    between atoms: C_16  and  C_17
REMARK    6  A    between atoms: N_28  and  C_29
REMARK                            x       y       z     vdW  Elec       q    Type
REMARK                         _______ _______ _______ _____ _____    ______ ____
ROOT
ATOM      1  N   UNL     1       2.672   6.383  17.705  0.00  0.00    +0.000 N 
ATOM      2  C   UNL     1       1.726   5.254  17.843  0.00  0.00    +0.000 C 
ATOM      3  C   UNL     1       2.557   4.234  18.560  0.00  0.00    +0.000 A 
ATOM      4  C   UNL     1       3.897   4.490  18.248  0.00  0.00    +0.000 A 
ATOM      5  C   UNL     1       4.951   3.810  18.823  0.00  0.00    +0.000 A 
ATOM      6  C   UNL     1       4.623   2.849  19.767  0.00  0.00    +0.000 A 
ATOM      7  F   UNL     1       5.604   2.209  20.417  0.00  0.00    +0.000 F 
ATOM      8  C   UNL     1       3.291   2.592  20.125  0.00  0.00    +0.000 A 
ATOM      9  C   UNL     1       2.222   3.290  19.525  0.00  0.00    +0.000 A 
ATOM     10  C   UNL     1       3.963   5.813  17.592  0.00  0.00    +0.000 C 
ATOM     11  O   UNL     1       5.000   6.344  17.241  0.00  0.00    +0.000 OA
ENDROOT
BRANCH   1  16
ATOM     12  C   UNL     1       1.517   9.523  19.273  0.00  0.00    +0.000 A 
ATOM     13  C   UNL     1       1.058   9.007  20.497  0.00  0.00    +0.000 A 
ATOM     14  C   UNL     1       1.414   7.725  20.907  0.00  0.00    +0.000 A 
ATOM     15  C   UNL     1       2.167   6.910  20.067  0.00  0.00    +0.000 A 
ATOM     16  C   UNL     1       2.480   7.344  18.769  0.00  0.00    +0.000 A 
ATOM     17  C   UNL     1       2.240   8.680  18.417  0.00  0.00    +0.000 A 
BRANCH  12  19
ATOM     18  C   UNL     1       2.239  11.566  18.053  0.00  0.00    +0.000 C 
ATOM     19  C   UNL     1       1.090  10.920  18.844  0.00  0.00    +0.000 C 
BRANCH  19  20
ATOM     20  C   UNL     1       0.649  11.812  19.978  0.00  0.00    +0.000 A 
ATOM     21  N   UNL     1       1.443  12.385  20.865  0.00  0.00    +0.000 NA
ATOM     22  N   UNL     1       0.677  13.153  21.708  0.00  0.00    +0.000 NA
ATOM     23  C   UNL     1      -0.565  13.047  21.317  0.00  0.00    +0.000 A 
ATOM     24  N   UNL     1      -0.638  12.212  20.242  0.00  0.00    +0.000 N 
ATOM     25  C   UNL     1      -1.855  11.843  19.568  0.00  0.00    +0.000 C 
ENDBRANCH  19  20
ENDBRANCH  12  19
ENDBRANCH   1  16
BRANCH   9  26
ATOM     26  C   UNL     1       0.821   3.073  20.036  0.00  0.00    +0.000 C 
ATOM     27  F   UNL     1       0.150   4.219  20.325  0.00  0.00    +0.000 F 
ATOM     28  F   UNL     1       0.046   2.404  19.141  0.00  0.00    +0.000 F 
ATOM     29  F   UNL     1       0.801   2.332  21.178  0.00  0.00    +0.000 F 
ENDBRANCH   9  26
TORSDOF 4
ENDMDL
MODEL 8
REMARK VINA RESULT:      -8.0      1.808      2.454
REMARK  Name = 
REMARK  6 active torsions:
REMARK  status: ('A' for Active; 'I' for Inactive)
REMARK    1  A    between atoms: C_1  and  C_2
REMARK    2  A    between atoms: C_2  and  C_3
REMARK    3  A    between atoms: C_2  and  C_24
REMARK    4  A    between atoms: C_7  and  N_8
REMARK    5  A    between atoms: C_16  and  C_17
REMARK    6  A    between atoms: N_28  and  C_29
REMARK                            x       y       z     vdW  Elec       q    Type
REMARK                         _______ _______ _______ _____ _____    ______ ____
ROOT
ATOM      1  N   UNL     1       3.234   6.184  20.141  0.00  0.00    +0.000 N 
ATOM      2  C   UNL     1       4.439   5.959  19.312  0.00  0.00    +0.000 C 
ATOM      3  C   UNL     1       4.070   4.724  18.550  0.00  0.00    +0.000 A 
ATOM      4  C   UNL     1       3.141   4.016  19.321  0.00  0.00    +0.000 A 
ATOM      5  C   UNL     1       2.500   2.877  18.878  0.00  0.00    +0.000 A 
ATOM      6  C   UNL     1       2.804   2.461  17.591  0.00  0.00    +0.000 A 
ATOM      7  F   UNL     1       2.158   1.407  17.074  0.00  0.00    +0.000 F 
ATOM      8  C   UNL     1       3.708   3.167  16.781  0.00  0.00    +0.000 A 
ATOM      9  C   UNL     1       4.361   4.326  17.249  0.00  0.00    +0.000 A 
ATOM     10  C   UNL     1       2.690   4.906  20.412  0.00  0.00    +0.000 C 
ATOM     11  O   UNL     1       1.843   4.598  21.230  0.00  0.00    +0.000 OA
ENDROOT
BRANCH   1  16
ATOM     12  C   UNL     1       1.067   9.169  19.920  0.00  0.00    +0.000 A 
ATOM     13  C   UNL     1       1.471   9.647  18.662  0.00  0.00    +0.000 A 
ATOM     14  C   UNL     1       2.193   8.836  17.791  0.00  0.00    +0.000 A 
ATOM     15  C   UNL     1       2.591   7.564  18.193  0.00  0.00    +0.000 A 
ATOM     16  C   UNL     1       2.351   7.141  19.510  0.00  0.00    +0.000 A 
ATOM     17  C   UNL     1       1.508   7.903  20.332  0.00  0.00    +0.000 A 
BRANCH  12  19
ATOM     18  C   UNL     1      -0.270   9.254  22.015  0.00  0.00    +0.000 C 
ATOM     19  C   UNL     1       0.299  10.091  20.859  0.00  0.00    +0.000 C 
BRANCH  19  20
ATOM     20  C   UNL     1      -0.789  10.894  20.190  0.00  0.00    +0.000 A 
ATOM     21  N   UNL     1      -1.477  10.527  19.124  0.00  0.00    +0.000 NA
ATOM     22  N   UNL     1      -2.404  11.500  18.844  0.00  0.00    +0.000 NA
ATOM     23  C   UNL     1      -2.275  12.438  19.745  0.00  0.00    +0.000 A 
ATOM     24  N   UNL     1      -1.271  12.110  20.607  0.00  0.00    +0.000 N 
ATOM     25  C   UNL     1      -0.835  12.925  21.710  0.00  0.00    +0.000 C 
ENDBRANCH  19  20
ENDBRANCH  12  19
ENDBRANCH   1  16
BRANCH   9  26
ATOM     26  C   UNL     1       5.218   5.122  16.300  0.00  0.00    +0.000 C 
ATOM     27  F   UNL     1       6.502   5.287  16.713  0.00  0.00    +0.000 F 
ATOM     28  F   UNL     1       5.295   4.546  15.070  0.00  0.00    +0.000 F 
ATOM     29  F   UNL     1       4.729   6.377  16.097  0.00  0.00    +0.000 F 
ENDBRANCH   9  26
TORSDOF 4
ENDMDL
MODEL 9
REMARK VINA RESULT:      -8.0      4.097      8.408
REMARK  Name = 
REMARK  6 active torsions:
REMARK  status: ('A' for Active; 'I' for Inactive)
REMARK    1  A    between atoms: C_1  and  C_2
REMARK    2  A    between atoms: C_2  and  C_3
REMARK    3  A    between atoms: C_2  and  C_24
REMARK    4  A    between atoms: C_7  and  N_8
REMARK    5  A    between atoms: C_16  and  C_17
REMARK    6  A    between atoms: N_28  and  C_29
REMARK                            x       y       z     vdW  Elec       q    Type
REMARK                         _______ _______ _______ _____ _____    ______ ____
ROOT
ATOM      1  N   UNL     1       0.394   9.197  20.611  0.00  0.00    +0.000 N 
ATOM      2  C   UNL     1      -0.887   9.135  19.874  0.00  0.00    +0.000 C 
ATOM      3  C   UNL     1      -1.042  10.546  19.394  0.00  0.00    +0.000 A 
ATOM      4  C   UNL     1      -0.345  11.371  20.283  0.00  0.00    +0.000 A 
ATOM      5  C   UNL     1      -0.182  12.727  20.088  0.00  0.00    +0.000 A 
ATOM      6  C   UNL     1      -0.732  13.254  18.929  0.00  0.00    +0.000 A 
ATOM      7  F   UNL     1      -0.540  14.548  18.643  0.00  0.00    +0.000 F 
ATOM      8  C   UNL     1      -1.408  12.446  18.001  0.00  0.00    +0.000 A 
ATOM      9  C   UNL     1      -1.573  11.063  18.216  0.00  0.00    +0.000 A 
ATOM     10  C   UNL     1       0.486  10.505  21.145  0.00  0.00    +0.000 C 
ATOM     11  O   UNL     1       1.249  10.926  21.995  0.00  0.00    +0.000 OA
ENDROOT
BRANCH   1  16
ATOM     12  C   UNL     1       2.641   6.785  18.941  0.00  0.00    +0.000 A 
ATOM     13  C   UNL     1       2.734   7.401  17.681  0.00  0.00    +0.000 A 
ATOM     14  C   UNL     1       2.330   8.721  17.503  0.00  0.00    +0.000 A 
ATOM     15  C   UNL     1       1.754   9.421  18.559  0.00  0.00    +0.000 A 
ATOM     16  C   UNL     1       1.489   8.764  19.770  0.00  0.00    +0.000 A 
ATOM     17  C   UNL     1       2.021   7.485  19.987  0.00  0.00    +0.000 A 
BRANCH  12  19
ATOM     18  C   UNL     1       2.639   4.837  20.487  0.00  0.00    +0.000 C 
ATOM     19  C   UNL     1       3.070   5.332  19.097  0.00  0.00    +0.000 C 
BRANCH  19  20
ATOM     20  C   UNL     1       4.542   5.090  18.872  0.00  0.00    +0.000 A 
ATOM     21  N   UNL     1       5.508   5.347  19.734  0.00  0.00    +0.000 NA
ATOM     22  N   UNL     1       6.703   4.950  19.185  0.00  0.00    +0.000 NA
ATOM     23  C   UNL     1       6.447   4.448  18.005  0.00  0.00    +0.000 A 
ATOM     24  N   UNL     1       5.108   4.520  17.758  0.00  0.00    +0.000 N 
ATOM     25  C   UNL     1       4.472   4.084  16.543  0.00  0.00    +0.000 C 
ENDBRANCH  19  20
ENDBRANCH  12  19
ENDBRANCH   1  16
BRANCH   9  26
ATOM     26  C   UNL     1      -2.189  10.217  17.132  0.00  0.00    +0.000 C 
ATOM     27  F   UNL     1      -2.635  10.923  16.059  0.00  0.00    +0.000 F 
ATOM     28  F   UNL     1      -1.313   9.302  16.635  0.00  0.00    +0.000 F 
ATOM     29  F   UNL     1      -3.260   9.507  17.581  0.00  0.00    +0.000 F 
ENDBRANCH   9  26
TORSDOF 4
ENDMDL
