MODEL 1
REMARK VINA RESULT:      -8.5      0.000      0.000
REMARK  Name = 
REMARK  5 active torsions:
REMARK  status: ('A' for Active; 'I' for Inactive)
REMARK    1  A    between atoms: C_1  and  C_2
REMARK    2  A    between atoms: C_3  and  C_4
REMARK    3  A    between atoms: N_6  and  C_7
REMARK    4  A    between atoms: C_13  and  C_14
REMARK    5  A    between atoms: C_15  and  C_16
REMARK                            x       y       z     vdW  Elec       q    Type
REMARK                         _______ _______ _______ _____ _____    ______ ____
ROOT
ATOM      1  C   UNL     1       1.624   6.548  21.064  0.00  0.00    +0.000 C 
ATOM      2  C   UNL     1       1.255   7.996  20.824  0.00  0.00    +0.000 C 
ATOM      3  C   UNL     1       1.479   8.730  19.696  0.00  0.00    +0.000 C 
ATOM      4  C   UNL     1       0.981  10.179  19.621  0.00  0.00    +0.000 C 
ATOM      5  N   UNL     1       0.410  10.647  20.886  0.00  0.00    +0.000 N 
ATOM      6  N   UNL     1       0.017  11.918  21.115  0.00  0.00    +0.000 NA
ATOM      7  C   UNL     1      -0.447  11.806  22.364  0.00  0.00    +0.000 A 
ATOM      8  N   UNL     1      -0.318  10.566  22.935  0.00  0.00    +0.000 NA
ATOM      9  C   UNL     1       0.229   9.860  21.980  0.00  0.00    +0.000 A 
ATOM     10  N   UNL     1       0.622   8.578  21.925  0.00  0.00    +0.000 N 
ATOM     11  H   UNL     1       0.507   8.001  22.756  0.00  0.00    +0.000 HD
ENDROOT
BRANCH   3  12
ATOM     12  C   UNL     1       2.181   8.177  18.471  0.00  0.00    +0.000 C 
ATOM     13  O   UNL     1       2.011   8.694  17.374  0.00  0.00    +0.000 OA
ATOM     14  N   UNL     1       3.027   7.107  18.707  0.00  0.00    +0.000 N 
ATOM     15  H   UNL     1       3.191   6.806  19.654  0.00  0.00    +0.000 HD
BRANCH  14  16
ATOM     16  C   UNL     1       3.752   6.350  17.761  0.00  0.00    +0.000 A 
ATOM     17  C   UNL     1       4.674   6.887  16.861  0.00  0.00    +0.000 A 
ATOM     18  C   UNL     1       5.315   6.063  15.928  0.00  0.00    +0.000 A 
ATOM     19  C   UNL     1       5.043   4.698  15.890  0.00  0.00    +0.000 A 
ATOM     20  C   UNL     1       4.134   4.150  16.789  0.00  0.00    +0.000 A 
ATOM     21  C   UNL     1       3.494   4.971  17.720  0.00  0.00    +0.000 A 
ENDBRANCH  14  16
ENDBRANCH   3  12
BRANCH   4  22
ATOM     22  C   UNL     1      -0.020  10.429  18.507  0.00  0.00    +0.000 C 
ATOM     23  C   UNL     1      -1.310  10.052  18.498  0.00  0.00    +0.000 C 
BRANCH  23  24
ATOM     24  C   UNL     1      -2.262  10.407  17.438  0.00  0.00    +0.000 A 
ATOM     25  C   UNL     1      -2.126   9.816  16.175  0.00  0.00    +0.000 A 
ATOM     26  C   UNL     1      -3.060  10.071  15.169  0.00  0.00    +0.000 A 
ATOM     27  C   UNL     1      -4.141  10.912  15.417  0.00  0.00    +0.000 A 
ATOM     28  C   UNL     1      -4.291  11.503  16.669  0.00  0.00    +0.000 A 
ATOM     29  C   UNL     1      -3.360  11.245  17.677  0.00  0.00    +0.000 A 
ENDBRANCH  23  24
ENDBRANCH   4  22
TORSDOF 4
ENDMDL
MODEL 2
REMARK VINA RESULT:      -8.4      0.153      1.318
REMARK  Name = 
REMARK  5 active torsions:
REMARK  status: ('A' for Active; 'I' for Inactive)
REMARK    1  A    between atoms: C_1  and  C_2
REMARK    2  A    between atoms: C_3  and  C_4
REMARK    3  A    between atoms: N_6  and  C_7
REMARK    4  A    between atoms: C_13  and  C_14
REMARK    5  A    between atoms: C_15  and  C_16
REMARK                            x       y       z     vdW  Elec       q    Type
REMARK                         _______ _______ _______ _____ _____    ______ ____
ROOT
ATOM      1  C   UNL     1       1.650   6.716  21.160  0.00  0.00    +0.000 C 
ATOM      2  C   UNL     1       1.257   8.146  20.860  0.00  0.00    +0.000 C 
ATOM      3  C   UNL     1       1.448   8.828  19.693  0.00  0.00    +0.000 C 
ATOM      4  C   UNL     1       0.929  10.265  19.559  0.00  0.00    +0.000 C 
ATOM      5  N   UNL     1       0.377  10.786  20.812  0.00  0.00    +0.000 N 
ATOM      6  N   UNL     1      -0.028  12.061  20.988  0.00  0.00    +0.000 NA
ATOM      7  C   UNL     1      -0.464  12.004  22.251  0.00  0.00    +0.000 A 
ATOM      8  N   UNL     1      -0.308  10.794  22.877  0.00  0.00    +0.000 NA
ATOM      9  C   UNL     1       0.230  10.051  21.946  0.00  0.00    +0.000 A 
ATOM     10  N   UNL     1       0.639   8.773  21.944  0.00  0.00    +0.000 N 
ATOM     11  H   UNL     1       0.549   8.235  22.804  0.00  0.00    +0.000 HD
ENDROOT
BRANCH   3  12
ATOM     12  C   UNL     1       2.132   8.225  18.481  0.00  0.00    +0.000 C 
ATOM     13  O   UNL     1       2.005   8.741  17.378  0.00  0.00    +0.000 OA
ATOM     14  N   UNL     1       2.913   7.111  18.737  0.00  0.00    +0.000 N 
ATOM     15  H   UNL     1       3.049   6.810  19.687  0.00  0.00    +0.000 HD
BRANCH  14  16
ATOM     16  C   UNL     1       3.606   6.306  17.806  0.00  0.00    +0.000 A 
ATOM     17  C   UNL     1       3.399   4.935  17.641  0.00  0.00    +0.000 A 
ATOM     18  C   UNL     1       4.165   4.210  16.721  0.00  0.00    +0.000 A 
ATOM     19  C   UNL     1       5.137   4.849  15.954  0.00  0.00    +0.000 A 
ATOM     20  C   UNL     1       5.343   6.216  16.101  0.00  0.00    +0.000 A 
ATOM     21  C   UNL     1       4.581   6.940  17.021  0.00  0.00    +0.000 A 
ENDBRANCH  14  16
ENDBRANCH   3  12
BRANCH   4  22
ATOM     22  C   UNL     1      -0.097  10.448  18.456  0.00  0.00    +0.000 C 
ATOM     23  C   UNL     1      -1.364   9.998  18.465  0.00  0.00    +0.000 C 
BRANCH  23  24
ATOM     24  C   UNL     1      -2.348  10.290  17.415  0.00  0.00    +0.000 A 
ATOM     25  C   UNL     1      -3.422  11.141  17.707  0.00  0.00    +0.000 A 
ATOM     26  C   UNL     1      -4.331  11.501  16.710  0.00  0.00    +0.000 A 
ATOM     27  C   UNL     1      -4.173  11.021  15.413  0.00  0.00    +0.000 A 
ATOM     28  C   UNL     1      -3.107  10.178  15.109  0.00  0.00    +0.000 A 
ATOM     29  C   UNL     1      -2.195   9.821  16.103  0.00  0.00    +0.000 A 
ENDBRANCH  23  24
ENDBRANCH   4  22
TORSDOF 4
ENDMDL
MODEL 3
REMARK VINA RESULT:      -8.1      1.994      3.489
REMARK  Name = 
REMARK  5 active torsions:
REMARK  status: ('A' for Active; 'I' for Inactive)
REMARK    1  A    between atoms: C_1  and  C_2
REMARK    2  A    between atoms: C_3  and  C_4
REMARK    3  A    between atoms: N_6  and  C_7
REMARK    4  A    between atoms: C_13  and  C_14
REMARK    5  A    between atoms: C_15  and  C_16
REMARK                            x       y       z     vdW  Elec       q    Type
REMARK                         _______ _______ _______ _____ _____    ______ ____
ROOT
ATOM      1  C   UNL     1      -0.330   9.533  23.481  0.00  0.00    +0.000 C 
ATOM      2  C   UNL     1      -0.866  10.741  22.745  0.00  0.00    +0.000 C 
ATOM      3  C   UNL     1      -0.426  11.248  21.557  0.00  0.00    +0.000 C 
ATOM      4  C   UNL     1      -1.136  12.458  20.937  0.00  0.00    +0.000 C 
ATOM      5  N   UNL     1      -2.169  13.017  21.812  0.00  0.00    +0.000 N 
ATOM      6  N   UNL     1      -2.847  14.154  21.551  0.00  0.00    +0.000 NA
ATOM      7  C   UNL     1      -3.667  14.194  22.608  0.00  0.00    +0.000 A 
ATOM      8  N   UNL     1      -3.501  13.187  23.524  0.00  0.00    +0.000 NA
ATOM      9  C   UNL     1      -2.547  12.466  22.996  0.00  0.00    +0.000 A 
ATOM     10  N   UNL     1      -1.924  11.356  23.420  0.00  0.00    +0.000 N 
ATOM     11  H   UNL     1      -2.194  10.963  24.319  0.00  0.00    +0.000 HD
ENDROOT
BRANCH   3  12
ATOM     12  C   UNL     1       0.731  10.652  20.777  0.00  0.00    +0.000 C 
ATOM     13  O   UNL     1       1.720  11.328  20.525  0.00  0.00    +0.000 OA
ATOM     14  N   UNL     1       0.586   9.319  20.432  0.00  0.00    +0.000 N 
ATOM     15  H   UNL     1      -0.212   8.805  20.766  0.00  0.00    +0.000 HD
BRANCH  14  16
ATOM     16  C   UNL     1       1.459   8.526  19.655  0.00  0.00    +0.000 A 
ATOM     17  C   UNL     1       2.073   7.356  20.105  0.00  0.00    +0.000 A 
ATOM     18  C   UNL     1       2.958   6.658  19.275  0.00  0.00    +0.000 A 
ATOM     19  C   UNL     1       3.233   7.119  17.990  0.00  0.00    +0.000 A 
ATOM     20  C   UNL     1       2.618   8.278  17.527  0.00  0.00    +0.000 A 
ATOM     21  C   UNL     1       1.735   8.976  18.354  0.00  0.00    +0.000 A 
ENDBRANCH  14  16
ENDBRANCH   3  12
BRANCH   4  22
ATOM     22  C   UNL     1      -1.743  12.183  19.573  0.00  0.00    +0.000 C 
ATOM     23  C   UNL     1      -1.949  10.974  19.022  0.00  0.00    +0.000 C 
BRANCH  23  24
ATOM     24  C   UNL     1      -2.632  10.760  17.741  0.00  0.00    +0.000 A 
ATOM     25  C   UNL     1      -3.791  11.496  17.457  0.00  0.00    +0.000 A 
ATOM     26  C   UNL     1      -4.420  11.373  16.216  0.00  0.00    +0.000 A 
ATOM     27  C   UNL     1      -3.897  10.521  15.248  0.00  0.00    +0.000 A 
ATOM     28  C   UNL     1      -2.744   9.788  15.516  0.00  0.00    +0.000 A 
ATOM     29  C   UNL     1      -2.112   9.912  16.754  0.00  0.00    +0.000 A 
ENDBRANCH  23  24
ENDBRANCH   4  22
TORSDOF 4
ENDMDL
MODEL 4
REMARK VINA RESULT:      -8.1      6.720      8.841
REMARK  Name = 
REMARK  5 active torsions:
REMARK  status: ('A' for Active; 'I' for Inactive)
REMARK    1  A    between atoms: C_1  and  C_2
REMARK    2  A    between atoms: C_3  and  C_4
REMARK    3  A    between atoms: N_6  and  C_7
REMARK    4  A    between atoms: C_13  and  C_14
REMARK    5  A    between atoms: C_15  and  C_16
REMARK                            x       y       z     vdW  Elec       q    Type
REMARK                         _______ _______ _______ _____ _____    ______ ____
ROOT
ATOM      1  C   UNL     1       8.239   5.684  20.033  0.00  0.00    +0.000 C 
ATOM      2  C   UNL     1       6.991   5.638  19.178  0.00  0.00    +0.000 C 
ATOM      3  C   UNL     1       6.686   6.439  18.117  0.00  0.00    +0.000 C 
ATOM      4  C   UNL     1       5.387   6.204  17.336  0.00  0.00    +0.000 C 
ATOM      5  N   UNL     1       4.541   5.174  17.942  0.00  0.00    +0.000 N 
ATOM      6  N   UNL     1       3.296   4.871  17.518  0.00  0.00    +0.000 NA
ATOM      7  C   UNL     1       2.991   3.874  18.357  0.00  0.00    +0.000 A 
ATOM      8  N   UNL     1       3.944   3.581  19.299  0.00  0.00    +0.000 NA
ATOM      9  C   UNL     1       4.905   4.420  19.014  0.00  0.00    +0.000 A 
ATOM     10  N   UNL     1       6.099   4.642  19.584  0.00  0.00    +0.000 N 
ATOM     11  H   UNL     1       6.355   4.092  20.401  0.00  0.00    +0.000 HD
ENDROOT
BRANCH   3  12
ATOM     12  C   UNL     1       7.591   7.557  17.633  0.00  0.00    +0.000 C 
ATOM     13  O   UNL     1       8.222   7.434  16.591  0.00  0.00    +0.000 OA
ATOM     14  N   UNL     1       7.600   8.693  18.422  0.00  0.00    +0.000 N 
ATOM     15  H   UNL     1       6.974   8.755  19.208  0.00  0.00    +0.000 HD
BRANCH  14  16
ATOM     16  C   UNL     1       8.389   9.853  18.262  0.00  0.00    +0.000 A 
ATOM     17  C   UNL     1       9.675  10.011  18.782  0.00  0.00    +0.000 A 
ATOM     18  C   UNL     1      10.366  11.216  18.607  0.00  0.00    +0.000 A 
ATOM     19  C   UNL     1       9.781  12.269  17.909  0.00  0.00    +0.000 A 
ATOM     20  C   UNL     1       8.505  12.119  17.376  0.00  0.00    +0.000 A 
ATOM     21  C   UNL     1       7.814  10.918  17.551  0.00  0.00    +0.000 A 
ENDBRANCH  14  16
ENDBRANCH   3  12
BRANCH   4  22
ATOM     22  C   UNL     1       5.603   5.865  15.872  0.00  0.00    +0.000 C 
ATOM     23  C   UNL     1       6.331   4.842  15.391  0.00  0.00    +0.000 C 
BRANCH  23  24
ATOM     24  C   UNL     1       6.425   4.497  13.967  0.00  0.00    +0.000 A 
ATOM     25  C   UNL     1       7.458   5.052  13.200  0.00  0.00    +0.000 A 
ATOM     26  C   UNL     1       7.622   4.684  11.863  0.00  0.00    +0.000 A 
ATOM     27  C   UNL     1       6.763   3.756  11.282  0.00  0.00    +0.000 A 
ATOM     28  C   UNL     1       5.735   3.194  12.035  0.00  0.00    +0.000 A 
ATOM     29  C   UNL     1       5.572   3.558  13.373  0.00  0.00    +0.000 A 
ENDBRANCH  23  24
ENDBRANCH   4  22
TORSDOF 4
ENDMDL
MODEL 5
REMARK VINA RESULT:      -8.0      6.843      8.883
REMARK  Name = 
REMARK  5 active torsions:
REMARK  status: ('A' for Active; 'I' for Inactive)
REMARK    1  A    between atoms: C_1  and  C_2
REMARK    2  A    between atoms: C_3  and  C_4
REMARK    3  A    between atoms: N_6  and  C_7
REMARK    4  A    between atoms: C_13  and  C_14
REMARK    5  A    between atoms: C_15  and  C_16
REMARK                            x       y       z     vdW  Elec       q    Type
REMARK                         _______ _______ _______ _____ _____    ______ ____
ROOT
ATOM      1  C   UNL     1       8.215   5.679  20.054  0.00  0.00    +0.000 C 
ATOM      2  C   UNL     1       6.991   5.593  19.169  0.00  0.00    +0.000 C 
ATOM      3  C   UNL     1       6.686   6.386  18.102  0.00  0.00    +0.000 C 
ATOM      4  C   UNL     1       5.415   6.109  17.288  0.00  0.00    +0.000 C 
ATOM      5  N   UNL     1       4.589   5.051  17.872  0.00  0.00    +0.000 N 
ATOM      6  N   UNL     1       3.366   4.708  17.417  0.00  0.00    +0.000 NA
ATOM      7  C   UNL     1       3.073   3.700  18.247  0.00  0.00    +0.000 A 
ATOM      8  N   UNL     1       4.011   3.437  19.213  0.00  0.00    +0.000 NA
ATOM      9  C   UNL     1       4.951   4.308  18.952  0.00  0.00    +0.000 A 
ATOM     10  N   UNL     1       6.123   4.568  19.551  0.00  0.00    +0.000 N 
ATOM     11  H   UNL     1       6.376   4.025  20.374  0.00  0.00    +0.000 HD
ENDROOT
BRANCH   3  12
ATOM     12  C   UNL     1       7.565   7.534  17.641  0.00  0.00    +0.000 C 
ATOM     13  O   UNL     1       8.202   7.445  16.599  0.00  0.00    +0.000 OA
ATOM     14  N   UNL     1       7.545   8.655  18.452  0.00  0.00    +0.000 N 
ATOM     15  H   UNL     1       6.916   8.687  19.236  0.00  0.00    +0.000 HD
BRANCH  14  16
ATOM     16  C   UNL     1       8.306   9.837  18.315  0.00  0.00    +0.000 A 
ATOM     17  C   UNL     1       7.946  10.919  17.510  0.00  0.00    +0.000 A 
ATOM     18  C   UNL     1       8.787  12.032  17.404  0.00  0.00    +0.000 A 
ATOM     19  C   UNL     1       9.990  12.076  18.103  0.00  0.00    +0.000 A 
ATOM     20  C   UNL     1      10.355  11.009  18.917  0.00  0.00    +0.000 A 
ATOM     21  C   UNL     1       9.517   9.897  19.023  0.00  0.00    +0.000 A 
ENDBRANCH  14  16
ENDBRANCH   3  12
BRANCH   4  22
ATOM     22  C   UNL     1       5.678   5.780  15.830  0.00  0.00    +0.000 C 
ATOM     23  C   UNL     1       6.435   4.771  15.366  0.00  0.00    +0.000 C 
BRANCH  23  24
ATOM     24  C   UNL     1       6.575   4.434  13.944  0.00  0.00    +0.000 A 
ATOM     25  C   UNL     1       5.680   3.521  13.370  0.00  0.00    +0.000 A 
ATOM     26  C   UNL     1       5.737   3.239  12.004  0.00  0.00    +0.000 A 
ATOM     27  C   UNL     1       6.681   3.868  11.198  0.00  0.00    +0.000 A 
ATOM     28  C   UNL     1       7.573   4.781  11.755  0.00  0.00    +0.000 A 
ATOM     29  C   UNL     1       7.516   5.067  13.120  0.00  0.00    +0.000 A 
ENDBRANCH  23  24
ENDBRANCH   4  22
TORSDOF 4
ENDMDL
MODEL 6
REMARK VINA RESULT:      -8.0      4.417      7.128
REMARK  Name = 
REMARK  5 active torsions:
REMARK  status: ('A' for Active; 'I' for Inactive)
REMARK    1  A    between atoms: C_1  and  C_2
REMARK    2  A    between atoms: C_3  and  C_4
REMARK    3  A    between atoms: N_6  and  C_7
REMARK    4  A    between atoms: C_13  and  C_14
REMARK    5  A    between atoms: C_15  and  C_16
REMARK                            x       y       z     vdW  Elec       q    Type
REMARK                         _______ _______ _______ _____ _____    ______ ____
ROOT
ATOM      1  C   UNL     1       7.107   4.540  15.737  0.00  0.00    +0.000 C 
ATOM      2  C   UNL     1       6.077   4.373  16.834  0.00  0.00    +0.000 C 
ATOM      3  C   UNL     1       6.024   5.036  18.025  0.00  0.00    +0.000 C 
ATOM      4  C   UNL     1       4.865   4.768  18.993  0.00  0.00    +0.000 C 
ATOM      5  N   UNL     1       3.989   3.686  18.540  0.00  0.00    +0.000 N 
ATOM      6  N   UNL     1       2.974   3.178  19.270  0.00  0.00    +0.000 NA
ATOM      7  C   UNL     1       2.489   2.273  18.413  0.00  0.00    +0.000 A 
ATOM      8  N   UNL     1       3.168   2.157  17.227  0.00  0.00    +0.000 NA
ATOM      9  C   UNL     1       4.110   3.057  17.341  0.00  0.00    +0.000 A 
ATOM     10  N   UNL     1       5.109   3.416  16.521  0.00  0.00    +0.000 N 
ATOM     11  H   UNL     1       5.210   2.924  15.636  0.00  0.00    +0.000 HD
ENDROOT
BRANCH   3  12
ATOM     12  C   UNL     1       7.051   6.070  18.447  0.00  0.00    +0.000 C 
ATOM     13  O   UNL     1       7.896   5.795  19.290  0.00  0.00    +0.000 OA
ATOM     14  N   UNL     1       6.973   7.284  17.786  0.00  0.00    +0.000 N 
ATOM     15  H   UNL     1       6.315   7.396  17.033  0.00  0.00    +0.000 HD
BRANCH  14  16
ATOM     16  C   UNL     1       7.743   8.446  18.015  0.00  0.00    +0.000 A 
ATOM     17  C   UNL     1       8.794   8.528  18.929  0.00  0.00    +0.000 A 
ATOM     18  C   UNL     1       9.474   9.737  19.119  0.00  0.00    +0.000 A 
ATOM     19  C   UNL     1       9.113  10.870  18.394  0.00  0.00    +0.000 A 
ATOM     20  C   UNL     1       8.074  10.797  17.472  0.00  0.00    +0.000 A 
ATOM     21  C   UNL     1       7.395   9.591  17.283  0.00  0.00    +0.000 A 
ENDBRANCH  14  16
ENDBRANCH   3  12
BRANCH   4  22
ATOM     22  C   UNL     1       4.020   5.993  19.295  0.00  0.00    +0.000 C 
ATOM     23  C   UNL     1       3.214   6.635  18.432  0.00  0.00    +0.000 C 
BRANCH  23  24
ATOM     24  C   UNL     1       2.340   7.755  18.801  0.00  0.00    +0.000 A 
ATOM     25  C   UNL     1       1.853   7.834  20.113  0.00  0.00    +0.000 A 
ATOM     26  C   UNL     1       1.084   8.926  20.518  0.00  0.00    +0.000 A 
ATOM     27  C   UNL     1       0.799   9.952  19.622  0.00  0.00    +0.000 A 
ATOM     28  C   UNL     1       1.280   9.888  18.316  0.00  0.00    +0.000 A 
ATOM     29  C   UNL     1       2.052   8.798  17.911  0.00  0.00    +0.000 A 
ENDBRANCH  23  24
ENDBRANCH   4  22
TORSDOF 4
ENDMDL
MODEL 7
REMARK VINA RESULT:      -7.8      4.337      7.062
REMARK  Name = 
REMARK  5 active torsions:
REMARK  status: ('A' for Active; 'I' for Inactive)
REMARK    1  A    between atoms: C_1  and  C_2
REMARK    2  A    between atoms: C_3  and  C_4
REMARK    3  A    between atoms: N_6  and  C_7
REMARK    4  A    between atoms: C_13  and  C_14
REMARK    5  A    between atoms: C_15  and  C_16
REMARK                            x       y       z     vdW  Elec       q    Type
REMARK                         _______ _______ _______ _____ _____    ______ ____
ROOT
ATOM      1  C   UNL     1       7.080   4.522  15.702  0.00  0.00    +0.000 C 
ATOM      2  C   UNL     1       6.092   4.366  16.837  0.00  0.00    +0.000 C 
ATOM      3  C   UNL     1       6.064   5.063  18.010  0.00  0.00    +0.000 C 
ATOM      4  C   UNL     1       4.946   4.797  19.025  0.00  0.00    +0.000 C 
ATOM      5  N   UNL     1       4.080   3.682  18.635  0.00  0.00    +0.000 N 
ATOM      6  N   UNL     1       3.104   3.173  19.414  0.00  0.00    +0.000 NA
ATOM      7  C   UNL     1       2.611   2.232  18.601  0.00  0.00    +0.000 A 
ATOM      8  N   UNL     1       3.252   2.096  17.396  0.00  0.00    +0.000 NA
ATOM      9  C   UNL     1       4.175   3.021  17.451  0.00  0.00    +0.000 A 
ATOM     10  N   UNL     1       5.137   3.378  16.586  0.00  0.00    +0.000 N 
ATOM     11  H   UNL     1       5.219   2.862  15.713  0.00  0.00    +0.000 HD
ENDROOT
BRANCH   3  12
ATOM     12  C   UNL     1       7.081   6.132  18.366  0.00  0.00    +0.000 C 
ATOM     13  O   UNL     1       8.020   5.870  19.105  0.00  0.00    +0.000 OA
ATOM     14  N   UNL     1       6.877   7.363  17.767  0.00  0.00    +0.000 N 
ATOM     15  H   UNL     1       6.139   7.467  17.090  0.00  0.00    +0.000 HD
BRANCH  14  16
ATOM     16  C   UNL     1       7.611   8.553  17.961  0.00  0.00    +0.000 A 
ATOM     17  C   UNL     1       7.375   9.746  17.276  0.00  0.00    +0.000 A 
ATOM     18  C   UNL     1       8.184  10.865  17.506  0.00  0.00    +0.000 A 
ATOM     19  C   UNL     1       9.229  10.803  18.423  0.00  0.00    +0.000 A 
ATOM     20  C   UNL     1       9.467   9.623  19.120  0.00  0.00    +0.000 A 
ATOM     21  C   UNL     1       8.661   8.506  18.891  0.00  0.00    +0.000 A 
ENDBRANCH  14  16
ENDBRANCH   3  12
BRANCH   4  22
ATOM     22  C   UNL     1       4.082   6.011  19.320  0.00  0.00    +0.000 C 
ATOM     23  C   UNL     1       3.255   6.627  18.458  0.00  0.00    +0.000 C 
BRANCH  23  24
ATOM     24  C   UNL     1       2.365   7.736  18.823  0.00  0.00    +0.000 A 
ATOM     25  C   UNL     1       1.922   8.610  17.821  0.00  0.00    +0.000 A 
ATOM     26  C   UNL     1       1.013   9.627  18.120  0.00  0.00    +0.000 A 
ATOM     27  C   UNL     1       0.534   9.777  19.419  0.00  0.00    +0.000 A 
ATOM     28  C   UNL     1       0.963   8.913  20.422  0.00  0.00    +0.000 A 
ATOM     29  C   UNL     1       1.869   7.893  20.124  0.00  0.00    +0.000 A 
ENDBRANCH  23  24
ENDBRANCH   4  22
TORSDOF 4
ENDMDL
MODEL 8
REMARK VINA RESULT:      -7.7      3.446      7.442
REMARK  Name = 
REMARK  5 active torsions:
REMARK  status: ('A' for Active; 'I' for Inactive)
REMARK    1  A    between atoms: C_1  and  C_2
REMARK    2  A    between atoms: C_3  and  C_4
REMARK    3  A    between atoms: N_6  and  C_7
REMARK    4  A    between atoms: C_13  and  C_14
REMARK    5  A    between atoms: C_15  and  C_16
REMARK                            x       y       z     vdW  Elec       q    Type
REMARK                         _______ _______ _______ _____ _____    ______ ____
ROOT
ATOM      1  C   UNL     1      -3.637  13.194  21.188  0.00  0.00    +0.000 C 
ATOM      2  C   UNL     1      -3.026  12.581  19.947  0.00  0.00    +0.000 C 
ATOM      3  C   UNL     1      -1.701  12.383  19.690  0.00  0.00    +0.000 C 
ATOM      4  C   UNL     1      -1.274  11.693  18.388  0.00  0.00    +0.000 C 
ATOM      5  N   UNL     1      -2.401  11.436  17.488  0.00  0.00    +0.000 N 
ATOM      6  N   UNL     1      -2.273  10.955  16.234  0.00  0.00    +0.000 NA
ATOM      7  C   UNL     1      -3.559  10.874  15.875  0.00  0.00    +0.000 A 
ATOM      8  N   UNL     1      -4.463  11.321  16.804  0.00  0.00    +0.000 NA
ATOM      9  C   UNL     1      -3.701  11.673  17.807  0.00  0.00    +0.000 A 
ATOM     10  N   UNL     1      -3.986  12.205  19.005  0.00  0.00    +0.000 N 
ATOM     11  H   UNL     1      -4.960  12.403  19.227  0.00  0.00    +0.000 HD
ENDROOT
BRANCH   3  12
ATOM     12  C   UNL     1      -0.598  12.787  20.651  0.00  0.00    +0.000 C 
ATOM     13  O   UNL     1      -0.587  12.353  21.795  0.00  0.00    +0.000 OA
ATOM     14  N   UNL     1       0.372  13.620  20.121  0.00  0.00    +0.000 N 
ATOM     15  H   UNL     1       0.345  13.849  19.141  0.00  0.00    +0.000 HD
BRANCH  14  16
ATOM     16  C   UNL     1       1.467  14.209  20.789  0.00  0.00    +0.000 A 
ATOM     17  C   UNL     1       1.358  15.228  21.736  0.00  0.00    +0.000 A 
ATOM     18  C   UNL     1       2.506  15.781  22.316  0.00  0.00    +0.000 A 
ATOM     19  C   UNL     1       3.769  15.317  21.959  0.00  0.00    +0.000 A 
ATOM     20  C   UNL     1       3.890  14.293  21.025  0.00  0.00    +0.000 A 
ATOM     21  C   UNL     1       2.745  13.742  20.445  0.00  0.00    +0.000 A 
ENDBRANCH  14  16
ENDBRANCH   3  12
BRANCH   4  22
ATOM     22  C   UNL     1      -0.509  10.400  18.600  0.00  0.00    +0.000 C 
ATOM     23  C   UNL     1       0.819  10.231  18.473  0.00  0.00    +0.000 C 
BRANCH  23  24
ATOM     24  C   UNL     1       1.523   8.982  18.788  0.00  0.00    +0.000 A 
ATOM     25  C   UNL     1       1.395   8.435  20.072  0.00  0.00    +0.000 A 
ATOM     26  C   UNL     1       1.988   7.208  20.380  0.00  0.00    +0.000 A 
ATOM     27  C   UNL     1       2.706   6.515  19.410  0.00  0.00    +0.000 A 
ATOM     28  C   UNL     1       2.837   7.046  18.130  0.00  0.00    +0.000 A 
ATOM     29  C   UNL     1       2.242   8.270  17.819  0.00  0.00    +0.000 A 
ENDBRANCH  23  24
ENDBRANCH   4  22
TORSDOF 4
ENDMDL
MODEL 9
REMARK VINA RESULT:      -7.6      3.815      7.953
REMARK  Name = 
REMARK  5 active torsions:
REMARK  status: ('A' for Active; 'I' for Inactive)
REMARK    1  A    between atoms: C_1  and  C_2
REMARK    2  A    between atoms: C_3  and  C_4
REMARK    3  A    between atoms: N_6  and  C_7
REMARK    4  A    between atoms: C_13  and  C_14
REMARK    5  A    between atoms: C_15  and  C_16
REMARK                            x       y       z     vdW  Elec       q    Type
REMARK                         _______ _______ _______ _____ _____    ______ ____
ROOT
ATOM      1  C   UNL     1       0.306   9.378  23.313  0.00  0.00    +0.000 C 
ATOM      2  C   UNL     1       0.553   9.655  21.847  0.00  0.00    +0.000 C 
ATOM      3  C   UNL     1       0.173  10.758  21.138  0.00  0.00    +0.000 C 
ATOM      4  C   UNL     1       0.564  10.883  19.661  0.00  0.00    +0.000 C 
ATOM      5  N   UNL     1       1.221   9.681  19.145  0.00  0.00    +0.000 N 
ATOM      6  N   UNL     1       1.548   9.493  17.849  0.00  0.00    +0.000 NA
ATOM      7  C   UNL     1       2.136   8.294  17.919  0.00  0.00    +0.000 A 
ATOM      8  N   UNL     1       2.146   7.711  19.161  0.00  0.00    +0.000 NA
ATOM      9  C   UNL     1       1.558   8.608  19.909  0.00  0.00    +0.000 A 
ATOM     10  N   UNL     1       1.248   8.621  21.214  0.00  0.00    +0.000 N 
ATOM     11  H   UNL     1       1.480   7.805  21.776  0.00  0.00    +0.000 HD
ENDROOT
BRANCH   3  12
ATOM     12  C   UNL     1      -0.605  11.909  21.748  0.00  0.00    +0.000 C 
ATOM     13  O   UNL     1      -0.015  12.863  22.237  0.00  0.00    +0.000 OA
ATOM     14  N   UNL     1      -1.982  11.802  21.662  0.00  0.00    +0.000 N 
ATOM     15  H   UNL     1      -2.388  11.035  21.152  0.00  0.00    +0.000 HD
BRANCH  14  16
ATOM     16  C   UNL     1      -2.954  12.676  22.196  0.00  0.00    +0.000 A 
ATOM     17  C   UNL     1      -3.536  13.733  21.494  0.00  0.00    +0.000 A 
ATOM     18  C   UNL     1      -4.461  14.575  22.122  0.00  0.00    +0.000 A 
ATOM     19  C   UNL     1      -4.816  14.365  23.452  0.00  0.00    +0.000 A 
ATOM     20  C   UNL     1      -4.251  13.309  24.158  0.00  0.00    +0.000 A 
ATOM     21  C   UNL     1      -3.327  12.469  23.533  0.00  0.00    +0.000 A 
ENDBRANCH  14  16
ENDBRANCH   3  12
BRANCH   4  22
ATOM     22  C   UNL     1       1.434  12.089  19.355  0.00  0.00    +0.000 C 
ATOM     23  C   UNL     1       1.043  13.214  18.732  0.00  0.00    +0.000 C 
BRANCH  23  24
ATOM     24  C   UNL     1       1.899  14.394  18.550  0.00  0.00    +0.000 A 
ATOM     25  C   UNL     1       3.201  14.220  18.062  0.00  0.00    +0.000 A 
ATOM     26  C   UNL     1       4.013  15.326  17.804  0.00  0.00    +0.000 A 
ATOM     27  C   UNL     1       3.532  16.613  18.024  0.00  0.00    +0.000 A 
ATOM     28  C   UNL     1       2.238  16.800  18.504  0.00  0.00    +0.000 A 
ATOM     29  C   UNL     1       1.424  15.695  18.760  0.00  0.00    +0.000 A 
ENDBRANCH  23  24
ENDBRANCH   4  22
TORSDOF 4
ENDMDL
