MODEL 1
REMARK VINA RESULT:      -7.7      0.000      0.000
REMARK  Name = 
REMARK  8 active torsions:
REMARK  status: ('A' for Active; 'I' for Inactive)
REMARK    1  A    between atoms: C_1  and  N_2
REMARK    2  A    between atoms: N_2  and  C_3
REMARK    3  A    between atoms: C_3  and  C_4
REMARK    4  A    between atoms: C_4  and  C_5
REMARK    5  A    between atoms: C_9  and  N_10
REMARK    6  A    between atoms: C_15  and  C_16
REMARK    7  A    between atoms: C_16  and  N_17
REMARK    8  A    between atoms: C_24  and  C_25
REMARK                            x       y       z     vdW  Elec       q    Type
REMARK                         _______ _______ _______ _____ _____    ______ ____
ROOT
ATOM      1  N   UNL     1      -0.082   9.348  20.957  0.00  0.00    +0.000 N 
ATOM      2  C   UNL     1      -1.246   9.291  20.027  0.00  0.00    +0.000 C 
ATOM      3  C   UNL     1      -1.321  10.711  19.548  0.00  0.00    +0.000 A 
ATOM      4  C   UNL     1      -0.789  11.514  20.561  0.00  0.00    +0.000 A 
ATOM      5  C   UNL     1      -0.456  12.842  20.383  0.00  0.00    +0.000 A 
ATOM      6  C   UNL     1      -0.623  13.377  19.105  0.00  0.00    +0.000 A 
ATOM      7  C   UNL     1      -1.208  12.587  18.083  0.00  0.00    +0.000 A 
ATOM      8  C   UNL     1      -1.564  11.234  18.284  0.00  0.00    +0.000 A 
ATOM      9  C   UNL     1      -0.153  10.622  21.559  0.00  0.00    +0.000 C 
ATOM     10  O   UNL     1       0.379  11.014  22.579  0.00  0.00    +0.000 OA
ENDROOT
BRANCH   1  15
ATOM     11  C   UNL     1       2.252   7.084  19.360  0.00  0.00    +0.000 A 
ATOM     12  C   UNL     1       2.322   7.745  18.116  0.00  0.00    +0.000 A 
ATOM     13  C   UNL     1       1.984   9.090  17.977  0.00  0.00    +0.000 A 
ATOM     14  C   UNL     1       1.447   9.779  19.056  0.00  0.00    +0.000 A 
ATOM     15  C   UNL     1       1.159   9.081  20.236  0.00  0.00    +0.000 A 
ATOM     16  C   UNL     1       1.742   7.832  20.438  0.00  0.00    +0.000 A 
BRANCH  11  17
ATOM     17  C   UNL     1       2.664   5.540  19.542  0.00  0.00    +0.000 C 
ATOM     18  C   UNL     1       2.502   4.581  18.327  0.00  0.00    +0.000 C 
ATOM     19  O   UNL     1       3.922   4.624  18.050  0.00  0.00    +0.000 OA
ATOM     20  C   UNL     1       4.171   5.203  19.352  0.00  0.00    +0.000 C 
BRANCH  17  21
ATOM     21  C   UNL     1       2.066   4.989  20.848  0.00  0.00    +0.000 C 
BRANCH  21  23
ATOM     22  C   UNL     1       1.464   2.725  21.439  0.00  0.00    +0.000 C 
ATOM     23  N   UNL     1       1.164   3.858  20.575  0.00  0.00    +0.000 NA
ATOM     24  H   UNL     1       0.200   4.148  20.756  0.00  0.00    +0.000 HD
ENDBRANCH  21  23
ENDBRANCH  17  21
ENDBRANCH  11  17
ENDBRANCH   1  15
BRANCH   8  25
ATOM     25  C   UNL     1      -2.042  10.417  17.111  0.00  0.00    +0.000 C 
ATOM     26  F   UNL     1      -3.217   9.769  17.332  0.00  0.00    +0.000 F 
ATOM     27  F   UNL     1      -2.247  11.176  15.999  0.00  0.00    +0.000 F 
ATOM     28  F   UNL     1      -1.147   9.455  16.749  0.00  0.00    +0.000 F 
ENDBRANCH   8  25
BRANCH   6  29
ATOM     29  C   UNL     1      -0.129  14.770  18.799  0.00  0.00    +0.000 C 
BRANCH  29  30
ATOM     30  N   UNL     1       1.266  14.903  19.120  0.00  0.00    +0.000 N 
ATOM     31  C   UNL     1       2.290  14.231  18.393  0.00  0.00    +0.000 C 
ATOM     32  N   UNL     1       3.436  14.251  19.280  0.00  0.00    +0.000 NA
ATOM     33  C   UNL     1       3.231  15.363  20.221  0.00  0.00    +0.000 C 
ATOM     34  C   UNL     1       1.744  15.629  20.184  0.00  0.00    +0.000 C 
ATOM     35  O   UNL     1       1.111  16.351  20.937  0.00  0.00    +0.000 OA
ATOM     36  H   UNL     1       4.296  14.371  18.758  0.00  0.00    +0.000 HD
ENDBRANCH  29  30
ENDBRANCH   6  29
TORSDOF 7
ENDMDL
MODEL 2
REMARK VINA RESULT:      -7.7      0.853      1.023
REMARK  Name = 
REMARK  8 active torsions:
REMARK  status: ('A' for Active; 'I' for Inactive)
REMARK    1  A    between atoms: C_1  and  N_2
REMARK    2  A    between atoms: N_2  and  C_3
REMARK    3  A    between atoms: C_3  and  C_4
REMARK    4  A    between atoms: C_4  and  C_5
REMARK    5  A    between atoms: C_9  and  N_10
REMARK    6  A    between atoms: C_15  and  C_16
REMARK    7  A    between atoms: C_16  and  N_17
REMARK    8  A    between atoms: C_24  and  C_25
REMARK                            x       y       z     vdW  Elec       q    Type
REMARK                         _______ _______ _______ _____ _____    ______ ____
ROOT
ATOM      1  N   UNL     1      -0.060   9.343  20.925  0.00  0.00    +0.000 N 
ATOM      2  C   UNL     1      -1.230   9.288  20.002  0.00  0.00    +0.000 C 
ATOM      3  C   UNL     1      -1.314  10.711  19.535  0.00  0.00    +0.000 A 
ATOM      4  C   UNL     1      -0.779  11.509  20.551  0.00  0.00    +0.000 A 
ATOM      5  C   UNL     1      -0.453  12.839  20.382  0.00  0.00    +0.000 A 
ATOM      6  C   UNL     1      -0.631  13.383  19.109  0.00  0.00    +0.000 A 
ATOM      7  C   UNL     1      -1.219  12.599  18.085  0.00  0.00    +0.000 A 
ATOM      8  C   UNL     1      -1.568  11.244  18.277  0.00  0.00    +0.000 A 
ATOM      9  C   UNL     1      -0.133  10.611  21.538  0.00  0.00    +0.000 C 
ATOM     10  O   UNL     1       0.404  10.997  22.558  0.00  0.00    +0.000 OA
ENDROOT
BRANCH   1  15
ATOM     11  C   UNL     1       2.289   7.098  19.325  0.00  0.00    +0.000 A 
ATOM     12  C   UNL     1       2.337   7.748  18.075  0.00  0.00    +0.000 A 
ATOM     13  C   UNL     1       1.978   9.087  17.927  0.00  0.00    +0.000 A 
ATOM     14  C   UNL     1       1.443   9.778  19.005  0.00  0.00    +0.000 A 
ATOM     15  C   UNL     1       1.176   9.087  20.194  0.00  0.00    +0.000 A 
ATOM     16  C   UNL     1       1.779   7.847  20.401  0.00  0.00    +0.000 A 
BRANCH  11  17
ATOM     17  C   UNL     1       2.725   5.561  19.516  0.00  0.00    +0.000 C 
ATOM     18  C   UNL     1       2.621   4.603  18.294  0.00  0.00    +0.000 C 
ATOM     19  O   UNL     1       4.048   4.674  18.063  0.00  0.00    +0.000 OA
ATOM     20  C   UNL     1       4.243   5.253  19.374  0.00  0.00    +0.000 C 
BRANCH  17  21
ATOM     21  C   UNL     1       2.096   4.994  20.800  0.00  0.00    +0.000 C 
BRANCH  21  23
ATOM     22  C   UNL     1       1.373   2.762  21.376  0.00  0.00    +0.000 C 
ATOM     23  N   UNL     1       1.166   3.897  20.488  0.00  0.00    +0.000 NA
ATOM     24  H   UNL     1       0.205   4.226  20.614  0.00  0.00    +0.000 HD
ENDBRANCH  21  23
ENDBRANCH  17  21
ENDBRANCH  11  17
ENDBRANCH   1  15
BRANCH   8  25
ATOM     25  C   UNL     1      -2.050  10.434  17.100  0.00  0.00    +0.000 C 
ATOM     26  F   UNL     1      -3.229   9.792  17.319  0.00  0.00    +0.000 F 
ATOM     27  F   UNL     1      -2.250  11.199  15.992  0.00  0.00    +0.000 F 
ATOM     28  F   UNL     1      -1.161   9.468  16.735  0.00  0.00    +0.000 F 
ENDBRANCH   8  25
BRANCH   6  29
ATOM     29  C   UNL     1      -0.144  14.781  18.811  0.00  0.00    +0.000 C 
BRANCH  29  30
ATOM     30  N   UNL     1       1.199  14.970  19.286  0.00  0.00    +0.000 N 
ATOM     31  C   UNL     1       1.515  15.828  20.379  0.00  0.00    +0.000 C 
ATOM     32  N   UNL     1       2.933  16.090  20.235  0.00  0.00    +0.000 NA
ATOM     33  C   UNL     1       3.494  14.992  19.434  0.00  0.00    +0.000 C 
ATOM     34  C   UNL     1       2.307  14.403  18.706  0.00  0.00    +0.000 C 
ATOM     35  O   UNL     1       2.337  13.583  17.802  0.00  0.00    +0.000 OA
ATOM     36  H   UNL     1       3.384  16.147  21.140  0.00  0.00    +0.000 HD
ENDBRANCH  29  30
ENDBRANCH   6  29
TORSDOF 7
ENDMDL
MODEL 3
REMARK VINA RESULT:      -7.7      4.412      7.016
REMARK  Name = 
REMARK  8 active torsions:
REMARK  status: ('A' for Active; 'I' for Inactive)
REMARK    1  A    between atoms: C_1  and  N_2
REMARK    2  A    between atoms: N_2  and  C_3
REMARK    3  A    between atoms: C_3  and  C_4
REMARK    4  A    between atoms: C_4  and  C_5
REMARK    5  A    between atoms: C_9  and  N_10
REMARK    6  A    between atoms: C_15  and  C_16
REMARK    7  A    between atoms: C_16  and  N_17
REMARK    8  A    between atoms: C_24  and  C_25
REMARK                            x       y       z     vdW  Elec       q    Type
REMARK                         _______ _______ _______ _____ _____    ______ ____
ROOT
ATOM      1  N   UNL     1      -0.191  11.395  18.624  0.00  0.00    +0.000 N 
ATOM      2  C   UNL     1       0.596  10.722  19.697  0.00  0.00    +0.000 C 
ATOM      3  C   UNL     1       0.008  11.334  20.934  0.00  0.00    +0.000 A 
ATOM      4  C   UNL     1      -0.468  12.600  20.578  0.00  0.00    +0.000 A 
ATOM      5  C   UNL     1      -1.298  13.355  21.382  0.00  0.00    +0.000 A 
ATOM      6  C   UNL     1      -1.710  12.785  22.587  0.00  0.00    +0.000 A 
ATOM      7  C   UNL     1      -1.196  11.524  22.981  0.00  0.00    +0.000 A 
ATOM      8  C   UNL     1      -0.329  10.771  22.158  0.00  0.00    +0.000 A 
ATOM      9  C   UNL     1      -0.421  12.703  19.100  0.00  0.00    +0.000 C 
ATOM     10  O   UNL     1      -0.744  13.695  18.477  0.00  0.00    +0.000 OA
ENDROOT
BRANCH   1  15
ATOM     11  C   UNL     1      -3.779  11.147  18.192  0.00  0.00    +0.000 A 
ATOM     12  C   UNL     1      -3.767  10.574  16.904  0.00  0.00    +0.000 A 
ATOM     13  C   UNL     1      -2.653   9.896  16.410  0.00  0.00    +0.000 A 
ATOM     14  C   UNL     1      -1.477   9.879  17.146  0.00  0.00    +0.000 A 
ATOM     15  C   UNL     1      -1.398  10.632  18.325  0.00  0.00    +0.000 A 
ATOM     16  C   UNL     1      -2.578  11.070  18.922  0.00  0.00    +0.000 A 
BRANCH  11  17
ATOM     17  C   UNL     1      -5.064  11.910  18.787  0.00  0.00    +0.000 C 
ATOM     18  C   UNL     1      -5.978  12.699  17.804  0.00  0.00    +0.000 C 
ATOM     19  O   UNL     1      -6.967  11.642  17.808  0.00  0.00    +0.000 OA
ATOM     20  C   UNL     1      -6.348  11.051  18.974  0.00  0.00    +0.000 C 
BRANCH  17  21
ATOM     21  C   UNL     1      -4.667  12.711  20.038  0.00  0.00    +0.000 C 
BRANCH  21  23
ATOM     22  C   UNL     1      -6.108  13.355  21.866  0.00  0.00    +0.000 C 
ATOM     23  N   UNL     1      -5.418  12.250  21.216  0.00  0.00    +0.000 NA
ATOM     24  H   UNL     1      -6.121  11.569  20.920  0.00  0.00    +0.000 HD
ENDBRANCH  21  23
ENDBRANCH  17  21
ENDBRANCH  11  17
ENDBRANCH   1  15
BRANCH   8  25
ATOM     25  C   UNL     1       0.058   9.375  22.578  0.00  0.00    +0.000 C 
ATOM     26  F   UNL     1       1.344   9.047  22.282  0.00  0.00    +0.000 F 
ATOM     27  F   UNL     1      -0.068   9.185  23.921  0.00  0.00    +0.000 F 
ATOM     28  F   UNL     1      -0.717   8.422  21.989  0.00  0.00    +0.000 F 
ENDBRANCH   8  25
BRANCH   6  29
ATOM     29  C   UNL     1      -2.744  13.483  23.438  0.00  0.00    +0.000 C 
BRANCH  29  30
ATOM     30  N   UNL     1      -2.539  14.906  23.432  0.00  0.00    +0.000 N 
ATOM     31  C   UNL     1      -3.331  15.794  22.650  0.00  0.00    +0.000 C 
ATOM     32  N   UNL     1      -2.540  17.005  22.565  0.00  0.00    +0.000 NA
ATOM     33  C   UNL     1      -1.610  16.991  23.705  0.00  0.00    +0.000 C 
ATOM     34  C   UNL     1      -1.534  15.540  24.120  0.00  0.00    +0.000 C 
ATOM     35  O   UNL     1      -0.748  15.047  24.914  0.00  0.00    +0.000 OA
ATOM     36  H   UNL     1      -3.132  17.827  22.590  0.00  0.00    +0.000 HD
ENDBRANCH  29  30
ENDBRANCH   6  29
TORSDOF 7
ENDMDL
MODEL 4
REMARK VINA RESULT:      -7.7      1.694      2.398
REMARK  Name = 
REMARK  8 active torsions:
REMARK  status: ('A' for Active; 'I' for Inactive)
REMARK    1  A    between atoms: C_1  and  N_2
REMARK    2  A    between atoms: N_2  and  C_3
REMARK    3  A    between atoms: C_3  and  C_4
REMARK    4  A    between atoms: C_4  and  C_5
REMARK    5  A    between atoms: C_9  and  N_10
REMARK    6  A    between atoms: C_15  and  C_16
REMARK    7  A    between atoms: C_16  and  N_17
REMARK    8  A    between atoms: C_24  and  C_25
REMARK                            x       y       z     vdW  Elec       q    Type
REMARK                         _______ _______ _______ _____ _____    ______ ____
ROOT
ATOM      1  N   UNL     1       0.760   8.329  21.166  0.00  0.00    +0.000 N 
ATOM      2  C   UNL     1      -0.518   8.614  20.452  0.00  0.00    +0.000 C 
ATOM      3  C   UNL     1      -0.394  10.084  20.183  0.00  0.00    +0.000 A 
ATOM      4  C   UNL     1       0.423  10.617  21.185  0.00  0.00    +0.000 A 
ATOM      5  C   UNL     1       0.970  11.883  21.127  0.00  0.00    +0.000 A 
ATOM      6  C   UNL     1       0.720  12.635  19.979  0.00  0.00    +0.000 A 
ATOM      7  C   UNL     1      -0.147  12.125  18.979  0.00  0.00    +0.000 A 
ATOM      8  C   UNL     1      -0.718  10.836  19.060  0.00  0.00    +0.000 A 
ATOM      9  C   UNL     1       1.020   9.484  21.932  0.00  0.00    +0.000 C 
ATOM     10  O   UNL     1       1.761   9.616  22.887  0.00  0.00    +0.000 OA
ENDROOT
BRANCH   1  15
ATOM     11  C   UNL     1       2.402   5.975  18.957  0.00  0.00    +0.000 A 
ATOM     12  C   UNL     1       2.380   6.772  17.795  0.00  0.00    +0.000 A 
ATOM     13  C   UNL     1       2.250   8.158  17.855  0.00  0.00    +0.000 A 
ATOM     14  C   UNL     1       2.013   8.774  19.076  0.00  0.00    +0.000 A 
ATOM     15  C   UNL     1       1.807   7.980  20.212  0.00  0.00    +0.000 A 
ATOM     16  C   UNL     1       2.202   6.644  20.179  0.00  0.00    +0.000 A 
BRANCH  11  17
ATOM     17  C   UNL     1       2.579   4.376  18.906  0.00  0.00    +0.000 C 
ATOM     18  C   UNL     1       1.382   3.484  19.344  0.00  0.00    +0.000 C 
ATOM     19  O   UNL     1       1.036   3.197  17.967  0.00  0.00    +0.000 OA
ATOM     20  C   UNL     1       2.320   3.700  17.529  0.00  0.00    +0.000 C 
BRANCH  17  21
ATOM     21  C   UNL     1       3.916   3.976  19.551  0.00  0.00    +0.000 C 
BRANCH  21  23
ATOM     22  C   UNL     1       5.888   4.537  18.273  0.00  0.00    +0.000 C 
ATOM     23  N   UNL     1       4.876   3.523  18.531  0.00  0.00    +0.000 NA
ATOM     24  H   UNL     1       5.350   2.681  18.868  0.00  0.00    +0.000 HD
ENDBRANCH  21  23
ENDBRANCH  17  21
ENDBRANCH  11  17
ENDBRANCH   1  15
BRANCH   8  25
ATOM     25  C   UNL     1      -1.509  10.306  17.891  0.00  0.00    +0.000 C 
ATOM     26  F   UNL     1      -2.647   9.651  18.247  0.00  0.00    +0.000 F 
ATOM     27  F   UNL     1      -1.906  11.295  17.044  0.00  0.00    +0.000 F 
ATOM     28  F   UNL     1      -0.793   9.428  17.135  0.00  0.00    +0.000 F 
ENDBRANCH   8  25
BRANCH   6  29
ATOM     29  C   UNL     1       1.418  13.959  19.776  0.00  0.00    +0.000 C 
BRANCH  29  30
ATOM     30  N   UNL     1       0.465  15.029  19.659  0.00  0.00    +0.000 N 
ATOM     31  C   UNL     1      -0.777  15.033  20.357  0.00  0.00    +0.000 C 
ATOM     32  N   UNL     1      -1.593  15.990  19.637  0.00  0.00    +0.000 NA
ATOM     33  C   UNL     1      -0.673  16.884  18.919  0.00  0.00    +0.000 C 
ATOM     34  C   UNL     1       0.621  16.111  18.827  0.00  0.00    +0.000 C 
ATOM     35  O   UNL     1       1.603  16.402  18.161  0.00  0.00    +0.000 OA
ATOM     36  H   UNL     1      -2.184  16.512  20.272  0.00  0.00    +0.000 HD
ENDBRANCH  29  30
ENDBRANCH   6  29
TORSDOF 7
ENDMDL
MODEL 5
REMARK VINA RESULT:      -7.6      4.426      7.090
REMARK  Name = 
REMARK  8 active torsions:
REMARK  status: ('A' for Active; 'I' for Inactive)
REMARK    1  A    between atoms: C_1  and  N_2
REMARK    2  A    between atoms: N_2  and  C_3
REMARK    3  A    between atoms: C_3  and  C_4
REMARK    4  A    between atoms: C_4  and  C_5
REMARK    5  A    between atoms: C_9  and  N_10
REMARK    6  A    between atoms: C_15  and  C_16
REMARK    7  A    between atoms: C_16  and  N_17
REMARK    8  A    between atoms: C_24  and  C_25
REMARK                            x       y       z     vdW  Elec       q    Type
REMARK                         _______ _______ _______ _____ _____    ______ ____
ROOT
ATOM      1  N   UNL     1      -0.189  11.403  18.659  0.00  0.00    +0.000 N 
ATOM      2  C   UNL     1       0.592  10.729  19.735  0.00  0.00    +0.000 C 
ATOM      3  C   UNL     1      -0.007  11.334  20.970  0.00  0.00    +0.000 A 
ATOM      4  C   UNL     1      -0.484  12.600  20.616  0.00  0.00    +0.000 A 
ATOM      5  C   UNL     1      -1.323  13.349  21.417  0.00  0.00    +0.000 A 
ATOM      6  C   UNL     1      -1.742  12.773  22.617  0.00  0.00    +0.000 A 
ATOM      7  C   UNL     1      -1.226  11.512  23.010  0.00  0.00    +0.000 A 
ATOM      8  C   UNL     1      -0.351  10.765  22.190  0.00  0.00    +0.000 A 
ATOM      9  C   UNL     1      -0.427  12.708  19.138  0.00  0.00    +0.000 C 
ATOM     10  O   UNL     1      -0.749  13.702  18.517  0.00  0.00    +0.000 OA
ENDROOT
BRANCH   1  15
ATOM     11  C   UNL     1      -3.773  11.145  18.202  0.00  0.00    +0.000 A 
ATOM     12  C   UNL     1      -3.750  10.578  16.911  0.00  0.00    +0.000 A 
ATOM     13  C   UNL     1      -2.631   9.905  16.422  0.00  0.00    +0.000 A 
ATOM     14  C   UNL     1      -1.459   9.889  17.166  0.00  0.00    +0.000 A 
ATOM     15  C   UNL     1      -1.392  10.637  18.348  0.00  0.00    +0.000 A 
ATOM     16  C   UNL     1      -2.578  11.070  18.940  0.00  0.00    +0.000 A 
BRANCH  11  17
ATOM     17  C   UNL     1      -5.065  11.902  18.790  0.00  0.00    +0.000 C 
ATOM     18  C   UNL     1      -5.975  12.690  17.804  0.00  0.00    +0.000 C 
ATOM     19  O   UNL     1      -6.961  11.629  17.799  0.00  0.00    +0.000 OA
ATOM     20  C   UNL     1      -6.347  11.038  18.967  0.00  0.00    +0.000 C 
BRANCH  17  21
ATOM     21  C   UNL     1      -4.678  12.701  20.046  0.00  0.00    +0.000 C 
BRANCH  21  23
ATOM     22  C   UNL     1      -6.179  13.320  21.835  0.00  0.00    +0.000 C 
ATOM     23  N   UNL     1      -5.433  12.232  21.218  0.00  0.00    +0.000 NA
ATOM     24  H   UNL     1      -6.103  11.518  20.923  0.00  0.00    +0.000 HD
ENDBRANCH  21  23
ENDBRANCH  17  21
ENDBRANCH  11  17
ENDBRANCH   1  15
BRANCH   8  25
ATOM     25  C   UNL     1       0.038   9.369  22.608  0.00  0.00    +0.000 C 
ATOM     26  F   UNL     1       1.322   9.040  22.303  0.00  0.00    +0.000 F 
ATOM     27  F   UNL     1      -0.080   9.179  23.951  0.00  0.00    +0.000 F 
ATOM     28  F   UNL     1      -0.741   8.416  22.023  0.00  0.00    +0.000 F 
ENDBRANCH   8  25
BRANCH   6  29
ATOM     29  C   UNL     1      -2.784  13.464  23.463  0.00  0.00    +0.000 C 
BRANCH  29  30
ATOM     30  N   UNL     1      -2.374  14.803  23.790  0.00  0.00    +0.000 N 
ATOM     31  C   UNL     1      -1.344  15.084  24.733  0.00  0.00    +0.000 C 
ATOM     32  N   UNL     1      -1.560  16.467  25.104  0.00  0.00    +0.000 NA
ATOM     33  C   UNL     1      -2.322  17.091  24.011  0.00  0.00    +0.000 C 
ATOM     34  C   UNL     1      -2.967  15.934  23.285  0.00  0.00    +0.000 C 
ATOM     35  O   UNL     1      -3.826  16.001  22.419  0.00  0.00    +0.000 OA
ATOM     36  H   UNL     1      -0.678  16.945  25.250  0.00  0.00    +0.000 HD
ENDBRANCH  29  30
ENDBRANCH   6  29
TORSDOF 7
ENDMDL
MODEL 6
REMARK VINA RESULT:      -7.6      1.818      2.416
REMARK  Name = 
REMARK  8 active torsions:
REMARK  status: ('A' for Active; 'I' for Inactive)
REMARK    1  A    between atoms: C_1  and  N_2
REMARK    2  A    between atoms: N_2  and  C_3
REMARK    3  A    between atoms: C_3  and  C_4
REMARK    4  A    between atoms: C_4  and  C_5
REMARK    5  A    between atoms: C_9  and  N_10
REMARK    6  A    between atoms: C_15  and  C_16
REMARK    7  A    between atoms: C_16  and  N_17
REMARK    8  A    between atoms: C_24  and  C_25
REMARK                            x       y       z     vdW  Elec       q    Type
REMARK                         _______ _______ _______ _____ _____    ______ ____
ROOT
ATOM      1  N   UNL     1       0.756   8.264  21.236  0.00  0.00    +0.000 N 
ATOM      2  C   UNL     1      -0.507   8.592  20.514  0.00  0.00    +0.000 C 
ATOM      3  C   UNL     1      -0.319  10.052  20.223  0.00  0.00    +0.000 A 
ATOM      4  C   UNL     1       0.518  10.564  21.219  0.00  0.00    +0.000 A 
ATOM      5  C   UNL     1       1.119  11.805  21.144  0.00  0.00    +0.000 A 
ATOM      6  C   UNL     1       0.905  12.549  19.983  0.00  0.00    +0.000 A 
ATOM      7  C   UNL     1       0.020  12.061  18.989  0.00  0.00    +0.000 A 
ATOM      8  C   UNL     1      -0.606  10.799  19.087  0.00  0.00    +0.000 A 
ATOM      9  C   UNL     1       1.063   9.419  21.986  0.00  0.00    +0.000 C 
ATOM     10  O   UNL     1       1.806   9.533  22.941  0.00  0.00    +0.000 OA
ENDROOT
BRANCH   1  15
ATOM     11  C   UNL     1       2.365   5.778  19.151  0.00  0.00    +0.000 A 
ATOM     12  C   UNL     1       2.329   6.505  17.943  0.00  0.00    +0.000 A 
ATOM     13  C   UNL     1       2.203   7.893  17.922  0.00  0.00    +0.000 A 
ATOM     14  C   UNL     1       1.984   8.580  19.108  0.00  0.00    +0.000 A 
ATOM     15  C   UNL     1       1.790   7.855  20.291  0.00  0.00    +0.000 A 
ATOM     16  C   UNL     1       2.181   6.518  20.333  0.00  0.00    +0.000 A 
BRANCH  11  17
ATOM     17  C   UNL     1       2.536   4.178  19.191  0.00  0.00    +0.000 C 
ATOM     18  C   UNL     1       1.836   3.387  20.334  0.00  0.00    +0.000 C 
ATOM     19  O   UNL     1       0.777   2.957  19.445  0.00  0.00    +0.000 OA
ATOM     20  C   UNL     1       1.562   3.359  18.298  0.00  0.00    +0.000 C 
BRANCH  17  21
ATOM     21  C   UNL     1       4.016   3.805  18.998  0.00  0.00    +0.000 C 
BRANCH  21  23
ATOM     22  C   UNL     1       4.917   3.886  16.758  0.00  0.00    +0.000 C 
ATOM     23  N   UNL     1       4.212   3.072  17.738  0.00  0.00    +0.000 NA
ATOM     24  H   UNL     1       4.775   2.238  17.919  0.00  0.00    +0.000 HD
ENDBRANCH  21  23
ENDBRANCH  17  21
ENDBRANCH  11  17
ENDBRANCH   1  15
BRANCH   8  25
ATOM     25  C   UNL     1      -1.417  10.285  17.924  0.00  0.00    +0.000 C 
ATOM     26  F   UNL     1      -2.564   9.652  18.287  0.00  0.00    +0.000 F 
ATOM     27  F   UNL     1      -1.801  11.283  17.080  0.00  0.00    +0.000 F 
ATOM     28  F   UNL     1      -0.723   9.394  17.161  0.00  0.00    +0.000 F 
ENDBRANCH   8  25
BRANCH   6  29
ATOM     29  C   UNL     1       1.659  13.838  19.763  0.00  0.00    +0.000 C 
BRANCH  29  30
ATOM     30  N   UNL     1       1.222  14.852  20.683  0.00  0.00    +0.000 N 
ATOM     31  C   UNL     1       0.076  15.665  20.445  0.00  0.00    +0.000 C 
ATOM     32  N   UNL     1       0.253  16.805  21.322  0.00  0.00    +0.000 NA
ATOM     33  C   UNL     1       1.161  16.382  22.398  0.00  0.00    +0.000 C 
ATOM     34  C   UNL     1       1.888  15.182  21.838  0.00  0.00    +0.000 C 
ATOM     35  O   UNL     1       2.856  14.619  22.325  0.00  0.00    +0.000 OA
ATOM     36  H   UNL     1      -0.635  17.115  21.697  0.00  0.00    +0.000 HD
ENDBRANCH  29  30
ENDBRANCH   6  29
TORSDOF 7
ENDMDL
MODEL 7
REMARK VINA RESULT:      -7.6      0.996      1.531
REMARK  Name = 
REMARK  8 active torsions:
REMARK  status: ('A' for Active; 'I' for Inactive)
REMARK    1  A    between atoms: C_1  and  N_2
REMARK    2  A    between atoms: N_2  and  C_3
REMARK    3  A    between atoms: C_3  and  C_4
REMARK    4  A    between atoms: C_4  and  C_5
REMARK    5  A    between atoms: C_9  and  N_10
REMARK    6  A    between atoms: C_15  and  C_16
REMARK    7  A    between atoms: C_16  and  N_17
REMARK    8  A    between atoms: C_24  and  C_25
REMARK                            x       y       z     vdW  Elec       q    Type
REMARK                         _______ _______ _______ _____ _____    ______ ____
ROOT
ATOM      1  N   UNL     1      -0.086   9.334  20.964  0.00  0.00    +0.000 N 
ATOM      2  C   UNL     1      -1.251   9.274  20.036  0.00  0.00    +0.000 C 
ATOM      3  C   UNL     1      -1.321  10.690  19.544  0.00  0.00    +0.000 A 
ATOM      4  C   UNL     1      -0.784  11.500  20.550  0.00  0.00    +0.000 A 
ATOM      5  C   UNL     1      -0.446  12.825  20.360  0.00  0.00    +0.000 A 
ATOM      6  C   UNL     1      -0.612  13.349  19.078  0.00  0.00    +0.000 A 
ATOM      7  C   UNL     1      -1.201  12.552  18.063  0.00  0.00    +0.000 A 
ATOM      8  C   UNL     1      -1.562  11.204  18.276  0.00  0.00    +0.000 A 
ATOM      9  C   UNL     1      -0.151  10.613  21.555  0.00  0.00    +0.000 C 
ATOM     10  O   UNL     1       0.384  11.012  22.571  0.00  0.00    +0.000 OA
ENDROOT
BRANCH   1  15
ATOM     11  C   UNL     1       2.261   7.041  19.430  0.00  0.00    +0.000 A 
ATOM     12  C   UNL     1       2.316   7.660  18.164  0.00  0.00    +0.000 A 
ATOM     13  C   UNL     1       1.963   8.996  17.981  0.00  0.00    +0.000 A 
ATOM     14  C   UNL     1       1.426   9.716  19.039  0.00  0.00    +0.000 A 
ATOM     15  C   UNL     1       1.152   9.055  20.244  0.00  0.00    +0.000 A 
ATOM     16  C   UNL     1       1.750   7.820  20.485  0.00  0.00    +0.000 A 
BRANCH  11  17
ATOM     17  C   UNL     1       2.691   5.508  19.662  0.00  0.00    +0.000 C 
ATOM     18  C   UNL     1       2.154   4.771  20.923  0.00  0.00    +0.000 C 
ATOM     19  O   UNL     1       1.159   4.068  20.141  0.00  0.00    +0.000 OA
ATOM     20  C   UNL     1       1.842   4.436  18.920  0.00  0.00    +0.000 C 
BRANCH  17  21
ATOM     21  C   UNL     1       4.206   5.352  19.454  0.00  0.00    +0.000 C 
BRANCH  21  23
ATOM     22  C   UNL     1       5.276   4.345  17.535  0.00  0.00    +0.000 C 
ATOM     23  N   UNL     1       4.512   4.096  18.750  0.00  0.00    +0.000 NA
ATOM     24  H   UNL     1       5.074   3.498  19.360  0.00  0.00    +0.000 HD
ENDBRANCH  21  23
ENDBRANCH  17  21
ENDBRANCH  11  17
ENDBRANCH   1  15
BRANCH   8  25
ATOM     25  C   UNL     1      -2.046  10.378  17.110  0.00  0.00    +0.000 C 
ATOM     26  F   UNL     1      -3.219   9.731  17.342  0.00  0.00    +0.000 F 
ATOM     27  F   UNL     1      -2.256  11.130  15.995  0.00  0.00    +0.000 F 
ATOM     28  F   UNL     1      -1.151   9.414  16.751  0.00  0.00    +0.000 F 
ENDBRANCH   8  25
BRANCH   6  29
ATOM     29  C   UNL     1      -0.112  14.737  18.759  0.00  0.00    +0.000 C 
BRANCH  29  30
ATOM     30  N   UNL     1       1.307  14.834  18.972  0.00  0.00    +0.000 N 
ATOM     31  C   UNL     1       2.247  14.028  18.268  0.00  0.00    +0.000 C 
ATOM     32  N   UNL     1       3.452  14.094  19.070  0.00  0.00    +0.000 NA
ATOM     33  C   UNL     1       3.363  15.319  19.879  0.00  0.00    +0.000 C 
ATOM     34  C   UNL     1       1.890  15.656  19.905  0.00  0.00    +0.000 C 
ATOM     35  O   UNL     1       1.344  16.495  20.604  0.00  0.00    +0.000 OA
ATOM     36  H   UNL     1       4.277  14.105  18.484  0.00  0.00    +0.000 HD
ENDBRANCH  29  30
ENDBRANCH   6  29
TORSDOF 7
ENDMDL
MODEL 8
REMARK VINA RESULT:      -7.5      3.042      7.509
REMARK  Name = 
REMARK  8 active torsions:
REMARK  status: ('A' for Active; 'I' for Inactive)
REMARK    1  A    between atoms: C_1  and  N_2
REMARK    2  A    between atoms: N_2  and  C_3
REMARK    3  A    between atoms: C_3  and  C_4
REMARK    4  A    between atoms: C_4  and  C_5
REMARK    5  A    between atoms: C_9  and  N_10
REMARK    6  A    between atoms: C_15  and  C_16
REMARK    7  A    between atoms: C_16  and  N_17
REMARK    8  A    between atoms: C_24  and  C_25
REMARK                            x       y       z     vdW  Elec       q    Type
REMARK                         _______ _______ _______ _____ _____    ______ ____
ROOT
ATOM      1  N   UNL     1       0.074  13.965  20.218  0.00  0.00    +0.000 N 
ATOM      2  C   UNL     1      -0.982  13.599  19.231  0.00  0.00    +0.000 C 
ATOM      3  C   UNL     1      -0.395  12.370  18.601  0.00  0.00    +0.000 A 
ATOM      4  C   UNL     1       0.996  12.483  18.701  0.00  0.00    +0.000 A 
ATOM      5  C   UNL     1       1.863  11.435  18.464  0.00  0.00    +0.000 A 
ATOM      6  C   UNL     1       1.299  10.196  18.157  0.00  0.00    +0.000 A 
ATOM      7  C   UNL     1      -0.106  10.082  18.004  0.00  0.00    +0.000 A 
ATOM      8  C   UNL     1      -0.982  11.167  18.228  0.00  0.00    +0.000 A 
ATOM      9  C   UNL     1       1.294  13.626  19.596  0.00  0.00    +0.000 C 
ATOM     10  O   UNL     1       2.418  14.002  19.866  0.00  0.00    +0.000 OA
ENDROOT
BRANCH   1  15
ATOM     11  C   UNL     1      -2.126  12.921  22.899  0.00  0.00    +0.000 A 
ATOM     12  C   UNL     1      -1.798  11.549  22.878  0.00  0.00    +0.000 A 
ATOM     13  C   UNL     1      -0.602  11.086  22.332  0.00  0.00    +0.000 A 
ATOM     14  C   UNL     1       0.245  11.973  21.680  0.00  0.00    +0.000 A 
ATOM     15  C   UNL     1      -0.169  13.298  21.493  0.00  0.00    +0.000 A 
ATOM     16  C   UNL     1      -1.220  13.790  22.265  0.00  0.00    +0.000 A 
BRANCH  11  17
ATOM     17  C   UNL     1      -3.490  13.473  23.549  0.00  0.00    +0.000 C 
ATOM     18  C   UNL     1      -4.821  13.257  22.773  0.00  0.00    +0.000 C 
ATOM     19  O   UNL     1      -5.197  12.158  23.637  0.00  0.00    +0.000 OA
ATOM     20  C   UNL     1      -4.180  12.545  24.590  0.00  0.00    +0.000 C 
BRANCH  17  21
ATOM     21  C   UNL     1      -3.289  14.915  24.042  0.00  0.00    +0.000 C 
BRANCH  21  23
ATOM     22  C   UNL     1      -1.788  15.386  25.875  0.00  0.00    +0.000 C 
ATOM     23  N   UNL     1      -3.127  14.952  25.504  0.00  0.00    +0.000 NA
ATOM     24  H   UNL     1      -3.796  15.618  25.899  0.00  0.00    +0.000 HD
ENDBRANCH  21  23
ENDBRANCH  17  21
ENDBRANCH  11  17
ENDBRANCH   1  15
BRANCH   8  25
ATOM     25  C   UNL     1      -2.471  10.933  18.191  0.00  0.00    +0.000 C 
ATOM     26  F   UNL     1      -2.820   9.628  18.034  0.00  0.00    +0.000 F 
ATOM     27  F   UNL     1      -3.088  11.340  19.335  0.00  0.00    +0.000 F 
ATOM     28  F   UNL     1      -3.078  11.608  17.175  0.00  0.00    +0.000 F 
ENDBRANCH   8  25
BRANCH   6  29
ATOM     29  C   UNL     1       2.177   8.974  18.046  0.00  0.00    +0.000 C 
BRANCH  29  30
ATOM     30  N   UNL     1       1.937   8.068  19.137  0.00  0.00    +0.000 N 
ATOM     31  C   UNL     1       1.427   8.498  20.396  0.00  0.00    +0.000 C 
ATOM     32  N   UNL     1       1.767   7.426  21.309  0.00  0.00    +0.000 NA
ATOM     33  C   UNL     1       1.958   6.215  20.497  0.00  0.00    +0.000 C 
ATOM     34  C   UNL     1       2.230   6.727  19.102  0.00  0.00    +0.000 C 
ATOM     35  O   UNL     1       2.616   6.074  18.145  0.00  0.00    +0.000 OA
ATOM     36  H   UNL     1       1.035   7.290  21.996  0.00  0.00    +0.000 HD
ENDBRANCH  29  30
ENDBRANCH   6  29
TORSDOF 7
ENDMDL
MODEL 9
REMARK VINA RESULT:      -7.5      1.338      1.998
REMARK  Name = 
REMARK  8 active torsions:
REMARK  status: ('A' for Active; 'I' for Inactive)
REMARK    1  A    between atoms: C_1  and  N_2
REMARK    2  A    between atoms: N_2  and  C_3
REMARK    3  A    between atoms: C_3  and  C_4
REMARK    4  A    between atoms: C_4  and  C_5
REMARK    5  A    between atoms: C_9  and  N_10
REMARK    6  A    between atoms: C_15  and  C_16
REMARK    7  A    between atoms: C_16  and  N_17
REMARK    8  A    between atoms: C_24  and  C_25
REMARK                            x       y       z     vdW  Elec       q    Type
REMARK                         _______ _______ _______ _____ _____    ______ ____
ROOT
ATOM      1  N   UNL     1      -0.080   9.294  20.967  0.00  0.00    +0.000 N 
ATOM      2  C   UNL     1      -1.246   9.249  20.039  0.00  0.00    +0.000 C 
ATOM      3  C   UNL     1      -1.307  10.669  19.558  0.00  0.00    +0.000 A 
ATOM      4  C   UNL     1      -0.764  11.467  20.570  0.00  0.00    +0.000 A 
ATOM      5  C   UNL     1      -0.417  12.791  20.390  0.00  0.00    +0.000 A 
ATOM      6  C   UNL     1      -0.580  13.326  19.112  0.00  0.00    +0.000 A 
ATOM      7  C   UNL     1      -1.175  12.542  18.092  0.00  0.00    +0.000 A 
ATOM      8  C   UNL     1      -1.546  11.194  18.294  0.00  0.00    +0.000 A 
ATOM      9  C   UNL     1      -0.136  10.569  21.568  0.00  0.00    +0.000 C 
ATOM     10  O   UNL     1       0.402  10.956  22.587  0.00  0.00    +0.000 OA
ENDROOT
BRANCH   1  15
ATOM     11  C   UNL     1       2.272   6.994  19.451  0.00  0.00    +0.000 A 
ATOM     12  C   UNL     1       2.317   7.596  18.177  0.00  0.00    +0.000 A 
ATOM     13  C   UNL     1       1.955   8.927  17.978  0.00  0.00    +0.000 A 
ATOM     14  C   UNL     1       1.419   9.658  19.029  0.00  0.00    +0.000 A 
ATOM     15  C   UNL     1       1.156   9.013  20.244  0.00  0.00    +0.000 A 
ATOM     16  C   UNL     1       1.762   7.784  20.498  0.00  0.00    +0.000 A 
BRANCH  11  17
ATOM     17  C   UNL     1       2.712   5.467  19.701  0.00  0.00    +0.000 C 
ATOM     18  C   UNL     1       2.196   4.748  20.982  0.00  0.00    +0.000 C 
ATOM     19  O   UNL     1       1.193   4.028  20.225  0.00  0.00    +0.000 OA
ATOM     20  C   UNL     1       1.857   4.380  18.989  0.00  0.00    +0.000 C 
BRANCH  17  21
ATOM     21  C   UNL     1       4.225   5.313  19.474  0.00  0.00    +0.000 C 
BRANCH  21  23
ATOM     22  C   UNL     1       5.791   4.686  17.745  0.00  0.00    +0.000 C 
ATOM     23  N   UNL     1       4.496   4.405  18.348  0.00  0.00    +0.000 NA
ATOM     24  H   UNL     1       4.509   3.441  18.691  0.00  0.00    +0.000 HD
ENDBRANCH  21  23
ENDBRANCH  17  21
ENDBRANCH  11  17
ENDBRANCH   1  15
BRANCH   8  25
ATOM     25  C   UNL     1      -2.035  10.380  17.123  0.00  0.00    +0.000 C 
ATOM     26  F   UNL     1      -1.172   9.405  16.730  0.00  0.00    +0.000 F 
ATOM     27  F   UNL     1      -3.209   9.744  17.388  0.00  0.00    +0.000 F 
ATOM     28  F   UNL     1      -2.263  11.145  16.019  0.00  0.00    +0.000 F 
ENDBRANCH   8  25
BRANCH   6  29
ATOM     29  C   UNL     1      -0.071  14.714  18.804  0.00  0.00    +0.000 C 
BRANCH  29  30
ATOM     30  N   UNL     1       1.291  14.870  19.236  0.00  0.00    +0.000 N 
ATOM     31  C   UNL     1       1.667  15.743  20.297  0.00  0.00    +0.000 C 
ATOM     32  N   UNL     1       3.087  15.954  20.106  0.00  0.00    +0.000 NA
ATOM     33  C   UNL     1       3.588  14.818  19.318  0.00  0.00    +0.000 C 
ATOM     34  C   UNL     1       2.363  14.252  18.639  0.00  0.00    +0.000 C 
ATOM     35  O   UNL     1       2.339  13.409  17.755  0.00  0.00    +0.000 OA
ATOM     36  H   UNL     1       3.567  16.017  20.996  0.00  0.00    +0.000 HD
ENDBRANCH  29  30
ENDBRANCH   6  29
TORSDOF 7
ENDMDL
