MODEL 1
REMARK VINA RESULT:      -8.1      0.000      0.000
REMARK  Name = 
REMARK  6 active torsions:
REMARK  status: ('A' for Active; 'I' for Inactive)
REMARK    1  A    between atoms: C_2  and  OXT_3
REMARK    2  A    between atoms: C_2  and  CA_4
REMARK    3  A    between atoms: CA_4  and  CB_5
REMARK    4  A    between atoms: CA_4  and  N_15
REMARK    5  A    between atoms: CB_5  and  CG_6
REMARK    6  A    between atoms: C_16  and  C_18
REMARK                            x       y       z     vdW  Elec       q    Type
REMARK                         _______ _______ _______ _____ _____    ______ ____
ROOT
ATOM      1  CA  TRP A   1       2.723   3.743  19.026  0.00  0.00    +0.000 C 
ENDROOT
BRANCH   1   2
ATOM      2  N   TRP A   1       2.893   5.194  19.157  0.00  0.00    +0.000 N 
ATOM      3  C   UNK A   0       2.114   5.893  20.048  0.00  0.00    +0.000 C 
ATOM      4  O   UNK A   0       1.365   5.324  20.845  0.00  0.00    +0.000 OA
ATOM      5  H   TRP A   1       3.164   5.714  18.326  0.00  0.00    +0.000 HD
BRANCH   3   6
ATOM      6  C   UNK A   0       2.332   7.412  20.062  0.00  0.00    +0.000 C 
ATOM      7  C   UNK A   0       1.481   8.053  21.170  0.00  0.00    +0.000 C 
ATOM      8  C   UNK A   0       0.711   9.033  20.376  0.00  0.00    +0.000 A 
ATOM      9  C   UNK A   0      -0.290   9.891  20.794  0.00  0.00    +0.000 A 
ATOM     10  C   UNK A   0      -0.831  10.761  19.852  0.00  0.00    +0.000 A 
ATOM     11  F   UNK A   0      -1.811  11.598  20.220  0.00  0.00    +0.000 F 
ATOM     12  C   UNK A   0      -0.370  10.784  18.530  0.00  0.00    +0.000 A 
ATOM     13  C   UNK A   0       0.630   9.895  18.122  0.00  0.00    +0.000 A 
ATOM     14  C   UNK A   0       1.139   9.017  19.060  0.00  0.00    +0.000 A 
ATOM     15  O   UNK A   0       2.078   8.058  18.793  0.00  0.00    +0.000 OA
ENDBRANCH   3   6
ENDBRANCH   1   2
BRANCH   1  17
ATOM     16  O   TRP A   1       1.136   4.089  17.200  0.00  0.00    +0.000 OA
ATOM     17  C   TRP A   1       1.447   3.479  18.212  0.00  0.00    +0.000 C 
BRANCH  17  18
ATOM     18  OXT TRP A   1       0.675   2.471  18.693  0.00  0.00    +0.000 OA
ATOM     19  HXT TRP A   1       0.496   2.508  19.652  0.00  0.00    +0.000 HD
ENDBRANCH  17  18
ENDBRANCH   1  17
BRANCH   1  20
ATOM     20  CB  TRP A   1       3.922   3.073  18.351  0.00  0.00    +0.000 C 
BRANCH  20  21
ATOM     21  CG  TRP A   1       4.768   3.995  17.525  0.00  0.00    +0.000 A 
ATOM     22  CD1 TRP A   1       4.600   4.301  16.187  0.00  0.00    +0.000 A 
ATOM     23  NE1 TRP A   1       5.512   5.265  15.844  0.00  0.00    +0.000 N 
ATOM     24  CE2 TRP A   1       6.269   5.615  16.937  0.00  0.00    +0.000 A 
ATOM     25  CZ2 TRP A   1       7.259   6.597  17.075  0.00  0.00    +0.000 A 
ATOM     26  CH2 TRP A   1       7.872   6.727  18.324  0.00  0.00    +0.000 A 
ATOM     27  CZ3 TRP A   1       7.534   5.885  19.379  0.00  0.00    +0.000 A 
ATOM     28  CE3 TRP A   1       6.541   4.911  19.224  0.00  0.00    +0.000 A 
ATOM     29  CD2 TRP A   1       5.871   4.789  17.989  0.00  0.00    +0.000 A 
ATOM     30  HE1 TRP A   1       5.599   5.693  14.931  0.00  0.00    +0.000 HD
ENDBRANCH  20  21
ENDBRANCH   1  20
TORSDOF 6
ENDMDL
MODEL 2
REMARK VINA RESULT:      -8.1      3.453      5.710
REMARK  Name = 
REMARK  6 active torsions:
REMARK  status: ('A' for Active; 'I' for Inactive)
REMARK    1  A    between atoms: C_2  and  OXT_3
REMARK    2  A    between atoms: C_2  and  CA_4
REMARK    3  A    between atoms: CA_4  and  CB_5
REMARK    4  A    between atoms: CA_4  and  N_15
REMARK    5  A    between atoms: CB_5  and  CG_6
REMARK    6  A    between atoms: C_16  and  C_18
REMARK                            x       y       z     vdW  Elec       q    Type
REMARK                         _______ _______ _______ _____ _____    ______ ____
ROOT
ATOM      1  CA  TRP A   1       6.555   6.518  17.943  0.00  0.00    +0.000 C 
ENDROOT
BRANCH   1   2
ATOM      2  N   TRP A   1       5.221   5.908  17.945  0.00  0.00    +0.000 N 
ATOM      3  C   UNK A   0       4.111   6.699  17.770  0.00  0.00    +0.000 C 
ATOM      4  O   UNK A   0       4.201   7.893  17.475  0.00  0.00    +0.000 OA
ATOM      5  H   TRP A   1       5.076   5.092  18.534  0.00  0.00    +0.000 HD
BRANCH   3   6
ATOM      6  C   UNK A   0       2.763   5.970  17.848  0.00  0.00    +0.000 C 
ATOM      7  C   UNK A   0       2.136   6.173  19.236  0.00  0.00    +0.000 C 
ATOM      8  C   UNK A   0       1.950   4.767  19.649  0.00  0.00    +0.000 A 
ATOM      9  C   UNK A   0       1.477   4.273  20.852  0.00  0.00    +0.000 A 
ATOM     10  C   UNK A   0       1.349   2.893  20.978  0.00  0.00    +0.000 A 
ATOM     11  F   UNK A   0       0.905   2.379  22.133  0.00  0.00    +0.000 F 
ATOM     12  C   UNK A   0       1.669   2.030  19.922  0.00  0.00    +0.000 A 
ATOM     13  C   UNK A   0       2.163   2.548  18.720  0.00  0.00    +0.000 A 
ATOM     14  C   UNK A   0       2.313   3.919  18.618  0.00  0.00    +0.000 A 
ATOM     15  O   UNK A   0       2.835   4.560  17.528  0.00  0.00    +0.000 OA
ENDBRANCH   3   6
ENDBRANCH   1   2
BRANCH   1  17
ATOM     16  O   TRP A   1       6.968   5.027  19.835  0.00  0.00    +0.000 OA
ATOM     17  C   TRP A   1       7.344   5.956  19.135  0.00  0.00    +0.000 C 
BRANCH  17  18
ATOM     18  OXT TRP A   1       8.540   6.561  19.350  0.00  0.00    +0.000 OA
ATOM     19  HXT TRP A   1       8.598   7.485  19.040  0.00  0.00    +0.000 HD
ENDBRANCH  17  18
ENDBRANCH   1  17
BRANCH   1  20
ATOM     20  CB  TRP A   1       7.315   6.253  16.641  0.00  0.00    +0.000 C 
BRANCH  20  21
ATOM     21  CG  TRP A   1       6.843   5.053  15.875  0.00  0.00    +0.000 A 
ATOM     22  CD1 TRP A   1       6.096   3.997  16.364  0.00  0.00    +0.000 A 
ATOM     23  NE1 TRP A   1       5.781   3.168  15.319  0.00  0.00    +0.000 N 
ATOM     24  CE2 TRP A   1       6.291   3.667  14.145  0.00  0.00    +0.000 A 
ATOM     25  CZ2 TRP A   1       6.158   3.201  12.830  0.00  0.00    +0.000 A 
ATOM     26  CH2 TRP A   1       6.800   3.920  11.819  0.00  0.00    +0.000 A 
ATOM     27  CZ3 TRP A   1       7.575   5.038  12.117  0.00  0.00    +0.000 A 
ATOM     28  CE3 TRP A   1       7.696   5.490  13.436  0.00  0.00    +0.000 A 
ATOM     29  CD2 TRP A   1       7.019   4.812  14.470  0.00  0.00    +0.000 A 
ATOM     30  HE1 TRP A   1       5.222   2.328  15.385  0.00  0.00    +0.000 HD
ENDBRANCH  20  21
ENDBRANCH   1  20
TORSDOF 6
ENDMDL
MODEL 3
REMARK VINA RESULT:      -8.1      2.794      6.708
REMARK  Name = 
REMARK  6 active torsions:
REMARK  status: ('A' for Active; 'I' for Inactive)
REMARK    1  A    between atoms: C_2  and  OXT_3
REMARK    2  A    between atoms: C_2  and  CA_4
REMARK    3  A    between atoms: CA_4  and  CB_5
REMARK    4  A    between atoms: CA_4  and  N_15
REMARK    5  A    between atoms: CB_5  and  CG_6
REMARK    6  A    between atoms: C_16  and  C_18
REMARK                            x       y       z     vdW  Elec       q    Type
REMARK                         _______ _______ _______ _____ _____    ______ ____
ROOT
ATOM      1  CA  TRP A   1       1.592   5.021  20.211  0.00  0.00    +0.000 C 
ENDROOT
BRANCH   1   2
ATOM      2  N   TRP A   1       2.869   4.969  19.492  0.00  0.00    +0.000 N 
ATOM      3  C   UNK A   0       2.950   4.295  18.296  0.00  0.00    +0.000 C 
ATOM      4  O   UNK A   0       1.950   3.843  17.734  0.00  0.00    +0.000 OA
ATOM      5  H   TRP A   1       3.723   4.961  20.045  0.00  0.00    +0.000 HD
BRANCH   3   6
ATOM      6  C   UNK A   0       4.345   4.252  17.658  0.00  0.00    +0.000 C 
ATOM      7  C   UNK A   0       5.420   4.171  18.752  0.00  0.00    +0.000 C 
ATOM      8  C   UNK A   0       6.237   5.352  18.406  0.00  0.00    +0.000 A 
ATOM      9  C   UNK A   0       7.338   5.867  19.066  0.00  0.00    +0.000 A 
ATOM     10  C   UNK A   0       7.969   6.973  18.505  0.00  0.00    +0.000 A 
ATOM     11  F   UNK A   0       9.031   7.506  19.124  0.00  0.00    +0.000 F 
ATOM     12  C   UNK A   0       7.520   7.540  17.305  0.00  0.00    +0.000 A 
ATOM     13  C   UNK A   0       6.393   7.015  16.662  0.00  0.00    +0.000 A 
ATOM     14  C   UNK A   0       5.759   5.934  17.245  0.00  0.00    +0.000 A 
ATOM     15  O   UNK A   0       4.618   5.354  16.761  0.00  0.00    +0.000 OA
ENDBRANCH   3   6
ENDBRANCH   1   2
BRANCH   1  17
ATOM     16  O   TRP A   1       1.974   3.369  21.971  0.00  0.00    +0.000 OA
ATOM     17  C   TRP A   1       1.395   3.684  20.942  0.00  0.00    +0.000 C 
BRANCH  17  18
ATOM     18  OXT TRP A   1       0.485   2.859  20.364  0.00  0.00    +0.000 OA
ATOM     19  HXT TRP A   1      -0.395   3.254  20.213  0.00  0.00    +0.000 HD
ENDBRANCH  17  18
ENDBRANCH   1  17
BRANCH   1  20
ATOM     20  CB  TRP A   1       1.533   6.177  21.211  0.00  0.00    +0.000 C 
BRANCH  20  21
ATOM     21  CG  TRP A   1       1.428   7.538  20.588  0.00  0.00    +0.000 A 
ATOM     22  CD1 TRP A   1       1.851   7.906  19.324  0.00  0.00    +0.000 A 
ATOM     23  NE1 TRP A   1       1.471   9.204  19.101  0.00  0.00    +0.000 N 
ATOM     24  CE2 TRP A   1       0.789   9.694  20.189  0.00  0.00    +0.000 A 
ATOM     25  CZ2 TRP A   1       0.159  10.931  20.379  0.00  0.00    +0.000 A 
ATOM     26  CH2 TRP A   1      -0.463  11.159  21.609  0.00  0.00    +0.000 A 
ATOM     27  CZ3 TRP A   1      -0.422  10.203  22.621  0.00  0.00    +0.000 A 
ATOM     28  CE3 TRP A   1       0.211   8.972  22.412  0.00  0.00    +0.000 A 
ATOM     29  CD2 TRP A   1       0.805   8.696  21.163  0.00  0.00    +0.000 A 
ATOM     30  HE1 TRP A   1       1.631   9.724  18.248  0.00  0.00    +0.000 HD
ENDBRANCH  20  21
ENDBRANCH   1  20
TORSDOF 6
ENDMDL
MODEL 4
REMARK VINA RESULT:      -8.1      2.424      3.498
REMARK  Name = 
REMARK  6 active torsions:
REMARK  status: ('A' for Active; 'I' for Inactive)
REMARK    1  A    between atoms: C_2  and  OXT_3
REMARK    2  A    between atoms: C_2  and  CA_4
REMARK    3  A    between atoms: CA_4  and  CB_5
REMARK    4  A    between atoms: CA_4  and  N_15
REMARK    5  A    between atoms: CB_5  and  CG_6
REMARK    6  A    between atoms: C_16  and  C_18
REMARK                            x       y       z     vdW  Elec       q    Type
REMARK                         _______ _______ _______ _____ _____    ______ ____
ROOT
ATOM      1  CA  TRP A   1       4.289   4.174  18.061  0.00  0.00    +0.000 C 
ENDROOT
BRANCH   1   2
ATOM      2  N   TRP A   1       3.070   4.972  18.236  0.00  0.00    +0.000 N 
ATOM      3  C   UNK A   0       3.153   6.344  18.267  0.00  0.00    +0.000 C 
ATOM      4  O   UNK A   0       4.204   6.939  18.017  0.00  0.00    +0.000 OA
ATOM      5  H   TRP A   1       2.323   4.576  18.802  0.00  0.00    +0.000 HD
BRANCH   3   6
ATOM      6  C   UNK A   0       1.829   7.078  18.513  0.00  0.00    +0.000 C 
ATOM      7  C   UNK A   0       1.773   8.358  17.664  0.00  0.00    +0.000 C 
ATOM      8  C   UNK A   0       1.540   9.364  18.719  0.00  0.00    +0.000 A 
ATOM      9  C   UNK A   0       1.457  10.740  18.601  0.00  0.00    +0.000 A 
ATOM     10  C   UNK A   0       1.178  11.472  19.752  0.00  0.00    +0.000 A 
ATOM     11  F   UNK A   0       1.103  12.808  19.675  0.00  0.00    +0.000 F 
ATOM     12  C   UNK A   0       0.971  10.843  20.985  0.00  0.00    +0.000 A 
ATOM     13  C   UNK A   0       1.077   9.452  21.088  0.00  0.00    +0.000 A 
ATOM     14  C   UNK A   0       1.383   8.739  19.943  0.00  0.00    +0.000 A 
ATOM     15  O   UNK A   0       1.572   7.384  19.904  0.00  0.00    +0.000 OA
ENDBRANCH   3   6
ENDBRANCH   1   2
BRANCH   1  17
ATOM     16  O   TRP A   1       3.258   2.166  18.998  0.00  0.00    +0.000 OA
ATOM     17  C   TRP A   1       4.198   2.947  18.981  0.00  0.00    +0.000 C 
BRANCH  17  18
ATOM     18  OXT TRP A   1       5.278   2.767  19.783  0.00  0.00    +0.000 OA
ATOM     19  HXT TRP A   1       6.140   2.955  19.364  0.00  0.00    +0.000 HD
ENDBRANCH  17  18
ENDBRANCH   1  17
BRANCH   1  20
ATOM     20  CB  TRP A   1       4.490   3.727  16.612  0.00  0.00    +0.000 C 
BRANCH  20  21
ATOM     21  CG  TRP A   1       5.604   4.428  15.891  0.00  0.00    +0.000 A 
ATOM     22  CD1 TRP A   1       6.549   5.271  16.445  0.00  0.00    +0.000 A 
ATOM     23  NE1 TRP A   1       7.452   5.611  15.470  0.00  0.00    +0.000 N 
ATOM     24  CE2 TRP A   1       7.128   4.992  14.286  0.00  0.00    +0.000 A 
ATOM     25  CZ2 TRP A   1       7.799   4.987  13.056  0.00  0.00    +0.000 A 
ATOM     26  CH2 TRP A   1       7.226   4.261  12.008  0.00  0.00    +0.000 A 
ATOM     27  CZ3 TRP A   1       6.012   3.599  12.176  0.00  0.00    +0.000 A 
ATOM     28  CE3 TRP A   1       5.358   3.613  13.413  0.00  0.00    +0.000 A 
ATOM     29  CD2 TRP A   1       5.938   4.297  14.501  0.00  0.00    +0.000 A 
ATOM     30  HE1 TRP A   1       8.263   6.200  15.602  0.00  0.00    +0.000 HD
ENDBRANCH  20  21
ENDBRANCH   1  20
TORSDOF 6
ENDMDL
MODEL 5
REMARK VINA RESULT:      -8.0      2.665      3.950
REMARK  Name = 
REMARK  6 active torsions:
REMARK  status: ('A' for Active; 'I' for Inactive)
REMARK    1  A    between atoms: C_2  and  OXT_3
REMARK    2  A    between atoms: C_2  and  CA_4
REMARK    3  A    between atoms: CA_4  and  CB_5
REMARK    4  A    between atoms: CA_4  and  N_15
REMARK    5  A    between atoms: CB_5  and  CG_6
REMARK    6  A    between atoms: C_16  and  C_18
REMARK                            x       y       z     vdW  Elec       q    Type
REMARK                         _______ _______ _______ _____ _____    ______ ____
ROOT
ATOM      1  CA  TRP A   1       5.009   5.208  17.899  0.00  0.00    +0.000 C 
ENDROOT
BRANCH   1   2
ATOM      2  N   TRP A   1       3.667   5.692  18.240  0.00  0.00    +0.000 N 
ATOM      3  C   UNK A   0       3.342   7.009  18.020  0.00  0.00    +0.000 C 
ATOM      4  O   UNK A   0       4.098   7.775  17.418  0.00  0.00    +0.000 OA
ATOM      5  H   TRP A   1       3.197   5.263  19.033  0.00  0.00    +0.000 HD
BRANCH   3   6
ATOM      6  C   UNK A   0       1.934   7.424  18.466  0.00  0.00    +0.000 C 
ATOM      7  C   UNK A   0       1.610   8.831  17.939  0.00  0.00    +0.000 C 
ATOM      8  C   UNK A   0       1.284   9.518  19.206  0.00  0.00    +0.000 A 
ATOM      9  C   UNK A   0       0.967  10.848  19.413  0.00  0.00    +0.000 A 
ATOM     10  C   UNK A   0       0.649  11.243  20.709  0.00  0.00    +0.000 A 
ATOM     11  F   UNK A   0       0.348  12.527  20.947  0.00  0.00    +0.000 F 
ATOM     12  C   UNK A   0       0.633  10.327  21.768  0.00  0.00    +0.000 A 
ATOM     13  C   UNK A   0       0.974   8.989  21.541  0.00  0.00    +0.000 A 
ATOM     14  C   UNK A   0       1.316   8.616  20.255  0.00  0.00    +0.000 A 
ATOM     15  O   UNK A   0       1.725   7.360  19.897  0.00  0.00    +0.000 OA
ENDBRANCH   3   6
ENDBRANCH   1   2
BRANCH   1  17
ATOM     16  O   TRP A   1       5.155   3.346  19.475  0.00  0.00    +0.000 OA
ATOM     17  C   TRP A   1       5.564   4.437  19.105  0.00  0.00    +0.000 C 
BRANCH  17  18
ATOM     18  OXT TRP A   1       6.591   5.056  19.741  0.00  0.00    +0.000 OA
ATOM     19  HXT TRP A   1       6.327   5.700  20.425  0.00  0.00    +0.000 HD
ENDBRANCH  17  18
ENDBRANCH   1  17
BRANCH   1  20
ATOM     20  CB  TRP A   1       5.008   4.310  16.660  0.00  0.00    +0.000 C 
BRANCH  20  21
ATOM     21  CG  TRP A   1       5.997   4.702  15.603  0.00  0.00    +0.000 A 
ATOM     22  CD1 TRP A   1       7.134   5.469  15.774  0.00  0.00    +0.000 A 
ATOM     23  NE1 TRP A   1       7.820   5.500  14.588  0.00  0.00    +0.000 N 
ATOM     24  CE2 TRP A   1       7.164   4.751  13.640  0.00  0.00    +0.000 A 
ATOM     25  CZ2 TRP A   1       7.528   4.440  12.323  0.00  0.00    +0.000 A 
ATOM     26  CH2 TRP A   1       6.650   3.649  11.578  0.00  0.00    +0.000 A 
ATOM     27  CZ3 TRP A   1       5.441   3.218  12.118  0.00  0.00    +0.000 A 
ATOM     28  CE3 TRP A   1       5.095   3.537  13.436  0.00  0.00    +0.000 A 
ATOM     29  CD2 TRP A   1       5.984   4.294  14.227  0.00  0.00    +0.000 A 
ATOM     30  HE1 TRP A   1       8.702   5.971  14.432  0.00  0.00    +0.000 HD
ENDBRANCH  20  21
ENDBRANCH   1  20
TORSDOF 6
ENDMDL
MODEL 6
REMARK VINA RESULT:      -8.0      1.057      1.866
REMARK  Name = 
REMARK  6 active torsions:
REMARK  status: ('A' for Active; 'I' for Inactive)
REMARK    1  A    between atoms: C_2  and  OXT_3
REMARK    2  A    between atoms: C_2  and  CA_4
REMARK    3  A    between atoms: CA_4  and  CB_5
REMARK    4  A    between atoms: CA_4  and  N_15
REMARK    5  A    between atoms: CB_5  and  CG_6
REMARK    6  A    between atoms: C_16  and  C_18
REMARK                            x       y       z     vdW  Elec       q    Type
REMARK                         _______ _______ _______ _____ _____    ______ ____
ROOT
ATOM      1  CA  TRP A   1       2.759   4.027  19.103  0.00  0.00    +0.000 C 
ENDROOT
BRANCH   1   2
ATOM      2  N   TRP A   1       2.874   5.488  19.164  0.00  0.00    +0.000 N 
ATOM      3  C   UNK A   0       2.062   6.200  20.015  0.00  0.00    +0.000 C 
ATOM      4  O   UNK A   0       1.329   5.642  20.834  0.00  0.00    +0.000 OA
ATOM      5  H   TRP A   1       3.131   5.978  18.310  0.00  0.00    +0.000 HD
BRANCH   3   6
ATOM      6  C   UNK A   0       2.222   7.725  19.957  0.00  0.00    +0.000 C 
ATOM      7  C   UNK A   0       1.423   8.379  21.095  0.00  0.00    +0.000 C 
ATOM      8  C   UNK A   0       0.565   9.298  20.319  0.00  0.00    +0.000 A 
ATOM      9  C   UNK A   0      -0.438  10.136  20.771  0.00  0.00    +0.000 A 
ATOM     10  C   UNK A   0      -1.073  10.947  19.836  0.00  0.00    +0.000 A 
ATOM     11  F   UNK A   0      -2.058  11.763  20.238  0.00  0.00    +0.000 F 
ATOM     12  C   UNK A   0      -0.703  10.933  18.486  0.00  0.00    +0.000 A 
ATOM     13  C   UNK A   0       0.301  10.065  18.045  0.00  0.00    +0.000 A 
ATOM     14  C   UNK A   0       0.905   9.244  18.979  0.00  0.00    +0.000 A 
ATOM     15  O   UNK A   0       1.859   8.309  18.684  0.00  0.00    +0.000 OA
ENDBRANCH   3   6
ENDBRANCH   1   2
BRANCH   1  17
ATOM     16  O   TRP A   1       1.126   4.408  17.325  0.00  0.00    +0.000 OA
ATOM     17  C   TRP A   1       1.928   3.660  17.864  0.00  0.00    +0.000 C 
BRANCH  17  18
ATOM     18  OXT TRP A   1       2.169   2.416  17.377  0.00  0.00    +0.000 OA
ATOM     19  HXT TRP A   1       3.098   2.120  17.439  0.00  0.00    +0.000 HD
ENDBRANCH  17  18
ENDBRANCH   1  17
BRANCH   1  20
ATOM     20  CB  TRP A   1       4.124   3.338  19.039  0.00  0.00    +0.000 C 
BRANCH  20  21
ATOM     21  CG  TRP A   1       5.228   4.188  18.484  0.00  0.00    +0.000 A 
ATOM     22  CD1 TRP A   1       6.165   4.907  19.204  0.00  0.00    +0.000 A 
ATOM     23  NE1 TRP A   1       7.062   5.455  18.324  0.00  0.00    +0.000 N 
ATOM     24  CE2 TRP A   1       6.744   5.096  17.037  0.00  0.00    +0.000 A 
ATOM     25  CZ2 TRP A   1       7.413   5.359  15.833  0.00  0.00    +0.000 A 
ATOM     26  CH2 TRP A   1       6.847   4.864  14.656  0.00  0.00    +0.000 A 
ATOM     27  CZ3 TRP A   1       5.642   4.167  14.678  0.00  0.00    +0.000 A 
ATOM     28  CE3 TRP A   1       4.989   3.912  15.889  0.00  0.00    +0.000 A 
ATOM     29  CD2 TRP A   1       5.562   4.358  17.098  0.00  0.00    +0.000 A 
ATOM     30  HE1 TRP A   1       7.866   6.012  18.578  0.00  0.00    +0.000 HD
ENDBRANCH  20  21
ENDBRANCH   1  20
TORSDOF 6
ENDMDL
MODEL 7
REMARK VINA RESULT:      -7.9      3.528      5.727
REMARK  Name = 
REMARK  6 active torsions:
REMARK  status: ('A' for Active; 'I' for Inactive)
REMARK    1  A    between atoms: C_2  and  OXT_3
REMARK    2  A    between atoms: C_2  and  CA_4
REMARK    3  A    between atoms: CA_4  and  CB_5
REMARK    4  A    between atoms: CA_4  and  N_15
REMARK    5  A    between atoms: CB_5  and  CG_6
REMARK    6  A    between atoms: C_16  and  C_18
REMARK                            x       y       z     vdW  Elec       q    Type
REMARK                         _______ _______ _______ _____ _____    ______ ____
ROOT
ATOM      1  CA  TRP A   1       6.613   5.816  17.740  0.00  0.00    +0.000 C 
ENDROOT
BRANCH   1   2
ATOM      2  N   TRP A   1       5.221   5.677  18.183  0.00  0.00    +0.000 N 
ATOM      3  C   UNK A   0       4.227   6.362  17.526  0.00  0.00    +0.000 C 
ATOM      4  O   UNK A   0       4.444   6.989  16.487  0.00  0.00    +0.000 OA
ATOM      5  H   TRP A   1       5.054   5.528  19.175  0.00  0.00    +0.000 HD
BRANCH   3   6
ATOM      6  C   UNK A   0       2.817   6.193  18.106  0.00  0.00    +0.000 C 
ATOM      7  C   UNK A   0       2.879   6.180  19.642  0.00  0.00    +0.000 C 
ATOM      8  C   UNK A   0       2.221   4.887  19.920  0.00  0.00    +0.000 A 
ATOM      9  C   UNK A   0       2.023   4.260  21.137  0.00  0.00    +0.000 A 
ATOM     10  C   UNK A   0       1.324   3.057  21.138  0.00  0.00    +0.000 A 
ATOM     11  F   UNK A   0       1.124   2.416  22.299  0.00  0.00    +0.000 F 
ATOM     12  C   UNK A   0       0.822   2.503  19.955  0.00  0.00    +0.000 A 
ATOM     13  C   UNK A   0       1.048   3.143  18.731  0.00  0.00    +0.000 A 
ATOM     14  C   UNK A   0       1.768   4.323  18.740  0.00  0.00    +0.000 A 
ATOM     15  O   UNK A   0       2.113   5.027  17.619  0.00  0.00    +0.000 OA
ENDBRANCH   3   6
ENDBRANCH   1   2
BRANCH   1  17
ATOM     16  O   TRP A   1       7.437   5.249  19.970  0.00  0.00    +0.000 OA
ATOM     17  C   TRP A   1       7.502   5.968  18.984  0.00  0.00    +0.000 C 
BRANCH  17  18
ATOM     18  OXT TRP A   1       8.412   6.971  18.902  0.00  0.00    +0.000 OA
ATOM     19  HXT TRP A   1       9.305   6.697  18.616  0.00  0.00    +0.000 HD
ENDBRANCH  17  18
ENDBRANCH   1  17
BRANCH   1  20
ATOM     20  CB  TRP A   1       7.081   4.622  16.906  0.00  0.00    +0.000 C 
BRANCH  20  21
ATOM     21  CG  TRP A   1       7.329   4.929  15.459  0.00  0.00    +0.000 A 
ATOM     22  CD1 TRP A   1       8.325   5.736  14.940  0.00  0.00    +0.000 A 
ATOM     23  NE1 TRP A   1       8.274   5.663  13.572  0.00  0.00    +0.000 N 
ATOM     24  CE2 TRP A   1       7.272   4.809  13.178  0.00  0.00    +0.000 A 
ATOM     25  CZ2 TRP A   1       6.904   4.377  11.897  0.00  0.00    +0.000 A 
ATOM     26  CH2 TRP A   1       5.825   3.495  11.796  0.00  0.00    +0.000 A 
ATOM     27  CZ3 TRP A   1       5.120   3.094  12.927  0.00  0.00    +0.000 A 
ATOM     28  CE3 TRP A   1       5.503   3.534  14.199  0.00  0.00    +0.000 A 
ATOM     29  CD2 TRP A   1       6.619   4.386  14.336  0.00  0.00    +0.000 A 
ATOM     30  HE1 TRP A   1       8.902   6.136  12.936  0.00  0.00    +0.000 HD
ENDBRANCH  20  21
ENDBRANCH   1  20
TORSDOF 6
ENDMDL
MODEL 8
REMARK VINA RESULT:      -7.8      3.558      5.681
REMARK  Name = 
REMARK  6 active torsions:
REMARK  status: ('A' for Active; 'I' for Inactive)
REMARK    1  A    between atoms: C_2  and  OXT_3
REMARK    2  A    between atoms: C_2  and  CA_4
REMARK    3  A    between atoms: CA_4  and  CB_5
REMARK    4  A    between atoms: CA_4  and  N_15
REMARK    5  A    between atoms: CB_5  and  CG_6
REMARK    6  A    between atoms: C_16  and  C_18
REMARK                            x       y       z     vdW  Elec       q    Type
REMARK                         _______ _______ _______ _____ _____    ______ ____
ROOT
ATOM      1  CA  TRP A   1       6.898   6.265  17.427  0.00  0.00    +0.000 C 
ENDROOT
BRANCH   1   2
ATOM      2  N   TRP A   1       5.571   6.170  18.047  0.00  0.00    +0.000 N 
ATOM      3  C   UNK A   0       4.457   6.534  17.329  0.00  0.00    +0.000 C 
ATOM      4  O   UNK A   0       4.517   6.812  16.129  0.00  0.00    +0.000 OA
ATOM      5  H   TRP A   1       5.506   6.332  19.048  0.00  0.00    +0.000 HD
BRANCH   3   6
ATOM      6  C   UNK A   0       3.127   6.453  18.090  0.00  0.00    +0.000 C 
ATOM      7  C   UNK A   0       3.393   6.238  19.588  0.00  0.00    +0.000 C 
ATOM      8  C   UNK A   0       2.616   5.003  19.818  0.00  0.00    +0.000 A 
ATOM      9  C   UNK A   0       2.503   4.254  20.975  0.00  0.00    +0.000 A 
ATOM     10  C   UNK A   0       1.660   3.146  20.949  0.00  0.00    +0.000 A 
ATOM     11  F   UNK A   0       1.537   2.391  22.049  0.00  0.00    +0.000 F 
ATOM     12  C   UNK A   0       0.936   2.807  19.799  0.00  0.00    +0.000 A 
ATOM     13  C   UNK A   0       1.078   3.567  18.633  0.00  0.00    +0.000 A 
ATOM     14  C   UNK A   0       1.940   4.647  18.664  0.00  0.00    +0.000 A 
ATOM     15  O   UNK A   0       2.220   5.445  17.588  0.00  0.00    +0.000 OA
ENDBRANCH   3   6
ENDBRANCH   1   2
BRANCH   1  17
ATOM     16  O   TRP A   1       8.217   8.139  18.275  0.00  0.00    +0.000 OA
ATOM     17  C   TRP A   1       7.837   6.984  18.406  0.00  0.00    +0.000 C 
BRANCH  17  18
ATOM     18  OXT TRP A   1       8.211   6.237  19.475  0.00  0.00    +0.000 OA
ATOM     19  HXT TRP A   1       8.000   5.286  19.409  0.00  0.00    +0.000 HD
ENDBRANCH  17  18
ENDBRANCH   1  17
BRANCH   1  20
ATOM     20  CB  TRP A   1       7.471   4.893  17.065  0.00  0.00    +0.000 C 
BRANCH  20  21
ATOM     21  CG  TRP A   1       6.858   4.260  15.851  0.00  0.00    +0.000 A 
ATOM     22  CD1 TRP A   1       5.823   3.343  15.826  0.00  0.00    +0.000 A 
ATOM     23  NE1 TRP A   1       5.488   3.102  14.519  0.00  0.00    +0.000 N 
ATOM     24  CE2 TRP A   1       6.272   3.858  13.680  0.00  0.00    +0.000 A 
ATOM     25  CZ2 TRP A   1       6.237   3.991  12.285  0.00  0.00    +0.000 A 
ATOM     26  CH2 TRP A   1       7.174   4.842  11.692  0.00  0.00    +0.000 A 
ATOM     27  CZ3 TRP A   1       8.131   5.500  12.460  0.00  0.00    +0.000 A 
ATOM     28  CE3 TRP A   1       8.150   5.356  13.852  0.00  0.00    +0.000 A 
ATOM     29  CD2 TRP A   1       7.185   4.543  14.482  0.00  0.00    +0.000 A 
ATOM     30  HE1 TRP A   1       4.748   2.488  14.206  0.00  0.00    +0.000 HD
ENDBRANCH  20  21
ENDBRANCH   1  20
TORSDOF 6
ENDMDL
MODEL 9
REMARK VINA RESULT:      -7.8      3.743      8.387
REMARK  Name = 
REMARK  6 active torsions:
REMARK  status: ('A' for Active; 'I' for Inactive)
REMARK    1  A    between atoms: C_2  and  OXT_3
REMARK    2  A    between atoms: C_2  and  CA_4
REMARK    3  A    between atoms: CA_4  and  CB_5
REMARK    4  A    between atoms: CA_4  and  N_15
REMARK    5  A    between atoms: CB_5  and  CG_6
REMARK    6  A    between atoms: C_16  and  C_18
REMARK                            x       y       z     vdW  Elec       q    Type
REMARK                         _______ _______ _______ _____ _____    ______ ____
ROOT
ATOM      1  CA  TRP A   1       0.208  10.176  20.244  0.00  0.00    +0.000 C 
ENDROOT
BRANCH   1   2
ATOM      2  N   TRP A   1       1.088   9.005  20.167  0.00  0.00    +0.000 N 
ATOM      3  C   UNK A   0       0.849   7.920  20.977  0.00  0.00    +0.000 C 
ATOM      4  O   UNK A   0      -0.163   7.839  21.676  0.00  0.00    +0.000 OA
ATOM      5  H   TRP A   1       2.067   9.164  19.942  0.00  0.00    +0.000 HD
BRANCH   3   6
ATOM      6  C   UNK A   0       1.863   6.774  20.858  0.00  0.00    +0.000 C 
ATOM      7  C   UNK A   0       2.562   6.832  19.491  0.00  0.00    +0.000 C 
ATOM      8  C   UNK A   0       2.262   5.477  18.985  0.00  0.00    +0.000 A 
ATOM      9  C   UNK A   0       2.570   4.924  17.755  0.00  0.00    +0.000 A 
ATOM     10  C   UNK A   0       2.216   3.596  17.536  0.00  0.00    +0.000 A 
ATOM     11  F   UNK A   0       2.489   3.032  16.351  0.00  0.00    +0.000 F 
ATOM     12  C   UNK A   0       1.586   2.835  18.529  0.00  0.00    +0.000 A 
ATOM     13  C   UNK A   0       1.266   3.418  19.760  0.00  0.00    +0.000 A 
ATOM     14  C   UNK A   0       1.597   4.746  19.954  0.00  0.00    +0.000 A 
ATOM     15  O   UNK A   0       1.298   5.461  21.082  0.00  0.00    +0.000 OA
ENDBRANCH   3   6
ENDBRANCH   1   2
BRANCH   1  17
ATOM     16  O   TRP A   1       1.511  12.095  21.015  0.00  0.00    +0.000 OA
ATOM     17  C   TRP A   1       0.788  11.147  21.284  0.00  0.00    +0.000 C 
BRANCH  17  18
ATOM     18  OXT TRP A   1       0.412  10.889  22.562  0.00  0.00    +0.000 OA
ATOM     19  HXT TRP A   1       0.143   9.966  22.736  0.00  0.00    +0.000 HD
ENDBRANCH  17  18
ENDBRANCH   1  17
BRANCH   1  20
ATOM     20  CB  TRP A   1       0.059  10.884  18.895  0.00  0.00    +0.000 C 
BRANCH  20  21
ATOM     21  CG  TRP A   1      -1.350  11.254  18.537  0.00  0.00    +0.000 A 
ATOM     22  CD1 TRP A   1      -2.144  12.198  19.161  0.00  0.00    +0.000 A 
ATOM     23  NE1 TRP A   1      -3.317  12.311  18.460  0.00  0.00    +0.000 N 
ATOM     24  CE2 TRP A   1      -3.304  11.470  17.374  0.00  0.00    +0.000 A 
ATOM     25  CZ2 TRP A   1      -4.244  11.303  16.348  0.00  0.00    +0.000 A 
ATOM     26  CH2 TRP A   1      -3.964  10.356  15.359  0.00  0.00    +0.000 A 
ATOM     27  CZ3 TRP A   1      -2.808   9.581  15.417  0.00  0.00    +0.000 A 
ATOM     28  CE3 TRP A   1      -1.879   9.763  16.448  0.00  0.00    +0.000 A 
ATOM     29  CD2 TRP A   1      -2.113  10.746  17.432  0.00  0.00    +0.000 A 
ATOM     30  HE1 TRP A   1      -4.073  12.945  18.680  0.00  0.00    +0.000 HD
ENDBRANCH  20  21
ENDBRANCH   1  20
TORSDOF 6
ENDMDL
