MODEL 1
REMARK VINA RESULT:      -8.7      0.000      0.000
REMARK  Name = 
REMARK  6 active torsions:
REMARK  status: ('A' for Active; 'I' for Inactive)
REMARK    1  A    between atoms: C_1  and  C_2
REMARK    2  A    between atoms: C_2  and  C_3
REMARK    3  A    between atoms: C_9  and  O_10
REMARK    4  A    between atoms: O_10  and  C_11
REMARK    5  A    between atoms: C_11  and  C_12
REMARK    6  A    between atoms: N_14  and  C_15
REMARK                            x       y       z     vdW  Elec       q    Type
REMARK                         _______ _______ _______ _____ _____    ______ ____
ROOT
ATOM      1  C   UNL     1       8.190   8.724  18.119  0.00  0.00    +0.000 C 
ATOM      2  O   UNL     1       7.672   9.467  17.286  0.00  0.00    +0.000 OA
ATOM      3  N   UNL     1       9.079   9.109  19.117  0.00  0.00    +0.000 N 
ATOM      4  H   UNL     1       9.575   8.370  19.604  0.00  0.00    +0.000 HD
ENDROOT
BRANCH   3   5
ATOM      5  C   UNL     1       9.441  10.444  19.409  0.00  0.00    +0.000 A 
ATOM      6  C   UNL     1       9.384  10.962  20.705  0.00  0.00    +0.000 A 
ATOM      7  C   UNL     1       9.760  12.274  20.980  0.00  0.00    +0.000 A 
ATOM      8  C   UNL     1      10.233  13.087  19.956  0.00  0.00    +0.000 A 
ATOM      9  C   UNL     1      10.288  12.581  18.653  0.00  0.00    +0.000 A 
ATOM     10  C   UNL     1       9.895  11.268  18.371  0.00  0.00    +0.000 A 
ATOM     11  N   UNL     1      10.729  13.421  17.622  0.00  0.00    +0.000 N 
ATOM     12  C   UNL     1      11.310  14.641  17.832  0.00  0.00    +0.000 C 
ATOM     13  O   UNL     1      11.622  15.365  16.887  0.00  0.00    +0.000 OA
ATOM     14  C   UNL     1      11.673  14.979  19.259  0.00  0.00    +0.000 C 
ATOM     15  C   UNL     1      10.598  14.518  20.224  0.00  0.00    +0.000 C 
ATOM     16  H   UNL     1      10.613  13.148  16.653  0.00  0.00    +0.000 HD
ENDBRANCH   3   5
BRANCH   1  17
ATOM     17  C   UNL     1       7.884   7.239  18.098  0.00  0.00    +0.000 C 
BRANCH  17  18
ATOM     18  O   UNL     1       6.503   7.093  17.798  0.00  0.00    +0.000 OA
BRANCH  18  27
ATOM     19  C   UNL     1       1.895   4.858  17.947  0.00  0.00    +0.000 C 
ATOM     20  C   UNL     1       3.222   4.201  18.340  0.00  0.00    +0.000 C 
ATOM     21  C   UNL     1       3.107   3.545  19.717  0.00  0.00    +0.000 C 
ATOM     22  C   UNL     1       3.705   3.200  17.269  0.00  0.00    +0.000 C 
ATOM     23  C   UNL     1       4.852   3.948  16.701  0.00  0.00    +0.000 A 
ATOM     24  C   UNL     1       5.658   3.608  15.628  0.00  0.00    +0.000 A 
ATOM     25  C   UNL     1       6.710   4.462  15.297  0.00  0.00    +0.000 A 
ATOM     26  C   UNL     1       6.944   5.626  16.046  0.00  0.00    +0.000 A 
ATOM     27  C   UNL     1       6.138   5.955  17.140  0.00  0.00    +0.000 A 
ATOM     28  C   UNL     1       5.088   5.098  17.440  0.00  0.00    +0.000 A 
ATOM     29  O   UNL     1       4.205   5.258  18.474  0.00  0.00    +0.000 OA
ENDBRANCH  18  27
ENDBRANCH  17  18
ENDBRANCH   1  17
TORSDOF 4
ENDMDL
MODEL 2
REMARK VINA RESULT:      -8.6      6.122      7.999
REMARK  Name = 
REMARK  6 active torsions:
REMARK  status: ('A' for Active; 'I' for Inactive)
REMARK    1  A    between atoms: C_1  and  C_2
REMARK    2  A    between atoms: C_2  and  C_3
REMARK    3  A    between atoms: C_9  and  O_10
REMARK    4  A    between atoms: O_10  and  C_11
REMARK    5  A    between atoms: C_11  and  C_12
REMARK    6  A    between atoms: N_14  and  C_15
REMARK                            x       y       z     vdW  Elec       q    Type
REMARK                         _______ _______ _______ _____ _____    ______ ____
ROOT
ATOM      1  C   UNL     1       1.743   4.618  20.830  0.00  0.00    +0.000 C 
ATOM      2  O   UNL     1       0.596   4.497  20.403  0.00  0.00    +0.000 OA
ATOM      3  N   UNL     1       2.550   5.743  20.698  0.00  0.00    +0.000 N 
ATOM      4  H   UNL     1       3.533   5.635  20.923  0.00  0.00    +0.000 HD
ENDROOT
BRANCH   3   5
ATOM      5  C   UNL     1       2.135   6.978  20.149  0.00  0.00    +0.000 A 
ATOM      6  C   UNL     1       2.429   7.342  18.833  0.00  0.00    +0.000 A 
ATOM      7  C   UNL     1       1.999   8.556  18.302  0.00  0.00    +0.000 A 
ATOM      8  C   UNL     1       1.234   9.419  19.078  0.00  0.00    +0.000 A 
ATOM      9  C   UNL     1       0.940   9.067  20.401  0.00  0.00    +0.000 A 
ATOM     10  C   UNL     1       1.385   7.856  20.942  0.00  0.00    +0.000 A 
ATOM     11  N   UNL     1       0.202   9.962  21.187  0.00  0.00    +0.000 N 
ATOM     12  C   UNL     1      -0.433  11.066  20.689  0.00  0.00    +0.000 C 
ATOM     13  O   UNL     1      -1.014  11.853  21.435  0.00  0.00    +0.000 OA
ATOM     14  C   UNL     1      -0.499  11.185  19.184  0.00  0.00    +0.000 C 
ATOM     15  C   UNL     1       0.802  10.751  18.539  0.00  0.00    +0.000 C 
ATOM     16  H   UNL     1       0.126   9.822  22.187  0.00  0.00    +0.000 HD
ENDBRANCH   3   5
BRANCH   1  17
ATOM     17  C   UNL     1       2.400   3.465  21.563  0.00  0.00    +0.000 C 
BRANCH  17  18
ATOM     18  O   UNL     1       3.615   3.168  20.889  0.00  0.00    +0.000 OA
BRANCH  18  27
ATOM     19  C   UNL     1       7.257   4.598  17.582  0.00  0.00    +0.000 C 
ATOM     20  C   UNL     1       5.817   5.120  17.609  0.00  0.00    +0.000 C 
ATOM     21  C   UNL     1       5.804   6.649  17.589  0.00  0.00    +0.000 C 
ATOM     22  C   UNL     1       4.971   4.526  16.464  0.00  0.00    +0.000 C 
ATOM     23  C   UNL     1       4.091   3.610  17.228  0.00  0.00    +0.000 A 
ATOM     24  C   UNL     1       3.151   2.714  16.747  0.00  0.00    +0.000 A 
ATOM     25  C   UNL     1       2.411   1.976  17.671  0.00  0.00    +0.000 A 
ATOM     26  C   UNL     1       2.612   2.153  19.049  0.00  0.00    +0.000 A 
ATOM     27  C   UNL     1       3.551   3.072  19.529  0.00  0.00    +0.000 A 
ATOM     28  C   UNL     1       4.286   3.784  18.591  0.00  0.00    +0.000 A 
ATOM     29  O   UNL     1       5.238   4.725  18.877  0.00  0.00    +0.000 OA
ENDBRANCH  18  27
ENDBRANCH  17  18
ENDBRANCH   1  17
TORSDOF 4
ENDMDL
MODEL 3
REMARK VINA RESULT:      -8.6      6.190      9.996
REMARK  Name = 
REMARK  6 active torsions:
REMARK  status: ('A' for Active; 'I' for Inactive)
REMARK    1  A    between atoms: C_1  and  C_2
REMARK    2  A    between atoms: C_2  and  C_3
REMARK    3  A    between atoms: C_9  and  O_10
REMARK    4  A    between atoms: O_10  and  C_11
REMARK    5  A    between atoms: C_11  and  C_12
REMARK    6  A    between atoms: N_14  and  C_15
REMARK                            x       y       z     vdW  Elec       q    Type
REMARK                         _______ _______ _______ _____ _____    ______ ____
ROOT
ATOM      1  C   UNL     1       1.832   7.871  20.286  0.00  0.00    +0.000 C 
ATOM      2  O   UNL     1       1.895   8.542  19.257  0.00  0.00    +0.000 OA
ATOM      3  N   UNL     1       2.197   6.535  20.415  0.00  0.00    +0.000 N 
ATOM      4  H   UNL     1       1.911   6.058  21.263  0.00  0.00    +0.000 HD
ENDROOT
BRANCH   3   5
ATOM      5  C   UNL     1       2.814   5.762  19.405  0.00  0.00    +0.000 A 
ATOM      6  C   UNL     1       2.073   5.060  18.451  0.00  0.00    +0.000 A 
ATOM      7  C   UNL     1       2.695   4.316  17.452  0.00  0.00    +0.000 A 
ATOM      8  C   UNL     1       4.083   4.288  17.372  0.00  0.00    +0.000 A 
ATOM      9  C   UNL     1       4.835   4.982  18.327  0.00  0.00    +0.000 A 
ATOM     10  C   UNL     1       4.213   5.717  19.342  0.00  0.00    +0.000 A 
ATOM     11  N   UNL     1       6.234   4.915  18.261  0.00  0.00    +0.000 N 
ATOM     12  C   UNL     1       6.920   4.389  17.202  0.00  0.00    +0.000 C 
ATOM     13  O   UNL     1       8.147   4.298  17.226  0.00  0.00    +0.000 OA
ATOM     14  C   UNL     1       6.112   4.064  15.968  0.00  0.00    +0.000 C 
ATOM     15  C   UNL     1       4.772   3.455  16.332  0.00  0.00    +0.000 C 
ATOM     16  H   UNL     1       6.799   5.253  19.031  0.00  0.00    +0.000 HD
ENDBRANCH   3   5
BRANCH   1  17
ATOM     17  C   UNL     1       1.301   8.496  21.561  0.00  0.00    +0.000 C 
BRANCH  17  18
ATOM     18  O   UNL     1      -0.050   8.868  21.323  0.00  0.00    +0.000 OA
BRANCH  18  27
ATOM     19  C   UNL     1      -0.830  12.645  17.952  0.00  0.00    +0.000 C 
ATOM     20  C   UNL     1       0.196  12.658  19.090  0.00  0.00    +0.000 C 
ATOM     21  C   UNL     1       1.575  13.054  18.561  0.00  0.00    +0.000 C 
ATOM     22  C   UNL     1      -0.251  13.566  20.255  0.00  0.00    +0.000 C 
ATOM     23  C   UNL     1      -0.584  12.546  21.277  0.00  0.00    +0.000 A 
ATOM     24  C   UNL     1      -1.132  12.732  22.535  0.00  0.00    +0.000 A 
ATOM     25  C   UNL     1      -1.325  11.610  23.342  0.00  0.00    +0.000 A 
ATOM     26  C   UNL     1      -0.959  10.334  22.886  0.00  0.00    +0.000 A 
ATOM     27  C   UNL     1      -0.391  10.155  21.621  0.00  0.00    +0.000 A 
ATOM     28  C   UNL     1      -0.222  11.283  20.831  0.00  0.00    +0.000 A 
ATOM     29  O   UNL     1       0.321  11.298  19.574  0.00  0.00    +0.000 OA
ENDBRANCH  18  27
ENDBRANCH  17  18
ENDBRANCH   1  17
TORSDOF 4
ENDMDL
MODEL 4
REMARK VINA RESULT:      -8.5      6.164      9.493
REMARK  Name = 
REMARK  6 active torsions:
REMARK  status: ('A' for Active; 'I' for Inactive)
REMARK    1  A    between atoms: C_1  and  C_2
REMARK    2  A    between atoms: C_2  and  C_3
REMARK    3  A    between atoms: C_9  and  O_10
REMARK    4  A    between atoms: O_10  and  C_11
REMARK    5  A    between atoms: C_11  and  C_12
REMARK    6  A    between atoms: N_14  and  C_15
REMARK                            x       y       z     vdW  Elec       q    Type
REMARK                         _______ _______ _______ _____ _____    ______ ____
ROOT
ATOM      1  C   UNL     1       1.973   7.040  20.063  0.00  0.00    +0.000 C 
ATOM      2  O   UNL     1       1.964   5.985  20.695  0.00  0.00    +0.000 OA
ATOM      3  N   UNL     1       2.642   7.270  18.865  0.00  0.00    +0.000 N 
ATOM      4  H   UNL     1       2.723   8.233  18.559  0.00  0.00    +0.000 HD
ENDROOT
BRANCH   3   5
ATOM      5  C   UNL     1       3.326   6.285  18.117  0.00  0.00    +0.000 A 
ATOM      6  C   UNL     1       2.876   4.965  18.040  0.00  0.00    +0.000 A 
ATOM      7  C   UNL     1       3.552   4.009  17.286  0.00  0.00    +0.000 A 
ATOM      8  C   UNL     1       4.683   4.371  16.564  0.00  0.00    +0.000 A 
ATOM      9  C   UNL     1       5.148   5.689  16.639  0.00  0.00    +0.000 A 
ATOM     10  C   UNL     1       4.480   6.648  17.410  0.00  0.00    +0.000 A 
ATOM     11  N   UNL     1       6.312   6.035  15.939  0.00  0.00    +0.000 N 
ATOM     12  C   UNL     1       6.912   5.224  15.016  0.00  0.00    +0.000 C 
ATOM     13  O   UNL     1       7.969   5.551  14.478  0.00  0.00    +0.000 OA
ATOM     14  C   UNL     1       6.143   3.992  14.599  0.00  0.00    +0.000 C 
ATOM     15  C   UNL     1       5.452   3.346  15.783  0.00  0.00    +0.000 C 
ATOM     16  H   UNL     1       6.770   6.921  16.114  0.00  0.00    +0.000 HD
ENDBRANCH   3   5
BRANCH   1  17
ATOM     17  C   UNL     1       1.220   8.244  20.595  0.00  0.00    +0.000 C 
BRANCH  17  18
ATOM     18  O   UNL     1       1.365   9.291  19.645  0.00  0.00    +0.000 OA
BRANCH  18  27
ATOM     19  C   UNL     1      -0.088  13.755  21.697  0.00  0.00    +0.000 C 
ATOM     20  C   UNL     1      -0.903  12.457  21.708  0.00  0.00    +0.000 C 
ATOM     21  C   UNL     1      -1.387  12.142  23.123  0.00  0.00    +0.000 C 
ATOM     22  C   UNL     1      -2.071  12.506  20.701  0.00  0.00    +0.000 C 
ATOM     23  C   UNL     1      -1.576  11.564  19.669  0.00  0.00    +0.000 A 
ATOM     24  C   UNL     1      -2.147  11.241  18.450  0.00  0.00    +0.000 A 
ATOM     25  C   UNL     1      -1.509  10.290  17.654  0.00  0.00    +0.000 A 
ATOM     26  C   UNL     1      -0.325   9.675  18.092  0.00  0.00    +0.000 A 
ATOM     27  C   UNL     1       0.237   9.992  19.332  0.00  0.00    +0.000 A 
ATOM     28  C   UNL     1      -0.407  10.952  20.099  0.00  0.00    +0.000 A 
ATOM     29  O   UNL     1      -0.005  11.381  21.335  0.00  0.00    +0.000 OA
ENDBRANCH  18  27
ENDBRANCH  17  18
ENDBRANCH   1  17
TORSDOF 4
ENDMDL
MODEL 5
REMARK VINA RESULT:      -8.5      6.105      9.780
REMARK  Name = 
REMARK  6 active torsions:
REMARK  status: ('A' for Active; 'I' for Inactive)
REMARK    1  A    between atoms: C_1  and  C_2
REMARK    2  A    between atoms: C_2  and  C_3
REMARK    3  A    between atoms: C_9  and  O_10
REMARK    4  A    between atoms: O_10  and  C_11
REMARK    5  A    between atoms: C_11  and  C_12
REMARK    6  A    between atoms: N_14  and  C_15
REMARK                            x       y       z     vdW  Elec       q    Type
REMARK                         _______ _______ _______ _____ _____    ______ ____
ROOT
ATOM      1  C   UNL     1       1.558   8.157  20.060  0.00  0.00    +0.000 C 
ATOM      2  O   UNL     1       1.624   7.262  20.902  0.00  0.00    +0.000 OA
ATOM      3  N   UNL     1       2.142   8.137  18.798  0.00  0.00    +0.000 N 
ATOM      4  H   UNL     1       2.170   9.013  18.288  0.00  0.00    +0.000 HD
ENDROOT
BRANCH   3   5
ATOM      5  C   UNL     1       2.811   7.028  18.232  0.00  0.00    +0.000 A 
ATOM      6  C   UNL     1       2.289   5.734  18.294  0.00  0.00    +0.000 A 
ATOM      7  C   UNL     1       2.952   4.654  17.717  0.00  0.00    +0.000 A 
ATOM      8  C   UNL     1       4.147   4.859  17.037  0.00  0.00    +0.000 A 
ATOM      9  C   UNL     1       4.684   6.150  16.975  0.00  0.00    +0.000 A 
ATOM     10  C   UNL     1       4.028   7.235  17.568  0.00  0.00    +0.000 A 
ATOM     11  N   UNL     1       5.909   6.340  16.321  0.00  0.00    +0.000 N 
ATOM     12  C   UNL     1       6.516   5.384  15.554  0.00  0.00    +0.000 C 
ATOM     13  O   UNL     1       7.623   5.583  15.054  0.00  0.00    +0.000 OA
ATOM     14  C   UNL     1       5.703   4.150  15.244  0.00  0.00    +0.000 C 
ATOM     15  C   UNL     1       4.901   3.702  16.450  0.00  0.00    +0.000 C 
ATOM     16  H   UNL     1       6.407   7.217  16.412  0.00  0.00    +0.000 HD
ENDBRANCH   3   5
BRANCH   1  17
ATOM     17  C   UNL     1       0.797   9.431  20.372  0.00  0.00    +0.000 C 
BRANCH  17  18
ATOM     18  O   UNL     1       0.671  10.160  19.159  0.00  0.00    +0.000 OA
BRANCH  18  27
ATOM     19  C   UNL     1      -1.837  14.367  20.662  0.00  0.00    +0.000 C 
ATOM     20  C   UNL     1      -2.309  12.923  20.863  0.00  0.00    +0.000 C 
ATOM     21  C   UNL     1      -2.706  12.690  22.321  0.00  0.00    +0.000 C 
ATOM     22  C   UNL     1      -3.452  12.554  19.893  0.00  0.00    +0.000 C 
ATOM     23  C   UNL     1      -2.738  11.633  18.977  0.00  0.00    +0.000 A 
ATOM     24  C   UNL     1      -3.209  11.023  17.827  0.00  0.00    +0.000 A 
ATOM     25  C   UNL     1      -2.355  10.159  17.141  0.00  0.00    +0.000 A 
ATOM     26  C   UNL     1      -1.058   9.913  17.620  0.00  0.00    +0.000 A 
ATOM     27  C   UNL     1      -0.594  10.518  18.792  0.00  0.00    +0.000 A 
ATOM     28  C   UNL     1      -1.456  11.385  19.448  0.00  0.00    +0.000 A 
ATOM     29  O   UNL     1      -1.175  12.058  20.606  0.00  0.00    +0.000 OA
ENDBRANCH  18  27
ENDBRANCH  17  18
ENDBRANCH   1  17
TORSDOF 4
ENDMDL
MODEL 6
REMARK VINA RESULT:      -8.5      6.236      9.913
REMARK  Name = 
REMARK  6 active torsions:
REMARK  status: ('A' for Active; 'I' for Inactive)
REMARK    1  A    between atoms: C_1  and  C_2
REMARK    2  A    between atoms: C_2  and  C_3
REMARK    3  A    between atoms: C_9  and  O_10
REMARK    4  A    between atoms: O_10  and  C_11
REMARK    5  A    between atoms: C_11  and  C_12
REMARK    6  A    between atoms: N_14  and  C_15
REMARK                            x       y       z     vdW  Elec       q    Type
REMARK                         _______ _______ _______ _____ _____    ______ ____
ROOT
ATOM      1  C   UNL     1       1.947   9.133  18.200  0.00  0.00    +0.000 C 
ATOM      2  O   UNL     1       2.096   9.368  17.002  0.00  0.00    +0.000 OA
ATOM      3  N   UNL     1       2.269   7.944  18.845  0.00  0.00    +0.000 N 
ATOM      4  H   UNL     1       1.916   7.819  19.788  0.00  0.00    +0.000 HD
ENDROOT
BRANCH   3   5
ATOM      5  C   UNL     1       2.933   6.849  18.245  0.00  0.00    +0.000 A 
ATOM      6  C   UNL     1       2.409   5.555  18.277  0.00  0.00    +0.000 A 
ATOM      7  C   UNL     1       3.066   4.490  17.666  0.00  0.00    +0.000 A 
ATOM      8  C   UNL     1       4.255   4.712  16.981  0.00  0.00    +0.000 A 
ATOM      9  C   UNL     1       4.793   6.003  16.949  0.00  0.00    +0.000 A 
ATOM     10  C   UNL     1       4.144   7.072  17.575  0.00  0.00    +0.000 A 
ATOM     11  N   UNL     1       6.012   6.209  16.289  0.00  0.00    +0.000 N 
ATOM     12  C   UNL     1       6.612   5.274  15.492  0.00  0.00    +0.000 C 
ATOM     13  O   UNL     1       7.714   5.485  14.987  0.00  0.00    +0.000 OA
ATOM     14  C   UNL     1       5.795   4.048  15.157  0.00  0.00    +0.000 C 
ATOM     15  C   UNL     1       5.002   3.570  16.357  0.00  0.00    +0.000 C 
ATOM     16  H   UNL     1       6.513   7.083  16.399  0.00  0.00    +0.000 HD
ENDBRANCH   3   5
BRANCH   1  17
ATOM     17  C   UNL     1       1.348  10.189  19.107  0.00  0.00    +0.000 C 
BRANCH  17  18
ATOM     18  O   UNL     1       0.049   9.747  19.476  0.00  0.00    +0.000 OA
BRANCH  18  27
ATOM     19  C   UNL     1      -3.760  13.034  20.445  0.00  0.00    +0.000 C 
ATOM     20  C   UNL     1      -2.313  13.172  20.929  0.00  0.00    +0.000 C 
ATOM     21  C   UNL     1      -1.771  14.565  20.605  0.00  0.00    +0.000 C 
ATOM     22  C   UNL     1      -2.178  12.841  22.431  0.00  0.00    +0.000 C 
ATOM     23  C   UNL     1      -1.470  11.541  22.356  0.00  0.00    +0.000 A 
ATOM     24  C   UNL     1      -1.131  10.682  23.388  0.00  0.00    +0.000 A 
ATOM     25  C   UNL     1      -0.427   9.519  23.074  0.00  0.00    +0.000 A 
ATOM     26  C   UNL     1      -0.067   9.242  21.745  0.00  0.00    +0.000 A 
ATOM     27  C   UNL     1      -0.397  10.123  20.710  0.00  0.00    +0.000 A 
ATOM     28  C   UNL     1      -1.110  11.265  21.045  0.00  0.00    +0.000 A 
ATOM     29  O   UNL     1      -1.510  12.236  20.167  0.00  0.00    +0.000 OA
ENDBRANCH  18  27
ENDBRANCH  17  18
ENDBRANCH   1  17
TORSDOF 4
ENDMDL
MODEL 7
REMARK VINA RESULT:      -8.4      6.485      9.489
REMARK  Name = 
REMARK  6 active torsions:
REMARK  status: ('A' for Active; 'I' for Inactive)
REMARK    1  A    between atoms: C_1  and  C_2
REMARK    2  A    between atoms: C_2  and  C_3
REMARK    3  A    between atoms: C_9  and  O_10
REMARK    4  A    between atoms: O_10  and  C_11
REMARK    5  A    between atoms: C_11  and  C_12
REMARK    6  A    between atoms: N_14  and  C_15
REMARK                            x       y       z     vdW  Elec       q    Type
REMARK                         _______ _______ _______ _____ _____    ______ ____
ROOT
ATOM      1  C   UNL     1       1.436   9.060  18.486  0.00  0.00    +0.000 C 
ATOM      2  O   UNL     1       1.335   8.762  19.676  0.00  0.00    +0.000 OA
ATOM      3  N   UNL     1       0.550   9.852  17.764  0.00  0.00    +0.000 N 
ATOM      4  H   UNL     1       0.650   9.854  16.755  0.00  0.00    +0.000 HD
ENDROOT
BRANCH   3   5
ATOM      5  C   UNL     1      -0.555  10.541  18.314  0.00  0.00    +0.000 A 
ATOM      6  C   UNL     1      -0.400  11.563  19.254  0.00  0.00    +0.000 A 
ATOM      7  C   UNL     1      -1.497  12.244  19.775  0.00  0.00    +0.000 A 
ATOM      8  C   UNL     1      -2.778  11.931  19.335  0.00  0.00    +0.000 A 
ATOM      9  C   UNL     1      -2.946  10.904  18.399  0.00  0.00    +0.000 A 
ATOM     10  C   UNL     1      -1.847  10.207  17.887  0.00  0.00    +0.000 A 
ATOM     11  N   UNL     1      -4.245  10.570  17.992  0.00  0.00    +0.000 N 
ATOM     12  C   UNL     1      -5.350  11.318  18.288  0.00  0.00    +0.000 C 
ATOM     13  O   UNL     1      -6.475  10.944  17.959  0.00  0.00    +0.000 OA
ATOM     14  C   UNL     1      -5.102  12.675  18.905  0.00  0.00    +0.000 C 
ATOM     15  C   UNL     1      -3.976  12.621  19.919  0.00  0.00    +0.000 C 
ATOM     16  H   UNL     1      -4.413   9.724  17.460  0.00  0.00    +0.000 HD
ENDBRANCH   3   5
BRANCH   1  17
ATOM     17  C   UNL     1       2.604   8.535  17.675  0.00  0.00    +0.000 C 
BRANCH  17  18
ATOM     18  O   UNL     1       3.250   7.538  18.454  0.00  0.00    +0.000 OA
BRANCH  18  27
ATOM     19  C   UNL     1       1.229   2.830  18.463  0.00  0.00    +0.000 C 
ATOM     20  C   UNL     1       2.655   3.193  18.889  0.00  0.00    +0.000 C 
ATOM     21  C   UNL     1       2.972   2.592  20.259  0.00  0.00    +0.000 C 
ATOM     22  C   UNL     1       3.694   2.776  17.827  0.00  0.00    +0.000 C 
ATOM     23  C   UNL     1       4.082   4.104  17.296  0.00  0.00    +0.000 A 
ATOM     24  C   UNL     1       4.933   4.398  16.244  0.00  0.00    +0.000 A 
ATOM     25  C   UNL     1       5.175   5.739  15.947  0.00  0.00    +0.000 A 
ATOM     26  C   UNL     1       4.576   6.756  16.707  0.00  0.00    +0.000 A 
ATOM     27  C   UNL     1       3.732   6.453  17.780  0.00  0.00    +0.000 A 
ATOM     28  C   UNL     1       3.494   5.112  18.047  0.00  0.00    +0.000 A 
ATOM     29  O   UNL     1       2.703   4.632  19.056  0.00  0.00    +0.000 OA
ENDBRANCH  18  27
ENDBRANCH  17  18
ENDBRANCH   1  17
TORSDOF 4
ENDMDL
MODEL 8
REMARK VINA RESULT:      -8.4      2.380      9.774
REMARK  Name = 
REMARK  6 active torsions:
REMARK  status: ('A' for Active; 'I' for Inactive)
REMARK    1  A    between atoms: C_1  and  C_2
REMARK    2  A    between atoms: C_2  and  C_3
REMARK    3  A    between atoms: C_9  and  O_10
REMARK    4  A    between atoms: O_10  and  C_11
REMARK    5  A    between atoms: C_11  and  C_12
REMARK    6  A    between atoms: N_14  and  C_15
REMARK                            x       y       z     vdW  Elec       q    Type
REMARK                         _______ _______ _______ _____ _____    ______ ____
ROOT
ATOM      1  C   UNL     1       8.086   8.171  18.146  0.00  0.00    +0.000 C 
ATOM      2  O   UNL     1       8.536   7.293  18.880  0.00  0.00    +0.000 OA
ATOM      3  N   UNL     1       7.093   8.004  17.186  0.00  0.00    +0.000 N 
ATOM      4  H   UNL     1       6.959   8.760  16.524  0.00  0.00    +0.000 HD
ENDROOT
BRANCH   3   5
ATOM      5  C   UNL     1       6.356   6.815  16.980  0.00  0.00    +0.000 A 
ATOM      6  C   UNL     1       6.881   5.727  16.278  0.00  0.00    +0.000 A 
ATOM      7  C   UNL     1       6.148   4.557  16.098  0.00  0.00    +0.000 A 
ATOM      8  C   UNL     1       4.877   4.444  16.651  0.00  0.00    +0.000 A 
ATOM      9  C   UNL     1       4.339   5.531  17.350  0.00  0.00    +0.000 A 
ATOM     10  C   UNL     1       5.066   6.714  17.518  0.00  0.00    +0.000 A 
ATOM     11  N   UNL     1       3.041   5.421  17.869  0.00  0.00    +0.000 N 
ATOM     12  C   UNL     1       2.341   4.248  17.922  0.00  0.00    +0.000 C 
ATOM     13  O   UNL     1       1.180   4.222  18.330  0.00  0.00    +0.000 OA
ATOM     14  C   UNL     1       3.107   2.989  17.591  0.00  0.00    +0.000 C 
ATOM     15  C   UNL     1       4.054   3.210  16.428  0.00  0.00    +0.000 C 
ATOM     16  H   UNL     1       2.560   6.241  18.220  0.00  0.00    +0.000 HD
ENDBRANCH   3   5
BRANCH   1  17
ATOM     17  C   UNL     1       8.632   9.582  18.235  0.00  0.00    +0.000 C 
BRANCH  17  18
ATOM     18  O   UNL     1       9.141   9.760  19.550  0.00  0.00    +0.000 OA
BRANCH  18  27
ATOM     19  C   UNL     1       8.697  12.291  23.982  0.00  0.00    +0.000 C 
ATOM     20  C   UNL     1       8.263  12.810  22.607  0.00  0.00    +0.000 C 
ATOM     21  C   UNL     1       6.827  13.331  22.662  0.00  0.00    +0.000 C 
ATOM     22  C   UNL     1       9.238  13.875  22.063  0.00  0.00    +0.000 C 
ATOM     23  C   UNL     1       9.895  13.108  20.978  0.00  0.00    +0.000 A 
ATOM     24  C   UNL     1      10.943  13.495  20.159  0.00  0.00    +0.000 A 
ATOM     25  C   UNL     1      11.373  12.606  19.174  0.00  0.00    +0.000 A 
ATOM     26  C   UNL     1      10.747  11.359  19.018  0.00  0.00    +0.000 A 
ATOM     27  C   UNL     1       9.678  10.981  19.837  0.00  0.00    +0.000 A 
ATOM     28  C   UNL     1       9.277  11.876  20.819  0.00  0.00    +0.000 A 
ATOM     29  O   UNL     1       8.251  11.677  21.702  0.00  0.00    +0.000 OA
ENDBRANCH  18  27
ENDBRANCH  17  18
ENDBRANCH   1  17
TORSDOF 4
ENDMDL
MODEL 9
REMARK VINA RESULT:      -8.4      1.562      2.273
REMARK  Name = 
REMARK  6 active torsions:
REMARK  status: ('A' for Active; 'I' for Inactive)
REMARK    1  A    between atoms: C_1  and  C_2
REMARK    2  A    between atoms: C_2  and  C_3
REMARK    3  A    between atoms: C_9  and  O_10
REMARK    4  A    between atoms: O_10  and  C_11
REMARK    5  A    between atoms: C_11  and  C_12
REMARK    6  A    between atoms: N_14  and  C_15
REMARK                            x       y       z     vdW  Elec       q    Type
REMARK                         _______ _______ _______ _____ _____    ______ ____
ROOT
ATOM      1  C   UNL     1       7.825   7.856  17.946  0.00  0.00    +0.000 C 
ATOM      2  O   UNL     1       8.508   7.338  18.829  0.00  0.00    +0.000 OA
ATOM      3  N   UNL     1       7.759   9.215  17.656  0.00  0.00    +0.000 N 
ATOM      4  H   UNL     1       7.014   9.519  17.039  0.00  0.00    +0.000 HD
ENDROOT
BRANCH   3   5
ATOM      5  C   UNL     1       8.561  10.212  18.257  0.00  0.00    +0.000 A 
ATOM      6  C   UNL     1       9.245   9.993  19.455  0.00  0.00    +0.000 A 
ATOM      7  C   UNL     1      10.045  10.980  20.026  0.00  0.00    +0.000 A 
ATOM      8  C   UNL     1      10.199  12.203  19.383  0.00  0.00    +0.000 A 
ATOM      9  C   UNL     1       9.512  12.436  18.186  0.00  0.00    +0.000 A 
ATOM     10  C   UNL     1       8.695  11.453  17.619  0.00  0.00    +0.000 A 
ATOM     11  N   UNL     1       9.643  13.687  17.567  0.00  0.00    +0.000 N 
ATOM     12  C   UNL     1      10.562  14.627  17.942  0.00  0.00    +0.000 C 
ATOM     13  O   UNL     1      10.591  15.734  17.404  0.00  0.00    +0.000 OA
ATOM     14  C   UNL     1      11.612  14.187  18.934  0.00  0.00    +0.000 C 
ATOM     15  C   UNL     1      11.018  13.295  20.006  0.00  0.00    +0.000 C 
ATOM     16  H   UNL     1       9.028  13.948  16.806  0.00  0.00    +0.000 HD
ENDBRANCH   3   5
BRANCH   1  17
ATOM     17  C   UNL     1       6.940   6.990  17.071  0.00  0.00    +0.000 C 
BRANCH  17  18
ATOM     18  O   UNL     1       6.377   5.982  17.900  0.00  0.00    +0.000 OA
BRANCH  18  27
ATOM     19  C   UNL     1       3.582   2.571  20.507  0.00  0.00    +0.000 C 
ATOM     20  C   UNL     1       3.461   2.870  19.009  0.00  0.00    +0.000 C 
ATOM     21  C   UNL     1       3.503   1.572  18.201  0.00  0.00    +0.000 C 
ATOM     22  C   UNL     1       2.201   3.702  18.690  0.00  0.00    +0.000 C 
ATOM     23  C   UNL     1       2.819   5.008  18.361  0.00  0.00    +0.000 A 
ATOM     24  C   UNL     1       2.195   6.209  18.068  0.00  0.00    +0.000 A 
ATOM     25  C   UNL     1       2.994   7.308  17.751  0.00  0.00    +0.000 A 
ATOM     26  C   UNL     1       4.392   7.186  17.722  0.00  0.00    +0.000 A 
ATOM     27  C   UNL     1       5.016   5.966  18.002  0.00  0.00    +0.000 A 
ATOM     28  C   UNL     1       4.201   4.891  18.328  0.00  0.00    +0.000 A 
ATOM     29  O   UNL     1       4.636   3.627  18.624  0.00  0.00    +0.000 OA
ENDBRANCH  18  27
ENDBRANCH  17  18
ENDBRANCH   1  17
TORSDOF 4
ENDMDL
