MODEL 1
REMARK VINA RESULT:      -8.0      0.000      0.000
REMARK  Name = 
REMARK  8 active torsions:
REMARK  status: ('A' for Active; 'I' for Inactive)
REMARK    1  A    between atoms: C_1  and  N_2
REMARK    2  A    between atoms: C_6  and  C_7
REMARK    3  A    between atoms: C_7  and  C_8
REMARK    4  A    between atoms: C_8  and  C_9
REMARK    5  A    between atoms: C_13  and  N_14
REMARK    6  A    between atoms: N_14  and  C_15
REMARK    7  A    between atoms: C_15  and  C_16
REMARK    8  A    between atoms: C_17  and  C_18
REMARK                            x       y       z     vdW  Elec       q    Type
REMARK                         _______ _______ _______ _____ _____    ______ ____
ROOT
ATOM      1  C   UNL     1       5.289   6.235  18.267  0.00  0.00    +0.000 A 
ATOM      2  C   UNL     1       4.577   6.819  17.203  0.00  0.00    +0.000 A 
ATOM      3  C   UNL     1       3.210   7.090  17.302  0.00  0.00    +0.000 A 
ATOM      4  C   UNL     1       2.512   6.749  18.460  0.00  0.00    +0.000 A 
ATOM      5  C   UNL     1       3.163   6.110  19.512  0.00  0.00    +0.000 A 
ATOM      6  C   UNL     1       4.545   5.930  19.419  0.00  0.00    +0.000 A 
ENDROOT
BRANCH   1   7
ATOM      7  C   UNL     1       6.853   5.912  18.218  0.00  0.00    +0.000 C 
ATOM      8  C   UNL     1       7.815   7.083  17.854  0.00  0.00    +0.000 C 
ATOM      9  O   UNL     1       8.521   6.972  19.108  0.00  0.00    +0.000 OA
ATOM     10  C   UNL     1       7.605   5.965  19.577  0.00  0.00    +0.000 C 
BRANCH   7  11
ATOM     11  C   UNL     1       7.105   4.601  17.451  0.00  0.00    +0.000 C 
BRANCH  11  17
ATOM     12  C   UNL     1       4.561   3.423  15.918  0.00  0.00    +0.000 C 
ATOM     13  N   UNL     1       5.701   4.095  15.356  0.00  0.00    +0.000 N 
ATOM     14  C   UNL     1       5.904   4.288  14.020  0.00  0.00    +0.000 A 
ATOM     15  N   UNL     1       7.018   4.952  13.836  0.00  0.00    +0.000 NA
ATOM     16  N   UNL     1       7.570   5.185  15.070  0.00  0.00    +0.000 NA
ATOM     17  C   UNL     1       6.791   4.649  15.988  0.00  0.00    +0.000 A 
ENDBRANCH  11  17
ENDBRANCH   7  11
ENDBRANCH   1   7
BRANCH   5  18
ATOM     18  N   UNL     1       2.430   5.743  20.652  0.00  0.00    +0.000 N 
ATOM     19  H   UNL     1       2.582   6.438  21.386  0.00  0.00    +0.000 HD
BRANCH  18  20
ATOM     20  C   UNL     1       2.706   4.402  21.151  0.00  0.00    +0.000 C 
BRANCH  20  21
ATOM     21  C   UNL     1       2.123   3.439  20.191  0.00  0.00    +0.000 C 
ATOM     22  C   UNL     1       2.758   2.450  19.532  0.00  0.00    +0.000 C 
ATOM     23  C   UNL     1       1.797   1.796  18.667  0.00  0.00    +0.000 C 
ATOM     24  C   UNL     1       0.598   2.389  18.788  0.00  0.00    +0.000 C 
ATOM     25  C   UNL     1       0.681   3.508  19.784  0.00  0.00    +0.000 C 
BRANCH  22  26
ATOM     26  C   UNL     1       4.188   2.057  19.656  0.00  0.00    +0.000 C 
ATOM     27  F   UNL     1       5.045   2.989  19.165  0.00  0.00    +0.000 F 
ATOM     28  F   UNL     1       4.539   1.840  20.949  0.00  0.00    +0.000 F 
ATOM     29  F   UNL     1       4.447   0.898  18.988  0.00  0.00    +0.000 F 
ENDBRANCH  22  26
ENDBRANCH  20  21
ENDBRANCH  18  20
ENDBRANCH   5  18
TORSDOF 7
ENDMDL
MODEL 2
REMARK VINA RESULT:      -7.9      2.146      3.394
REMARK  Name = 
REMARK  8 active torsions:
REMARK  status: ('A' for Active; 'I' for Inactive)
REMARK    1  A    between atoms: C_1  and  N_2
REMARK    2  A    between atoms: C_6  and  C_7
REMARK    3  A    between atoms: C_7  and  C_8
REMARK    4  A    between atoms: C_8  and  C_9
REMARK    5  A    between atoms: C_13  and  N_14
REMARK    6  A    between atoms: N_14  and  C_15
REMARK    7  A    between atoms: C_15  and  C_16
REMARK    8  A    between atoms: C_17  and  C_18
REMARK                            x       y       z     vdW  Elec       q    Type
REMARK                         _______ _______ _______ _____ _____    ______ ____
ROOT
ATOM      1  C   UNL     1       4.611   5.678  16.638  0.00  0.00    +0.000 A 
ATOM      2  C   UNL     1       4.516   7.012  17.074  0.00  0.00    +0.000 A 
ATOM      3  C   UNL     1       3.420   7.462  17.814  0.00  0.00    +0.000 A 
ATOM      4  C   UNL     1       2.371   6.592  18.107  0.00  0.00    +0.000 A 
ATOM      5  C   UNL     1       2.392   5.280  17.639  0.00  0.00    +0.000 A 
ATOM      6  C   UNL     1       3.539   4.836  16.976  0.00  0.00    +0.000 A 
ENDROOT
BRANCH   1   7
ATOM      7  C   UNL     1       5.843   5.102  15.798  0.00  0.00    +0.000 C 
ATOM      8  C   UNL     1       5.996   3.552  15.723  0.00  0.00    +0.000 C 
ATOM      9  O   UNL     1       5.891   3.552  14.284  0.00  0.00    +0.000 OA
ATOM     10  C   UNL     1       5.623   4.967  14.266  0.00  0.00    +0.000 C 
BRANCH   7  11
ATOM     11  C   UNL     1       7.133   5.866  16.148  0.00  0.00    +0.000 C 
BRANCH  11  17
ATOM     12  C   UNL     1       8.052   8.319  17.978  0.00  0.00    +0.000 C 
ATOM     13  N   UNL     1       7.932   6.935  18.348  0.00  0.00    +0.000 N 
ATOM     14  C   UNL     1       8.261   6.430  19.572  0.00  0.00    +0.000 A 
ATOM     15  N   UNL     1       8.013   5.144  19.598  0.00  0.00    +0.000 NA
ATOM     16  N   UNL     1       7.529   4.789  18.364  0.00  0.00    +0.000 NA
ATOM     17  C   UNL     1       7.501   5.863  17.600  0.00  0.00    +0.000 A 
ENDBRANCH  11  17
ENDBRANCH   7  11
ENDBRANCH   1   7
BRANCH   5  18
ATOM     18  N   UNL     1       1.306   4.435  17.916  0.00  0.00    +0.000 N 
ATOM     19  H   UNL     1       0.774   4.818  18.700  0.00  0.00    +0.000 HD
BRANCH  18  20
ATOM     20  C   UNL     1       1.662   3.044  18.168  0.00  0.00    +0.000 C 
BRANCH  20  21
ATOM     21  C   UNL     1       1.861   2.890  19.626  0.00  0.00    +0.000 C 
ATOM     22  C   UNL     1       2.961   2.445  20.261  0.00  0.00    +0.000 C 
ATOM     23  C   UNL     1       2.681   2.420  21.683  0.00  0.00    +0.000 C 
ATOM     24  C   UNL     1       1.423   2.832  21.906  0.00  0.00    +0.000 C 
ATOM     25  C   UNL     1       0.762   3.180  20.604  0.00  0.00    +0.000 C 
BRANCH  22  26
ATOM     26  C   UNL     1       4.261   2.053  19.650  0.00  0.00    +0.000 C 
ATOM     27  F   UNL     1       4.941   3.102  19.120  0.00  0.00    +0.000 F 
ATOM     28  F   UNL     1       5.084   1.466  20.555  0.00  0.00    +0.000 F 
ATOM     29  F   UNL     1       4.088   1.152  18.644  0.00  0.00    +0.000 F 
ENDBRANCH  22  26
ENDBRANCH  20  21
ENDBRANCH  18  20
ENDBRANCH   5  18
TORSDOF 7
ENDMDL
MODEL 3
REMARK VINA RESULT:      -7.9      1.410      1.916
REMARK  Name = 
REMARK  8 active torsions:
REMARK  status: ('A' for Active; 'I' for Inactive)
REMARK    1  A    between atoms: C_1  and  N_2
REMARK    2  A    between atoms: C_6  and  C_7
REMARK    3  A    between atoms: C_7  and  C_8
REMARK    4  A    between atoms: C_8  and  C_9
REMARK    5  A    between atoms: C_13  and  N_14
REMARK    6  A    between atoms: N_14  and  C_15
REMARK    7  A    between atoms: C_15  and  C_16
REMARK    8  A    between atoms: C_17  and  C_18
REMARK                            x       y       z     vdW  Elec       q    Type
REMARK                         _______ _______ _______ _____ _____    ______ ____
ROOT
ATOM      1  C   UNL     1       4.822   5.600  17.480  0.00  0.00    +0.000 A 
ATOM      2  C   UNL     1       4.215   6.785  17.933  0.00  0.00    +0.000 A 
ATOM      3  C   UNL     1       2.848   6.844  18.216  0.00  0.00    +0.000 A 
ATOM      4  C   UNL     1       2.046   5.721  18.019  0.00  0.00    +0.000 A 
ATOM      5  C   UNL     1       2.592   4.546  17.509  0.00  0.00    +0.000 A 
ATOM      6  C   UNL     1       3.975   4.491  17.317  0.00  0.00    +0.000 A 
ENDROOT
BRANCH   1   7
ATOM      7  C   UNL     1       6.381   5.469  17.151  0.00  0.00    +0.000 C 
ATOM      8  C   UNL     1       7.168   6.787  16.878  0.00  0.00    +0.000 C 
ATOM      9  O   UNL     1       8.072   6.544  17.976  0.00  0.00    +0.000 OA
ATOM     10  C   UNL     1       7.333   5.374  18.375  0.00  0.00    +0.000 C 
BRANCH   7  11
ATOM     11  C   UNL     1       6.618   4.345  16.125  0.00  0.00    +0.000 C 
BRANCH  11  17
ATOM     12  C   UNL     1       5.456   3.586  13.247  0.00  0.00    +0.000 C 
ATOM     13  N   UNL     1       6.585   4.422  13.554  0.00  0.00    +0.000 N 
ATOM     14  C   UNL     1       7.400   4.994  12.621  0.00  0.00    +0.000 A 
ATOM     15  N   UNL     1       8.316   5.714  13.220  0.00  0.00    +0.000 NA
ATOM     16  N   UNL     1       8.115   5.599  14.572  0.00  0.00    +0.000 NA
ATOM     17  C   UNL     1       7.087   4.802  14.778  0.00  0.00    +0.000 A 
ENDBRANCH  11  17
ENDBRANCH   7  11
ENDBRANCH   1   7
BRANCH   5  18
ATOM     18  N   UNL     1       1.756   3.440  17.284  0.00  0.00    +0.000 N 
ATOM     19  H   UNL     1       0.792   3.700  17.500  0.00  0.00    +0.000 HD
BRANCH  18  20
ATOM     20  C   UNL     1       2.135   2.230  18.002  0.00  0.00    +0.000 C 
BRANCH  20  21
ATOM     21  C   UNL     1       2.050   2.523  19.450  0.00  0.00    +0.000 C 
ATOM     22  C   UNL     1       3.032   2.428  20.365  0.00  0.00    +0.000 C 
ATOM     23  C   UNL     1       2.476   2.770  21.660  0.00  0.00    +0.000 C 
ATOM     24  C   UNL     1       1.170   3.054  21.533  0.00  0.00    +0.000 C 
ATOM     25  C   UNL     1       0.758   2.928  20.095  0.00  0.00    +0.000 C 
BRANCH  22  26
ATOM     26  C   UNL     1       4.454   2.058  20.129  0.00  0.00    +0.000 C 
ATOM     27  F   UNL     1       5.206   3.088  19.662  0.00  0.00    +0.000 F 
ATOM     28  F   UNL     1       5.053   1.615  21.263  0.00  0.00    +0.000 F 
ATOM     29  F   UNL     1       4.564   1.051  19.218  0.00  0.00    +0.000 F 
ENDBRANCH  22  26
ENDBRANCH  20  21
ENDBRANCH  18  20
ENDBRANCH   5  18
TORSDOF 7
ENDMDL
MODEL 4
REMARK VINA RESULT:      -7.8      4.935      7.268
REMARK  Name = 
REMARK  8 active torsions:
REMARK  status: ('A' for Active; 'I' for Inactive)
REMARK    1  A    between atoms: C_1  and  N_2
REMARK    2  A    between atoms: C_6  and  C_7
REMARK    3  A    between atoms: C_7  and  C_8
REMARK    4  A    between atoms: C_8  and  C_9
REMARK    5  A    between atoms: C_13  and  N_14
REMARK    6  A    between atoms: N_14  and  C_15
REMARK    7  A    between atoms: C_15  and  C_16
REMARK    8  A    between atoms: C_17  and  C_18
REMARK                            x       y       z     vdW  Elec       q    Type
REMARK                         _______ _______ _______ _____ _____    ______ ____
ROOT
ATOM      1  C   UNL     1       1.002  10.009  19.366  0.00  0.00    +0.000 A 
ATOM      2  C   UNL     1       1.580   9.953  18.085  0.00  0.00    +0.000 A 
ATOM      3  C   UNL     1       2.274   8.823  17.646  0.00  0.00    +0.000 A 
ATOM      4  C   UNL     1       2.435   7.729  18.495  0.00  0.00    +0.000 A 
ATOM      5  C   UNL     1       1.936   7.767  19.795  0.00  0.00    +0.000 A 
ATOM      6  C   UNL     1       1.174   8.874  20.176  0.00  0.00    +0.000 A 
ENDROOT
BRANCH   1   7
ATOM      7  C   UNL     1       0.189  11.269  19.921  0.00  0.00    +0.000 C 
ATOM      8  C   UNL     1      -0.658  11.061  21.213  0.00  0.00    +0.000 C 
ATOM      9  O   UNL     1       0.076  12.076  21.929  0.00  0.00    +0.000 OA
ATOM     10  C   UNL     1       0.983  12.251  20.825  0.00  0.00    +0.000 C 
BRANCH   7  11
ATOM     11  C   UNL     1      -0.544  11.982  18.770  0.00  0.00    +0.000 C 
BRANCH  11  17
ATOM     12  C   UNL     1      -3.605  12.459  19.553  0.00  0.00    +0.000 C 
ATOM     13  N   UNL     1      -3.065  11.481  18.648  0.00  0.00    +0.000 N 
ATOM     14  C   UNL     1      -3.804  10.532  18.004  0.00  0.00    +0.000 A 
ATOM     15  N   UNL     1      -3.024   9.815  17.234  0.00  0.00    +0.000 NA
ATOM     16  N   UNL     1      -1.744  10.286  17.387  0.00  0.00    +0.000 NA
ATOM     17  C   UNL     1      -1.762  11.275  18.257  0.00  0.00    +0.000 A 
ENDBRANCH  11  17
ENDBRANCH   7  11
ENDBRANCH   1   7
BRANCH   5  18
ATOM     18  N   UNL     1       2.144   6.667  20.643  0.00  0.00    +0.000 N 
ATOM     19  H   UNL     1       2.425   7.005  21.566  0.00  0.00    +0.000 HD
BRANCH  18  20
ATOM     20  C   UNL     1       3.096   5.683  20.146  0.00  0.00    +0.000 C 
BRANCH  20  21
ATOM     21  C   UNL     1       2.446   4.356  20.215  0.00  0.00    +0.000 C 
ATOM     22  C   UNL     1       2.011   3.601  19.189  0.00  0.00    +0.000 C 
ATOM     23  C   UNL     1       1.401   2.405  19.737  0.00  0.00    +0.000 C 
ATOM     24  C   UNL     1       1.453   2.442  21.078  0.00  0.00    +0.000 C 
ATOM     25  C   UNL     1       2.133   3.701  21.528  0.00  0.00    +0.000 C 
BRANCH  22  26
ATOM     26  C   UNL     1       2.131   3.897  17.736  0.00  0.00    +0.000 C 
ATOM     27  F   UNL     1       1.119   4.668  17.260  0.00  0.00    +0.000 F 
ATOM     28  F   UNL     1       3.288   4.545  17.449  0.00  0.00    +0.000 F 
ATOM     29  F   UNL     1       2.134   2.756  16.992  0.00  0.00    +0.000 F 
ENDBRANCH  22  26
ENDBRANCH  20  21
ENDBRANCH  18  20
ENDBRANCH   5  18
TORSDOF 7
ENDMDL
MODEL 5
REMARK VINA RESULT:      -7.8      2.071      3.271
REMARK  Name = 
REMARK  8 active torsions:
REMARK  status: ('A' for Active; 'I' for Inactive)
REMARK    1  A    between atoms: C_1  and  N_2
REMARK    2  A    between atoms: C_6  and  C_7
REMARK    3  A    between atoms: C_7  and  C_8
REMARK    4  A    between atoms: C_8  and  C_9
REMARK    5  A    between atoms: C_13  and  N_14
REMARK    6  A    between atoms: N_14  and  C_15
REMARK    7  A    between atoms: C_15  and  C_16
REMARK    8  A    between atoms: C_17  and  C_18
REMARK                            x       y       z     vdW  Elec       q    Type
REMARK                         _______ _______ _______ _____ _____    ______ ____
ROOT
ATOM      1  C   UNL     1       4.630   5.164  16.782  0.00  0.00    +0.000 A 
ATOM      2  C   UNL     1       4.519   6.471  17.288  0.00  0.00    +0.000 A 
ATOM      3  C   UNL     1       3.377   6.895  17.973  0.00  0.00    +0.000 A 
ATOM      4  C   UNL     1       2.300   6.026  18.137  0.00  0.00    +0.000 A 
ATOM      5  C   UNL     1       2.339   4.744  17.595  0.00  0.00    +0.000 A 
ATOM      6  C   UNL     1       3.526   4.320  16.992  0.00  0.00    +0.000 A 
ENDROOT
BRANCH   1   7
ATOM      7  C   UNL     1       5.913   4.618  16.000  0.00  0.00    +0.000 C 
ATOM      8  C   UNL     1       5.737   3.321  15.153  0.00  0.00    +0.000 C 
ATOM      9  O   UNL     1       6.123   3.994  13.935  0.00  0.00    +0.000 OA
ATOM     10  C   UNL     1       6.195   5.261  14.615  0.00  0.00    +0.000 C 
BRANCH   7  11
ATOM     11  C   UNL     1       7.146   4.630  16.922  0.00  0.00    +0.000 C 
BRANCH  11  17
ATOM     12  C   UNL     1       7.960   5.602  19.856  0.00  0.00    +0.000 C 
ATOM     13  N   UNL     1       7.901   6.381  18.649  0.00  0.00    +0.000 N 
ATOM     14  C   UNL     1       8.138   7.723  18.584  0.00  0.00    +0.000 A 
ATOM     15  N   UNL     1       8.031   8.129  17.342  0.00  0.00    +0.000 NA
ATOM     16  N   UNL     1       7.698   7.039  16.578  0.00  0.00    +0.000 NA
ATOM     17  C   UNL     1       7.596   5.988  17.366  0.00  0.00    +0.000 A 
ENDBRANCH  11  17
ENDBRANCH   7  11
ENDBRANCH   1   7
BRANCH   5  18
ATOM     18  N   UNL     1       1.226   3.901  17.742  0.00  0.00    +0.000 N 
ATOM     19  H   UNL     1       0.539   4.355  18.347  0.00  0.00    +0.000 HD
BRANCH  18  20
ATOM     20  C   UNL     1       1.533   2.562  18.229  0.00  0.00    +0.000 C 
BRANCH  20  21
ATOM     21  C   UNL     1       1.818   2.666  19.677  0.00  0.00    +0.000 C 
ATOM     22  C   UNL     1       2.991   2.447  20.300  0.00  0.00    +0.000 C 
ATOM     23  C   UNL     1       2.783   2.622  21.724  0.00  0.00    +0.000 C 
ATOM     24  C   UNL     1       1.498   2.928  21.962  0.00  0.00    +0.000 C 
ATOM     25  C   UNL     1       0.741   2.990  20.669  0.00  0.00    +0.000 C 
BRANCH  22  26
ATOM     26  C   UNL     1       4.296   2.103  19.673  0.00  0.00    +0.000 C 
ATOM     27  F   UNL     1       5.048   3.193  19.368  0.00  0.00    +0.000 F 
ATOM     28  F   UNL     1       5.050   1.318  20.483  0.00  0.00    +0.000 F 
ATOM     29  F   UNL     1       4.126   1.410  18.514  0.00  0.00    +0.000 F 
ENDBRANCH  22  26
ENDBRANCH  20  21
ENDBRANCH  18  20
ENDBRANCH   5  18
TORSDOF 7
ENDMDL
MODEL 6
REMARK VINA RESULT:      -7.7      1.647      2.545
REMARK  Name = 
REMARK  8 active torsions:
REMARK  status: ('A' for Active; 'I' for Inactive)
REMARK    1  A    between atoms: C_1  and  N_2
REMARK    2  A    between atoms: C_6  and  C_7
REMARK    3  A    between atoms: C_7  and  C_8
REMARK    4  A    between atoms: C_8  and  C_9
REMARK    5  A    between atoms: C_13  and  N_14
REMARK    6  A    between atoms: N_14  and  C_15
REMARK    7  A    between atoms: C_15  and  C_16
REMARK    8  A    between atoms: C_17  and  C_18
REMARK                            x       y       z     vdW  Elec       q    Type
REMARK                         _______ _______ _______ _____ _____    ______ ____
ROOT
ATOM      1  C   UNL     1       4.598   5.731  17.104  0.00  0.00    +0.000 A 
ATOM      2  C   UNL     1       4.186   6.929  17.716  0.00  0.00    +0.000 A 
ATOM      3  C   UNL     1       2.925   7.052  18.305  0.00  0.00    +0.000 A 
ATOM      4  C   UNL     1       2.029   5.985  18.265  0.00  0.00    +0.000 A 
ATOM      5  C   UNL     1       2.369   4.804  17.612  0.00  0.00    +0.000 A 
ATOM      6  C   UNL     1       3.666   4.679  17.108  0.00  0.00    +0.000 A 
ENDROOT
BRANCH   1   7
ATOM      7  C   UNL     1       6.029   5.526  16.424  0.00  0.00    +0.000 C 
ATOM      8  C   UNL     1       7.280   5.982  17.236  0.00  0.00    +0.000 C 
ATOM      9  O   UNL     1       7.841   4.652  17.233  0.00  0.00    +0.000 OA
ATOM     10  C   UNL     1       6.669   4.119  16.588  0.00  0.00    +0.000 C 
BRANCH   7  11
ATOM     11  C   UNL     1       5.998   5.996  14.959  0.00  0.00    +0.000 C 
BRANCH  11  17
ATOM     12  C   UNL     1       8.414   5.650  12.896  0.00  0.00    +0.000 C 
ATOM     13  N   UNL     1       7.246   4.824  13.038  0.00  0.00    +0.000 N 
ATOM     14  C   UNL     1       6.953   3.755  12.242  0.00  0.00    +0.000 A 
ATOM     15  N   UNL     1       5.837   3.199  12.646  0.00  0.00    +0.000 NA
ATOM     16  N   UNL     1       5.376   3.924  13.715  0.00  0.00    +0.000 NA
ATOM     17  C   UNL     1       6.210   4.919  13.940  0.00  0.00    +0.000 A 
ENDBRANCH  11  17
ENDBRANCH   7  11
ENDBRANCH   1   7
BRANCH   5  18
ATOM     18  N   UNL     1       1.434   3.758  17.553  0.00  0.00    +0.000 N 
ATOM     19  H   UNL     1       0.568   4.055  18.008  0.00  0.00    +0.000 HD
BRANCH  18  20
ATOM     20  C   UNL     1       1.896   2.492  18.108  0.00  0.00    +0.000 C 
BRANCH  20  21
ATOM     21  C   UNL     1       1.955   2.643  19.579  0.00  0.00    +0.000 C 
ATOM     22  C   UNL     1       3.016   2.441  20.383  0.00  0.00    +0.000 C 
ATOM     23  C   UNL     1       2.593   2.664  21.751  0.00  0.00    +0.000 C 
ATOM     24  C   UNL     1       1.290   2.983  21.778  0.00  0.00    +0.000 C 
ATOM     25  C   UNL     1       0.741   3.005  20.382  0.00  0.00    +0.000 C 
BRANCH  22  26
ATOM     26  C   UNL     1       4.399   2.070  19.976  0.00  0.00    +0.000 C 
ATOM     27  F   UNL     1       4.438   1.073  19.054  0.00  0.00    +0.000 F 
ATOM     28  F   UNL     1       5.066   3.125  19.444  0.00  0.00    +0.000 F 
ATOM     29  F   UNL     1       5.136   1.646  21.040  0.00  0.00    +0.000 F 
ENDBRANCH  22  26
ENDBRANCH  20  21
ENDBRANCH  18  20
ENDBRANCH   5  18
TORSDOF 7
ENDMDL
MODEL 7
REMARK VINA RESULT:      -7.6      4.884      7.314
REMARK  Name = 
REMARK  8 active torsions:
REMARK  status: ('A' for Active; 'I' for Inactive)
REMARK    1  A    between atoms: C_1  and  N_2
REMARK    2  A    between atoms: C_6  and  C_7
REMARK    3  A    between atoms: C_7  and  C_8
REMARK    4  A    between atoms: C_8  and  C_9
REMARK    5  A    between atoms: C_13  and  N_14
REMARK    6  A    between atoms: N_14  and  C_15
REMARK    7  A    between atoms: C_15  and  C_16
REMARK    8  A    between atoms: C_17  and  C_18
REMARK                            x       y       z     vdW  Elec       q    Type
REMARK                         _______ _______ _______ _____ _____    ______ ____
ROOT
ATOM      1  C   UNL     1       0.952   9.902  19.400  0.00  0.00    +0.000 A 
ATOM      2  C   UNL     1       1.422   9.874  18.074  0.00  0.00    +0.000 A 
ATOM      3  C   UNL     1       2.117   8.772  17.569  0.00  0.00    +0.000 A 
ATOM      4  C   UNL     1       2.390   7.681  18.394  0.00  0.00    +0.000 A 
ATOM      5  C   UNL     1       2.001   7.694  19.731  0.00  0.00    +0.000 A 
ATOM      6  C   UNL     1       1.234   8.770  20.183  0.00  0.00    +0.000 A 
ENDROOT
BRANCH   1   7
ATOM      7  C   UNL     1       0.143  11.128  20.031  0.00  0.00    +0.000 C 
ATOM      8  C   UNL     1      -0.723  10.838  21.294  0.00  0.00    +0.000 C 
ATOM      9  O   UNL     1       0.010  11.794  22.089  0.00  0.00    +0.000 OA
ATOM     10  C   UNL     1       0.934  12.037  21.012  0.00  0.00    +0.000 C 
BRANCH   7  11
ATOM     11  C   UNL     1      -0.568  11.927  18.923  0.00  0.00    +0.000 C 
BRANCH  11  17
ATOM     12  C   UNL     1      -2.304   9.876  17.194  0.00  0.00    +0.000 C 
ATOM     13  N   UNL     1      -2.773  10.896  18.090  0.00  0.00    +0.000 N 
ATOM     14  C   UNL     1      -4.088  11.194  18.302  0.00  0.00    +0.000 A 
ATOM     15  N   UNL     1      -4.184  12.151  19.192  0.00  0.00    +0.000 NA
ATOM     16  N   UNL     1      -2.911  12.505  19.559  0.00  0.00    +0.000 NA
ATOM     17  C   UNL     1      -2.057  11.767  18.880  0.00  0.00    +0.000 A 
ENDBRANCH  11  17
ENDBRANCH   7  11
ENDBRANCH   1   7
BRANCH   5  18
ATOM     18  N   UNL     1       2.321   6.599  20.550  0.00  0.00    +0.000 N 
ATOM     19  H   UNL     1       2.730   6.942  21.422  0.00  0.00    +0.000 HD
BRANCH  18  20
ATOM     20  C   UNL     1       3.188   5.605  19.931  0.00  0.00    +0.000 C 
BRANCH  20  21
ATOM     21  C   UNL     1       2.383   4.384  19.709  0.00  0.00    +0.000 C 
ATOM     22  C   UNL     1       2.668   3.350  18.895  0.00  0.00    +0.000 C 
ATOM     23  C   UNL     1       1.570   2.406  18.966  0.00  0.00    +0.000 C 
ATOM     24  C   UNL     1       0.626   2.867  19.801  0.00  0.00    +0.000 C 
ATOM     25  C   UNL     1       1.051   4.190  20.370  0.00  0.00    +0.000 C 
BRANCH  22  26
ATOM     26  C   UNL     1       3.889   3.164  18.065  0.00  0.00    +0.000 C 
ATOM     27  F   UNL     1       3.978   4.047  17.037  0.00  0.00    +0.000 F 
ATOM     28  F   UNL     1       5.021   3.300  18.801  0.00  0.00    +0.000 F 
ATOM     29  F   UNL     1       3.935   1.919  17.515  0.00  0.00    +0.000 F 
ENDBRANCH  22  26
ENDBRANCH  20  21
ENDBRANCH  18  20
ENDBRANCH   5  18
TORSDOF 7
ENDMDL
MODEL 8
REMARK VINA RESULT:      -7.5      1.530      2.010
REMARK  Name = 
REMARK  8 active torsions:
REMARK  status: ('A' for Active; 'I' for Inactive)
REMARK    1  A    between atoms: C_1  and  N_2
REMARK    2  A    between atoms: C_6  and  C_7
REMARK    3  A    between atoms: C_7  and  C_8
REMARK    4  A    between atoms: C_8  and  C_9
REMARK    5  A    between atoms: C_13  and  N_14
REMARK    6  A    between atoms: N_14  and  C_15
REMARK    7  A    between atoms: C_15  and  C_16
REMARK    8  A    between atoms: C_17  and  C_18
REMARK                            x       y       z     vdW  Elec       q    Type
REMARK                         _______ _______ _______ _____ _____    ______ ____
ROOT
ATOM      1  C   UNL     1       4.741   6.029  17.725  0.00  0.00    +0.000 A 
ATOM      2  C   UNL     1       4.240   7.084  16.942  0.00  0.00    +0.000 A 
ATOM      3  C   UNL     1       3.136   7.837  17.351  0.00  0.00    +0.000 A 
ATOM      4  C   UNL     1       2.483   7.527  18.543  0.00  0.00    +0.000 A 
ATOM      5  C   UNL     1       2.904   6.450  19.318  0.00  0.00    +0.000 A 
ATOM      6  C   UNL     1       4.061   5.770  18.928  0.00  0.00    +0.000 A 
ENDROOT
BRANCH   1   7
ATOM      7  C   UNL     1       6.004   5.139  17.317  0.00  0.00    +0.000 C 
ATOM      8  C   UNL     1       7.412   5.799  17.435  0.00  0.00    +0.000 C 
ATOM      9  O   UNL     1       7.867   4.801  18.373  0.00  0.00    +0.000 OA
ATOM     10  C   UNL     1       6.562   4.196  18.418  0.00  0.00    +0.000 C 
BRANCH   7  11
ATOM     11  C   UNL     1       5.738   4.408  15.988  0.00  0.00    +0.000 C 
BRANCH  11  17
ATOM     12  C   UNL     1       5.611   3.483  12.932  0.00  0.00    +0.000 C 
ATOM     13  N   UNL     1       6.571   4.354  13.555  0.00  0.00    +0.000 N 
ATOM     14  C   UNL     1       7.652   4.893  12.920  0.00  0.00    +0.000 A 
ATOM     15  N   UNL     1       8.313   5.659  13.751  0.00  0.00    +0.000 NA
ATOM     16  N   UNL     1       7.669   5.610  14.962  0.00  0.00    +0.000 NA
ATOM     17  C   UNL     1       6.632   4.805  14.854  0.00  0.00    +0.000 A 
ENDBRANCH  11  17
ENDBRANCH   7  11
ENDBRANCH   1   7
BRANCH   5  18
ATOM     18  N   UNL     1       2.207   6.135  20.495  0.00  0.00    +0.000 N 
ATOM     19  H   UNL     1       2.844   5.677  21.150  0.00  0.00    +0.000 HD
BRANCH  18  20
ATOM     20  C   UNL     1       1.007   5.332  20.299  0.00  0.00    +0.000 C 
BRANCH  20  21
ATOM     21  C   UNL     1       1.414   4.072  19.639  0.00  0.00    +0.000 C 
ATOM     22  C   UNL     1       1.940   2.975  20.218  0.00  0.00    +0.000 C 
ATOM     23  C   UNL     1       2.225   2.009  19.176  0.00  0.00    +0.000 C 
ATOM     24  C   UNL     1       1.890   2.518  17.980  0.00  0.00    +0.000 C 
ATOM     25  C   UNL     1       1.331   3.900  18.152  0.00  0.00    +0.000 C 
BRANCH  22  26
ATOM     26  C   UNL     1       2.184   2.749  21.668  0.00  0.00    +0.000 C 
ATOM     27  F   UNL     1       3.195   1.875  21.912  0.00  0.00    +0.000 F 
ATOM     28  F   UNL     1       2.498   3.903  22.311  0.00  0.00    +0.000 F 
ATOM     29  F   UNL     1       1.080   2.251  22.290  0.00  0.00    +0.000 F 
ENDBRANCH  22  26
ENDBRANCH  20  21
ENDBRANCH  18  20
ENDBRANCH   5  18
TORSDOF 7
ENDMDL
MODEL 9
REMARK VINA RESULT:      -7.5      3.276      4.767
REMARK  Name = 
REMARK  8 active torsions:
REMARK  status: ('A' for Active; 'I' for Inactive)
REMARK    1  A    between atoms: C_1  and  N_2
REMARK    2  A    between atoms: C_6  and  C_7
REMARK    3  A    between atoms: C_7  and  C_8
REMARK    4  A    between atoms: C_8  and  C_9
REMARK    5  A    between atoms: C_13  and  N_14
REMARK    6  A    between atoms: N_14  and  C_15
REMARK    7  A    between atoms: C_15  and  C_16
REMARK    8  A    between atoms: C_17  and  C_18
REMARK                            x       y       z     vdW  Elec       q    Type
REMARK                         _______ _______ _______ _____ _____    ______ ____
ROOT
ATOM      1  C   UNL     1       4.400   4.186  17.357  0.00  0.00    +0.000 A 
ATOM      2  C   UNL     1       3.948   2.856  17.291  0.00  0.00    +0.000 A 
ATOM      3  C   UNL     1       2.721   2.474  17.838  0.00  0.00    +0.000 A 
ATOM      4  C   UNL     1       1.928   3.413  18.498  0.00  0.00    +0.000 A 
ATOM      5  C   UNL     1       2.367   4.726  18.644  0.00  0.00    +0.000 A 
ATOM      6  C   UNL     1       3.557   5.098  18.014  0.00  0.00    +0.000 A 
ENDROOT
BRANCH   1   7
ATOM      7  C   UNL     1       5.789   4.685  16.741  0.00  0.00    +0.000 C 
ATOM      8  C   UNL     1       5.944   6.213  16.472  0.00  0.00    +0.000 C 
ATOM      9  O   UNL     1       7.078   6.315  17.359  0.00  0.00    +0.000 OA
ATOM     10  C   UNL     1       6.936   4.939  17.758  0.00  0.00    +0.000 C 
BRANCH   7  11
ATOM     11  C   UNL     1       6.217   3.773  15.577  0.00  0.00    +0.000 C 
BRANCH  11  17
ATOM     12  C   UNL     1       5.779   3.337  12.442  0.00  0.00    +0.000 C 
ATOM     13  N   UNL     1       6.700   4.230  13.092  0.00  0.00    +0.000 N 
ATOM     14  C   UNL     1       7.604   5.017  12.440  0.00  0.00    +0.000 A 
ATOM     15  N   UNL     1       8.274   5.730  13.310  0.00  0.00    +0.000 NA
ATOM     16  N   UNL     1       7.819   5.394  14.560  0.00  0.00    +0.000 NA
ATOM     17  C   UNL     1       6.885   4.473  14.434  0.00  0.00    +0.000 A 
ENDBRANCH  11  17
ENDBRANCH   7  11
ENDBRANCH   1   7
BRANCH   5  18
ATOM     18  N   UNL     1       1.568   5.643  19.346  0.00  0.00    +0.000 N 
ATOM     19  H   UNL     1       0.890   6.057  18.703  0.00  0.00    +0.000 HD
BRANCH  18  20
ATOM     20  C   UNL     1       2.306   6.682  20.053  0.00  0.00    +0.000 C 
BRANCH  20  21
ATOM     21  C   UNL     1       1.904   7.986  19.480  0.00  0.00    +0.000 C 
ATOM     22  C   UNL     1       1.139   8.934  20.055  0.00  0.00    +0.000 C 
ATOM     23  C   UNL     1       0.973  10.015  19.105  0.00  0.00    +0.000 C 
ATOM     24  C   UNL     1       1.616   9.721  17.963  0.00  0.00    +0.000 C 
ATOM     25  C   UNL     1       2.285   8.383  18.085  0.00  0.00    +0.000 C 
BRANCH  22  26
ATOM     26  C   UNL     1       0.563   8.919  21.427  0.00  0.00    +0.000 C 
ATOM     27  F   UNL     1       1.490   8.697  22.395  0.00  0.00    +0.000 F 
ATOM     28  F   UNL     1      -0.047  10.094  21.728  0.00  0.00    +0.000 F 
ATOM     29  F   UNL     1      -0.383   7.949  21.562  0.00  0.00    +0.000 F 
ENDBRANCH  22  26
ENDBRANCH  20  21
ENDBRANCH  18  20
ENDBRANCH   5  18
TORSDOF 7
ENDMDL
