MODEL 1
REMARK VINA RESULT:      -9.0      0.000      0.000
REMARK  Name = 
REMARK  8 active torsions:
REMARK  status: ('A' for Active; 'I' for Inactive)
REMARK    1  A    between atoms: C_2  and  C_17
REMARK    2  A    between atoms: N_3  and  C_4
REMARK    3  A    between atoms: C_4  and  C_5
REMARK    4  A    between atoms: C_10  and  C_11
REMARK    5  A    between atoms: C_11  and  N_12
REMARK    6  A    between atoms: C_22  and  C_23
REMARK    7  A    between atoms: C_23  and  C_24
REMARK    8  A    between atoms: C_24  and  C_25
REMARK                            x       y       z     vdW  Elec       q    Type
REMARK                         _______ _______ _______ _____ _____    ______ ____
ROOT
ATOM      1  O   UNL     1       2.590   9.016  18.117  0.00  0.00    +0.000 OA
ATOM      2  C   UNL     1       2.120   8.349  19.037  0.00  0.00    +0.000 C 
ATOM      3  N   UNL     1       2.337   6.992  19.151  0.00  0.00    +0.000 N 
ATOM      4  H   UNL     1       1.712   6.473  19.749  0.00  0.00    +0.000 HD
ENDROOT
BRANCH   2   5
ATOM      5  C   UNL     1       1.226   9.008  20.039  0.00  0.00    +0.000 A 
ATOM      6  C   UNL     1       1.261   8.411  21.322  0.00  0.00    +0.000 A 
ATOM      7  C   UNL     1       0.550   8.945  22.392  0.00  0.00    +0.000 A 
ATOM      8  C   UNL     1      -0.208  10.091  22.200  0.00  0.00    +0.000 A 
ATOM      9  C   UNL     1      -0.299  10.663  20.928  0.00  0.00    +0.000 A 
ATOM     10  C   UNL     1       0.378  10.118  19.814  0.00  0.00    +0.000 A 
BRANCH  10  11
ATOM     11  C   UNL     1       0.044  10.721  18.454  0.00  0.00    +0.000 C 
BRANCH  11  12
ATOM     12  C   UNL     1      -0.853   9.790  17.626  0.00  0.00    +0.000 C 
BRANCH  12  13
ATOM     13  C   UNL     1      -2.246  10.259  17.266  0.00  0.00    +0.000 A 
ATOM     14  C   UNL     1      -2.984  10.945  18.247  0.00  0.00    +0.000 A 
ATOM     15  C   UNL     1      -4.188  11.578  17.937  0.00  0.00    +0.000 A 
ATOM     16  C   UNL     1      -4.681  11.528  16.638  0.00  0.00    +0.000 A 
ATOM     17  C   UNL     1      -3.981  10.823  15.659  0.00  0.00    +0.000 A 
ATOM     18  C   UNL     1      -2.770  10.192  15.968  0.00  0.00    +0.000 A 
ENDBRANCH  12  13
ENDBRANCH  11  12
ENDBRANCH  10  11
ENDBRANCH   2   5
BRANCH   3  19
ATOM     19  C   UNL     1       3.004   6.239  18.120  0.00  0.00    +0.000 C 
BRANCH  19  20
ATOM     20  C   UNL     1       2.860   4.736  18.245  0.00  0.00    +0.000 A 
ATOM     21  C   UNL     1       1.562   4.213  18.425  0.00  0.00    +0.000 A 
ATOM     22  C   UNL     1       1.315   2.840  18.389  0.00  0.00    +0.000 A 
ATOM     23  C   UNL     1       2.357   1.955  18.160  0.00  0.00    +0.000 A 
ATOM     24  C   UNL     1       3.654   2.442  18.030  0.00  0.00    +0.000 A 
ATOM     25  C   UNL     1       3.934   3.824  18.104  0.00  0.00    +0.000 A 
BRANCH  25  26
ATOM     26  C   UNL     1       5.392   4.219  18.089  0.00  0.00    +0.000 C 
BRANCH  26  27
ATOM     27  N   UNL     1       5.959   4.597  16.806  0.00  0.00    +0.000 N 
ATOM     28  C   UNL     1       5.892   3.944  15.607  0.00  0.00    +0.000 A 
ATOM     29  C   UNL     1       6.830   4.561  14.810  0.00  0.00    +0.000 A 
ATOM     30  N   UNL     1       7.440   5.588  15.477  0.00  0.00    +0.000 NA
ATOM     31  C   UNL     1       6.879   5.605  16.664  0.00  0.00    +0.000 A 
ENDBRANCH  26  27
ENDBRANCH  25  26
ENDBRANCH  19  20
ENDBRANCH   3  19
TORSDOF 8
ENDMDL
MODEL 2
REMARK VINA RESULT:      -8.9      1.331      1.675
REMARK  Name = 
REMARK  8 active torsions:
REMARK  status: ('A' for Active; 'I' for Inactive)
REMARK    1  A    between atoms: C_2  and  C_17
REMARK    2  A    between atoms: N_3  and  C_4
REMARK    3  A    between atoms: C_4  and  C_5
REMARK    4  A    between atoms: C_10  and  C_11
REMARK    5  A    between atoms: C_11  and  N_12
REMARK    6  A    between atoms: C_22  and  C_23
REMARK    7  A    between atoms: C_23  and  C_24
REMARK    8  A    between atoms: C_24  and  C_25
REMARK                            x       y       z     vdW  Elec       q    Type
REMARK                         _______ _______ _______ _____ _____    ______ ____
ROOT
ATOM      1  O   UNL     1       1.366   9.047  18.737  0.00  0.00    +0.000 OA
ATOM      2  C   UNL     1       1.354   8.704  19.918  0.00  0.00    +0.000 C 
ATOM      3  N   UNL     1       2.045   7.601  20.374  0.00  0.00    +0.000 N 
ATOM      4  H   UNL     1       1.774   7.225  21.270  0.00  0.00    +0.000 HD
ENDROOT
BRANCH   2   5
ATOM      5  C   UNL     1       0.513   9.464  20.894  0.00  0.00    +0.000 A 
ATOM      6  C   UNL     1       0.419   8.856  22.168  0.00  0.00    +0.000 A 
ATOM      7  C   UNL     1      -0.260   9.468  23.218  0.00  0.00    +0.000 A 
ATOM      8  C   UNL     1      -0.855  10.704  23.013  0.00  0.00    +0.000 A 
ATOM      9  C   UNL     1      -0.820  11.295  21.747  0.00  0.00    +0.000 A 
ATOM     10  C   UNL     1      -0.174  10.678  20.652  0.00  0.00    +0.000 A 
BRANCH  10  11
ATOM     11  C   UNL     1      -0.372  11.331  19.289  0.00  0.00    +0.000 C 
BRANCH  11  12
ATOM     12  C   UNL     1      -1.840  11.711  19.050  0.00  0.00    +0.000 C 
BRANCH  12  13
ATOM     13  C   UNL     1      -2.558  11.113  17.860  0.00  0.00    +0.000 A 
ATOM     14  C   UNL     1      -3.831  11.616  17.539  0.00  0.00    +0.000 A 
ATOM     15  C   UNL     1      -4.472  11.262  16.352  0.00  0.00    +0.000 A 
ATOM     16  C   UNL     1      -3.852  10.388  15.465  0.00  0.00    +0.000 A 
ATOM     17  C   UNL     1      -2.605   9.851  15.782  0.00  0.00    +0.000 A 
ATOM     18  C   UNL     1      -1.959  10.211  16.972  0.00  0.00    +0.000 A 
ENDBRANCH  12  13
ENDBRANCH  11  12
ENDBRANCH  10  11
ENDBRANCH   2   5
BRANCH   3  19
ATOM     19  C   UNL     1       2.704   6.691  19.474  0.00  0.00    +0.000 C 
BRANCH  19  20
ATOM     20  C   UNL     1       2.610   5.232  19.872  0.00  0.00    +0.000 A 
ATOM     21  C   UNL     1       1.381   4.771  20.390  0.00  0.00    +0.000 A 
ATOM     22  C   UNL     1       1.151   3.416  20.632  0.00  0.00    +0.000 A 
ATOM     23  C   UNL     1       2.141   2.485  20.351  0.00  0.00    +0.000 A 
ATOM     24  C   UNL     1       3.379   2.920  19.888  0.00  0.00    +0.000 A 
ATOM     25  C   UNL     1       3.648   4.290  19.674  0.00  0.00    +0.000 A 
BRANCH  25  26
ATOM     26  C   UNL     1       5.068   4.649  19.306  0.00  0.00    +0.000 C 
BRANCH  26  27
ATOM     27  N   UNL     1       5.458   4.455  17.920  0.00  0.00    +0.000 N 
ATOM     28  C   UNL     1       6.703   4.518  17.357  0.00  0.00    +0.000 A 
ATOM     29  C   UNL     1       6.480   4.558  15.999  0.00  0.00    +0.000 A 
ATOM     30  N   UNL     1       5.142   4.485  15.720  0.00  0.00    +0.000 NA
ATOM     31  C   UNL     1       4.553   4.398  16.891  0.00  0.00    +0.000 A 
ENDBRANCH  26  27
ENDBRANCH  25  26
ENDBRANCH  19  20
ENDBRANCH   3  19
TORSDOF 8
ENDMDL
MODEL 3
REMARK VINA RESULT:      -8.9      0.781      1.418
REMARK  Name = 
REMARK  8 active torsions:
REMARK  status: ('A' for Active; 'I' for Inactive)
REMARK    1  A    between atoms: C_2  and  C_17
REMARK    2  A    between atoms: N_3  and  C_4
REMARK    3  A    between atoms: C_4  and  C_5
REMARK    4  A    between atoms: C_10  and  C_11
REMARK    5  A    between atoms: C_11  and  N_12
REMARK    6  A    between atoms: C_22  and  C_23
REMARK    7  A    between atoms: C_23  and  C_24
REMARK    8  A    between atoms: C_24  and  C_25
REMARK                            x       y       z     vdW  Elec       q    Type
REMARK                         _______ _______ _______ _____ _____    ______ ____
ROOT
ATOM      1  O   UNL     1       2.336   9.034  18.280  0.00  0.00    +0.000 OA
ATOM      2  C   UNL     1       1.917   8.438  19.272  0.00  0.00    +0.000 C 
ATOM      3  N   UNL     1       2.159   7.098  19.486  0.00  0.00    +0.000 N 
ATOM      4  H   UNL     1       1.569   6.624  20.152  0.00  0.00    +0.000 HD
ENDROOT
BRANCH   2   5
ATOM      5  C   UNL     1       1.061   9.168  20.258  0.00  0.00    +0.000 A 
ATOM      6  C   UNL     1       1.021   8.568  21.539  0.00  0.00    +0.000 A 
ATOM      7  C   UNL     1       0.336   9.159  22.597  0.00  0.00    +0.000 A 
ATOM      8  C   UNL     1      -0.321  10.363  22.393  0.00  0.00    +0.000 A 
ATOM      9  C   UNL     1      -0.338  10.943  21.122  0.00  0.00    +0.000 A 
ATOM     10  C   UNL     1       0.314  10.346  20.020  0.00  0.00    +0.000 A 
BRANCH  10  11
ATOM     11  C   UNL     1       0.059  10.976  18.656  0.00  0.00    +0.000 C 
BRANCH  11  12
ATOM     12  C   UNL     1      -0.944  10.157  17.830  0.00  0.00    +0.000 C 
BRANCH  12  13
ATOM     13  C   UNL     1      -2.285  10.774  17.498  0.00  0.00    +0.000 A 
ATOM     14  C   UNL     1      -2.782  10.605  16.194  0.00  0.00    +0.000 A 
ATOM     15  C   UNL     1      -4.087  10.970  15.863  0.00  0.00    +0.000 A 
ATOM     16  C   UNL     1      -4.918  11.518  16.833  0.00  0.00    +0.000 A 
ATOM     17  C   UNL     1      -4.433  11.726  18.123  0.00  0.00    +0.000 A 
ATOM     18  C   UNL     1      -3.124  11.356  18.457  0.00  0.00    +0.000 A 
ENDBRANCH  12  13
ENDBRANCH  11  12
ENDBRANCH  10  11
ENDBRANCH   2   5
BRANCH   3  19
ATOM     19  C   UNL     1       2.787   6.270  18.489  0.00  0.00    +0.000 C 
BRANCH  19  20
ATOM     20  C   UNL     1       2.574   4.782  18.679  0.00  0.00    +0.000 A 
ATOM     21  C   UNL     1       1.800   4.366  19.784  0.00  0.00    +0.000 A 
ATOM     22  C   UNL     1       1.418   3.034  19.949  0.00  0.00    +0.000 A 
ATOM     23  C   UNL     1       1.789   2.086  19.007  0.00  0.00    +0.000 A 
ATOM     24  C   UNL     1       2.594   2.462  17.937  0.00  0.00    +0.000 A 
ATOM     25  C   UNL     1       3.028   3.795  17.772  0.00  0.00    +0.000 A 
BRANCH  25  26
ATOM     26  C   UNL     1       4.011   4.052  16.653  0.00  0.00    +0.000 C 
BRANCH  26  27
ATOM     27  N   UNL     1       5.410   4.176  17.023  0.00  0.00    +0.000 N 
ATOM     28  C   UNL     1       5.959   4.463  18.242  0.00  0.00    +0.000 A 
ATOM     29  C   UNL     1       7.279   4.754  17.981  0.00  0.00    +0.000 A 
ATOM     30  N   UNL     1       7.556   4.618  16.648  0.00  0.00    +0.000 NA
ATOM     31  C   UNL     1       6.423   4.244  16.100  0.00  0.00    +0.000 A 
ENDBRANCH  26  27
ENDBRANCH  25  26
ENDBRANCH  19  20
ENDBRANCH   3  19
TORSDOF 8
ENDMDL
MODEL 4
REMARK VINA RESULT:      -8.8      2.306      8.636
REMARK  Name = 
REMARK  8 active torsions:
REMARK  status: ('A' for Active; 'I' for Inactive)
REMARK    1  A    between atoms: C_2  and  C_17
REMARK    2  A    between atoms: N_3  and  C_4
REMARK    3  A    between atoms: C_4  and  C_5
REMARK    4  A    between atoms: C_10  and  C_11
REMARK    5  A    between atoms: C_11  and  N_12
REMARK    6  A    between atoms: C_22  and  C_23
REMARK    7  A    between atoms: C_23  and  C_24
REMARK    8  A    between atoms: C_24  and  C_25
REMARK                            x       y       z     vdW  Elec       q    Type
REMARK                         _______ _______ _______ _____ _____    ______ ____
ROOT
ATOM      1  O   UNL     1       2.573   6.873  18.475  0.00  0.00    +0.000 OA
ATOM      2  C   UNL     1       2.157   6.467  19.558  0.00  0.00    +0.000 C 
ATOM      3  N   UNL     1       1.677   7.317  20.532  0.00  0.00    +0.000 N 
ATOM      4  H   UNL     1       1.618   6.955  21.471  0.00  0.00    +0.000 HD
ENDROOT
BRANCH   2   5
ATOM      5  C   UNL     1       2.225   5.004  19.868  0.00  0.00    +0.000 A 
ATOM      6  C   UNL     1       2.127   4.704  21.248  0.00  0.00    +0.000 A 
ATOM      7  C   UNL     1       2.095   3.390  21.705  0.00  0.00    +0.000 A 
ATOM      8  C   UNL     1       2.157   2.350  20.789  0.00  0.00    +0.000 A 
ATOM      9  C   UNL     1       2.309   2.627  19.428  0.00  0.00    +0.000 A 
ATOM     10  C   UNL     1       2.386   3.950  18.938  0.00  0.00    +0.000 A 
BRANCH  10  11
ATOM     11  C   UNL     1       2.742   4.111  17.465  0.00  0.00    +0.000 C 
BRANCH  11  12
ATOM     12  C   UNL     1       4.215   3.770  17.197  0.00  0.00    +0.000 C 
BRANCH  12  13
ATOM     13  C   UNL     1       5.270   4.803  17.528  0.00  0.00    +0.000 A 
ATOM     14  C   UNL     1       5.846   4.766  18.810  0.00  0.00    +0.000 A 
ATOM     15  C   UNL     1       6.956   5.550  19.129  0.00  0.00    +0.000 A 
ATOM     16  C   UNL     1       7.505   6.393  18.169  0.00  0.00    +0.000 A 
ATOM     17  C   UNL     1       6.926   6.469  16.903  0.00  0.00    +0.000 A 
ATOM     18  C   UNL     1       5.815   5.679  16.581  0.00  0.00    +0.000 A 
ENDBRANCH  12  13
ENDBRANCH  11  12
ENDBRANCH  10  11
ENDBRANCH   2   5
BRANCH   3  19
ATOM     19  C   UNL     1       1.772   8.748  20.405  0.00  0.00    +0.000 C 
BRANCH  19  20
ATOM     20  C   UNL     1       0.713   9.520  21.166  0.00  0.00    +0.000 A 
ATOM     21  C   UNL     1       0.275   8.992  22.398  0.00  0.00    +0.000 A 
ATOM     22  C   UNL     1      -0.576   9.710  23.241  0.00  0.00    +0.000 A 
ATOM     23  C   UNL     1      -0.999  10.980  22.878  0.00  0.00    +0.000 A 
ATOM     24  C   UNL     1      -0.622  11.501  21.644  0.00  0.00    +0.000 A 
ATOM     25  C   UNL     1       0.204  10.776  20.757  0.00  0.00    +0.000 A 
BRANCH  25  26
ATOM     26  C   UNL     1       0.428  11.386  19.394  0.00  0.00    +0.000 C 
BRANCH  26  27
ATOM     27  N   UNL     1      -0.624  11.202  18.409  0.00  0.00    +0.000 N 
ATOM     28  C   UNL     1      -1.681  12.017  18.113  0.00  0.00    +0.000 A 
ATOM     29  C   UNL     1      -2.520  11.249  17.338  0.00  0.00    +0.000 A 
ATOM     30  N   UNL     1      -1.990  10.005  17.127  0.00  0.00    +0.000 NA
ATOM     31  C   UNL     1      -0.839  10.012  17.759  0.00  0.00    +0.000 A 
ENDBRANCH  26  27
ENDBRANCH  25  26
ENDBRANCH  19  20
ENDBRANCH   3  19
TORSDOF 8
ENDMDL
MODEL 5
REMARK VINA RESULT:      -8.7      1.508      1.983
REMARK  Name = 
REMARK  8 active torsions:
REMARK  status: ('A' for Active; 'I' for Inactive)
REMARK    1  A    between atoms: C_2  and  C_17
REMARK    2  A    between atoms: N_3  and  C_4
REMARK    3  A    between atoms: C_4  and  C_5
REMARK    4  A    between atoms: C_10  and  C_11
REMARK    5  A    between atoms: C_11  and  N_12
REMARK    6  A    between atoms: C_22  and  C_23
REMARK    7  A    between atoms: C_23  and  C_24
REMARK    8  A    between atoms: C_24  and  C_25
REMARK                            x       y       z     vdW  Elec       q    Type
REMARK                         _______ _______ _______ _____ _____    ______ ____
ROOT
ATOM      1  O   UNL     1       1.350   9.206  18.696  0.00  0.00    +0.000 OA
ATOM      2  C   UNL     1       1.320   8.844  19.871  0.00  0.00    +0.000 C 
ATOM      3  N   UNL     1       1.942   7.692  20.305  0.00  0.00    +0.000 N 
ATOM      4  H   UNL     1       1.651   7.318  21.195  0.00  0.00    +0.000 HD
ENDROOT
BRANCH   2   5
ATOM      5  C   UNL     1       0.533   9.639  20.864  0.00  0.00    +0.000 A 
ATOM      6  C   UNL     1       0.003   8.869  21.927  0.00  0.00    +0.000 A 
ATOM      7  C   UNL     1      -0.689   9.461  22.978  0.00  0.00    +0.000 A 
ATOM      8  C   UNL     1      -0.862  10.837  22.989  0.00  0.00    +0.000 A 
ATOM      9  C   UNL     1      -0.394  11.608  21.921  0.00  0.00    +0.000 A 
ATOM     10  C   UNL     1       0.276  11.030  20.820  0.00  0.00    +0.000 A 
BRANCH  10  11
ATOM     11  C   UNL     1       0.563  11.950  19.639  0.00  0.00    +0.000 C 
BRANCH  11  12
ATOM     12  C   UNL     1      -0.711  12.641  19.134  0.00  0.00    +0.000 C 
BRANCH  12  13
ATOM     13  C   UNL     1      -1.778  11.798  18.470  0.00  0.00    +0.000 A 
ATOM     14  C   UNL     1      -1.361  10.741  17.642  0.00  0.00    +0.000 A 
ATOM     15  C   UNL     1      -2.269   9.802  17.154  0.00  0.00    +0.000 A 
ATOM     16  C   UNL     1      -3.617   9.909  17.479  0.00  0.00    +0.000 A 
ATOM     17  C   UNL     1      -4.055  10.970  18.270  0.00  0.00    +0.000 A 
ATOM     18  C   UNL     1      -3.143  11.910  18.766  0.00  0.00    +0.000 A 
ENDBRANCH  12  13
ENDBRANCH  11  12
ENDBRANCH  10  11
ENDBRANCH   2   5
BRANCH   3  19
ATOM     19  C   UNL     1       2.539   6.758  19.386  0.00  0.00    +0.000 C 
BRANCH  19  20
ATOM     20  C   UNL     1       2.567   5.324  19.874  0.00  0.00    +0.000 A 
ATOM     21  C   UNL     1       1.389   4.805  20.452  0.00  0.00    +0.000 A 
ATOM     22  C   UNL     1       1.271   3.453  20.783  0.00  0.00    +0.000 A 
ATOM     23  C   UNL     1       2.322   2.585  20.532  0.00  0.00    +0.000 A 
ATOM     24  C   UNL     1       3.512   3.082  20.010  0.00  0.00    +0.000 A 
ATOM     25  C   UNL     1       3.670   4.452  19.707  0.00  0.00    +0.000 A 
BRANCH  25  26
ATOM     26  C   UNL     1       5.050   4.894  19.280  0.00  0.00    +0.000 C 
BRANCH  26  27
ATOM     27  N   UNL     1       5.451   4.578  17.920  0.00  0.00    +0.000 N 
ATOM     28  C   UNL     1       6.709   4.437  17.402  0.00  0.00    +0.000 A 
ATOM     29  C   UNL     1       6.536   4.439  16.036  0.00  0.00    +0.000 A 
ATOM     30  N   UNL     1       5.211   4.541  15.710  0.00  0.00    +0.000 NA
ATOM     31  C   UNL     1       4.579   4.597  16.860  0.00  0.00    +0.000 A 
ENDBRANCH  26  27
ENDBRANCH  25  26
ENDBRANCH  19  20
ENDBRANCH   3  19
TORSDOF 8
ENDMDL
MODEL 6
REMARK VINA RESULT:      -8.7      1.295      1.981
REMARK  Name = 
REMARK  8 active torsions:
REMARK  status: ('A' for Active; 'I' for Inactive)
REMARK    1  A    between atoms: C_2  and  C_17
REMARK    2  A    between atoms: N_3  and  C_4
REMARK    3  A    between atoms: C_4  and  C_5
REMARK    4  A    between atoms: C_10  and  C_11
REMARK    5  A    between atoms: C_11  and  N_12
REMARK    6  A    between atoms: C_22  and  C_23
REMARK    7  A    between atoms: C_23  and  C_24
REMARK    8  A    between atoms: C_24  and  C_25
REMARK                            x       y       z     vdW  Elec       q    Type
REMARK                         _______ _______ _______ _____ _____    ______ ____
ROOT
ATOM      1  O   UNL     1       1.364   9.115  18.603  0.00  0.00    +0.000 OA
ATOM      2  C   UNL     1       1.398   8.760  19.780  0.00  0.00    +0.000 C 
ATOM      3  N   UNL     1       2.115   7.659  20.200  0.00  0.00    +0.000 N 
ATOM      4  H   UNL     1       1.880   7.272  21.100  0.00  0.00    +0.000 HD
ENDROOT
BRANCH   2   5
ATOM      5  C   UNL     1       0.587   9.503  20.794  0.00  0.00    +0.000 A 
ATOM      6  C   UNL     1       0.144   8.704  21.875  0.00  0.00    +0.000 A 
ATOM      7  C   UNL     1      -0.555   9.252  22.945  0.00  0.00    +0.000 A 
ATOM      8  C   UNL     1      -0.823  10.613  22.956  0.00  0.00    +0.000 A 
ATOM      9  C   UNL     1      -0.443  11.409  21.873  0.00  0.00    +0.000 A 
ATOM     10  C   UNL     1       0.233  10.873  20.753  0.00  0.00    +0.000 A 
BRANCH  10  11
ATOM     11  C   UNL     1       0.420  11.805  19.561  0.00  0.00    +0.000 C 
BRANCH  11  12
ATOM     12  C   UNL     1      -0.888  12.519  19.189  0.00  0.00    +0.000 C 
BRANCH  12  13
ATOM     13  C   UNL     1      -1.951  11.743  18.443  0.00  0.00    +0.000 A 
ATOM     14  C   UNL     1      -1.531  10.718  17.577  0.00  0.00    +0.000 A 
ATOM     15  C   UNL     1      -2.445   9.832  17.007  0.00  0.00    +0.000 A 
ATOM     16  C   UNL     1      -3.801   9.962  17.288  0.00  0.00    +0.000 A 
ATOM     17  C   UNL     1      -4.240  10.994  18.116  0.00  0.00    +0.000 A 
ATOM     18  C   UNL     1      -3.322  11.880  18.693  0.00  0.00    +0.000 A 
ENDBRANCH  12  13
ENDBRANCH  11  12
ENDBRANCH  10  11
ENDBRANCH   2   5
BRANCH   3  19
ATOM     19  C   UNL     1       2.748   6.764  19.267  0.00  0.00    +0.000 C 
BRANCH  19  20
ATOM     20  C   UNL     1       2.311   5.318  19.385  0.00  0.00    +0.000 A 
ATOM     21  C   UNL     1       1.602   4.940  20.545  0.00  0.00    +0.000 A 
ATOM     22  C   UNL     1       1.023   3.675  20.669  0.00  0.00    +0.000 A 
ATOM     23  C   UNL     1       1.127   2.762  19.630  0.00  0.00    +0.000 A 
ATOM     24  C   UNL     1       1.865   3.093  18.498  0.00  0.00    +0.000 A 
ATOM     25  C   UNL     1       2.494   4.350  18.368  0.00  0.00    +0.000 A 
BRANCH  25  26
ATOM     26  C   UNL     1       3.381   4.539  17.160  0.00  0.00    +0.000 C 
BRANCH  26  27
ATOM     27  N   UNL     1       4.800   4.727  17.407  0.00  0.00    +0.000 N 
ATOM     28  C   UNL     1       5.548   4.334  18.482  0.00  0.00    +0.000 A 
ATOM     29  C   UNL     1       6.740   5.011  18.356  0.00  0.00    +0.000 A 
ATOM     30  N   UNL     1       6.751   5.775  17.221  0.00  0.00    +0.000 NA
ATOM     31  C   UNL     1       5.585   5.566  16.656  0.00  0.00    +0.000 A 
ENDBRANCH  26  27
ENDBRANCH  25  26
ENDBRANCH  19  20
ENDBRANCH   3  19
TORSDOF 8
ENDMDL
MODEL 7
REMARK VINA RESULT:      -8.6      1.208      1.481
REMARK  Name = 
REMARK  8 active torsions:
REMARK  status: ('A' for Active; 'I' for Inactive)
REMARK    1  A    between atoms: C_2  and  C_17
REMARK    2  A    between atoms: N_3  and  C_4
REMARK    3  A    between atoms: C_4  and  C_5
REMARK    4  A    between atoms: C_10  and  C_11
REMARK    5  A    between atoms: C_11  and  N_12
REMARK    6  A    between atoms: C_22  and  C_23
REMARK    7  A    between atoms: C_23  and  C_24
REMARK    8  A    between atoms: C_24  and  C_25
REMARK                            x       y       z     vdW  Elec       q    Type
REMARK                         _______ _______ _______ _____ _____    ______ ____
ROOT
ATOM      1  O   UNL     1       1.868   8.727  18.541  0.00  0.00    +0.000 OA
ATOM      2  C   UNL     1       1.700   8.420  19.720  0.00  0.00    +0.000 C 
ATOM      3  N   UNL     1       2.318   7.330  20.295  0.00  0.00    +0.000 N 
ATOM      4  H   UNL     1       1.929   6.981  21.158  0.00  0.00    +0.000 HD
ENDROOT
BRANCH   2   5
ATOM      5  C   UNL     1       0.743   9.211  20.555  0.00  0.00    +0.000 A 
ATOM      6  C   UNL     1       0.545   8.689  21.855  0.00  0.00    +0.000 A 
ATOM      7  C   UNL     1      -0.252   9.344  22.788  0.00  0.00    +0.000 A 
ATOM      8  C   UNL     1      -0.865  10.539  22.439  0.00  0.00    +0.000 A 
ATOM      9  C   UNL     1      -0.726  11.042  21.143  0.00  0.00    +0.000 A 
ATOM     10  C   UNL     1       0.044  10.377  20.162  0.00  0.00    +0.000 A 
BRANCH  10  11
ATOM     11  C   UNL     1      -0.042  10.927  18.743  0.00  0.00    +0.000 C 
BRANCH  11  12
ATOM     12  C   UNL     1      -0.852  10.002  17.823  0.00  0.00    +0.000 C 
BRANCH  12  13
ATOM     13  C   UNL     1      -2.246  10.425  17.415  0.00  0.00    +0.000 A 
ATOM     14  C   UNL     1      -3.072  11.003  18.395  0.00  0.00    +0.000 A 
ATOM     15  C   UNL     1      -4.289  11.596  18.060  0.00  0.00    +0.000 A 
ATOM     16  C   UNL     1      -4.707  11.615  16.734  0.00  0.00    +0.000 A 
ATOM     17  C   UNL     1      -3.918  11.016  15.752  0.00  0.00    +0.000 A 
ATOM     18  C   UNL     1      -2.694  10.425  16.087  0.00  0.00    +0.000 A 
ENDBRANCH  12  13
ENDBRANCH  11  12
ENDBRANCH  10  11
ENDBRANCH   2   5
BRANCH   3  19
ATOM     19  C   UNL     1       3.083   6.391  19.516  0.00  0.00    +0.000 C 
BRANCH  19  20
ATOM     20  C   UNL     1       2.449   5.021  19.379  0.00  0.00    +0.000 A 
ATOM     21  C   UNL     1       1.571   4.600  20.400  0.00  0.00    +0.000 A 
ATOM     22  C   UNL     1       0.820   3.428  20.281  0.00  0.00    +0.000 A 
ATOM     23  C   UNL     1       0.919   2.657  19.133  0.00  0.00    +0.000 A 
ATOM     24  C   UNL     1       1.816   3.024  18.135  0.00  0.00    +0.000 A 
ATOM     25  C   UNL     1       2.616   4.182  18.251  0.00  0.00    +0.000 A 
BRANCH  25  26
ATOM     26  C   UNL     1       3.649   4.400  17.171  0.00  0.00    +0.000 C 
BRANCH  26  27
ATOM     27  N   UNL     1       4.977   4.802  17.601  0.00  0.00    +0.000 N 
ATOM     28  C   UNL     1       5.783   5.789  17.106  0.00  0.00    +0.000 A 
ATOM     29  C   UNL     1       7.021   5.552  17.659  0.00  0.00    +0.000 A 
ATOM     30  N   UNL     1       6.984   4.474  18.500  0.00  0.00    +0.000 NA
ATOM     31  C   UNL     1       5.739   4.058  18.467  0.00  0.00    +0.000 A 
ENDBRANCH  26  27
ENDBRANCH  25  26
ENDBRANCH  19  20
ENDBRANCH   3  19
TORSDOF 8
ENDMDL
MODEL 8
REMARK VINA RESULT:      -8.6      2.436      8.825
REMARK  Name = 
REMARK  8 active torsions:
REMARK  status: ('A' for Active; 'I' for Inactive)
REMARK    1  A    between atoms: C_2  and  C_17
REMARK    2  A    between atoms: N_3  and  C_4
REMARK    3  A    between atoms: C_4  and  C_5
REMARK    4  A    between atoms: C_10  and  C_11
REMARK    5  A    between atoms: C_11  and  N_12
REMARK    6  A    between atoms: C_22  and  C_23
REMARK    7  A    between atoms: C_23  and  C_24
REMARK    8  A    between atoms: C_24  and  C_25
REMARK                            x       y       z     vdW  Elec       q    Type
REMARK                         _______ _______ _______ _____ _____    ______ ____
ROOT
ATOM      1  O   UNL     1       2.266   7.169  18.413  0.00  0.00    +0.000 OA
ATOM      2  C   UNL     1       2.085   6.801  19.572  0.00  0.00    +0.000 C 
ATOM      3  N   UNL     1       1.668   7.664  20.564  0.00  0.00    +0.000 N 
ATOM      4  H   UNL     1       1.808   7.370  21.519  0.00  0.00    +0.000 HD
ENDROOT
BRANCH   2   5
ATOM      5  C   UNL     1       2.386   5.385  19.949  0.00  0.00    +0.000 A 
ATOM      6  C   UNL     1       1.312   4.718  20.584  0.00  0.00    +0.000 A 
ATOM      7  C   UNL     1       1.394   3.373  20.930  0.00  0.00    +0.000 A 
ATOM      8  C   UNL     1       2.554   2.667  20.643  0.00  0.00    +0.000 A 
ATOM      9  C   UNL     1       3.645   3.321  20.066  0.00  0.00    +0.000 A 
ATOM     10  C   UNL     1       3.605   4.696  19.742  0.00  0.00    +0.000 A 
BRANCH  10  11
ATOM     11  C   UNL     1       4.919   5.328  19.297  0.00  0.00    +0.000 C 
BRANCH  11  12
ATOM     12  C   UNL     1       5.860   4.295  18.662  0.00  0.00    +0.000 C 
BRANCH  12  13
ATOM     13  C   UNL     1       6.064   4.324  17.164  0.00  0.00    +0.000 A 
ATOM     14  C   UNL     1       4.935   4.159  16.343  0.00  0.00    +0.000 A 
ATOM     15  C   UNL     1       5.004   4.368  14.965  0.00  0.00    +0.000 A 
ATOM     16  C   UNL     1       6.209   4.741  14.382  0.00  0.00    +0.000 A 
ATOM     17  C   UNL     1       7.348   4.876  15.175  0.00  0.00    +0.000 A 
ATOM     18  C   UNL     1       7.279   4.671  16.558  0.00  0.00    +0.000 A 
ENDBRANCH  12  13
ENDBRANCH  11  12
ENDBRANCH  10  11
ENDBRANCH   2   5
BRANCH   3  19
ATOM     19  C   UNL     1       1.561   9.082  20.342  0.00  0.00    +0.000 C 
BRANCH  19  20
ATOM     20  C   UNL     1       0.492   9.770  21.168  0.00  0.00    +0.000 A 
ATOM     21  C   UNL     1       0.212   9.245  22.447  0.00  0.00    +0.000 A 
ATOM     22  C   UNL     1      -0.637   9.904  23.338  0.00  0.00    +0.000 A 
ATOM     23  C   UNL     1      -1.218  11.111  22.976  0.00  0.00    +0.000 A 
ATOM     24  C   UNL     1      -0.998  11.622  21.701  0.00  0.00    +0.000 A 
ATOM     25  C   UNL     1      -0.176  10.953  20.769  0.00  0.00    +0.000 A 
BRANCH  25  26
ATOM     26  C   UNL     1      -0.127  11.532  19.375  0.00  0.00    +0.000 C 
BRANCH  26  27
ATOM     27  N   UNL     1      -1.118  11.052  18.427  0.00  0.00    +0.000 N 
ATOM     28  C   UNL     1      -1.149   9.875  17.733  0.00  0.00    +0.000 A 
ATOM     29  C   UNL     1      -2.119  10.051  16.772  0.00  0.00    +0.000 A 
ATOM     30  N   UNL     1      -2.700  11.285  16.883  0.00  0.00    +0.000 NA
ATOM     31  C   UNL     1      -2.099  11.855  17.901  0.00  0.00    +0.000 A 
ENDBRANCH  26  27
ENDBRANCH  25  26
ENDBRANCH  19  20
ENDBRANCH   3  19
TORSDOF 8
ENDMDL
MODEL 9
REMARK VINA RESULT:      -8.5      2.071      8.428
REMARK  Name = 
REMARK  8 active torsions:
REMARK  status: ('A' for Active; 'I' for Inactive)
REMARK    1  A    between atoms: C_2  and  C_17
REMARK    2  A    between atoms: N_3  and  C_4
REMARK    3  A    between atoms: C_4  and  C_5
REMARK    4  A    between atoms: C_10  and  C_11
REMARK    5  A    between atoms: C_11  and  N_12
REMARK    6  A    between atoms: C_22  and  C_23
REMARK    7  A    between atoms: C_23  and  C_24
REMARK    8  A    between atoms: C_24  and  C_25
REMARK                            x       y       z     vdW  Elec       q    Type
REMARK                         _______ _______ _______ _____ _____    ______ ____
ROOT
ATOM      1  O   UNL     1       2.364   5.931  17.658  0.00  0.00    +0.000 OA
ATOM      2  C   UNL     1       3.323   6.700  17.703  0.00  0.00    +0.000 C 
ATOM      3  N   UNL     1       3.175   8.057  17.895  0.00  0.00    +0.000 N 
ATOM      4  H   UNL     1       3.955   8.646  17.647  0.00  0.00    +0.000 HD
ENDROOT
BRANCH   2   5
ATOM      5  C   UNL     1       4.703   6.165  17.478  0.00  0.00    +0.000 A 
ATOM      6  C   UNL     1       5.726   7.129  17.635  0.00  0.00    +0.000 A 
ATOM      7  C   UNL     1       7.070   6.784  17.539  0.00  0.00    +0.000 A 
ATOM      8  C   UNL     1       7.417   5.465  17.287  0.00  0.00    +0.000 A 
ATOM      9  C   UNL     1       6.421   4.509  17.075  0.00  0.00    +0.000 A 
ATOM     10  C   UNL     1       5.047   4.838  17.125  0.00  0.00    +0.000 A 
BRANCH  10  11
ATOM     11  C   UNL     1       4.071   3.752  16.689  0.00  0.00    +0.000 C 
BRANCH  11  12
ATOM     12  C   UNL     1       3.908   2.670  17.766  0.00  0.00    +0.000 C 
BRANCH  12  13
ATOM     13  C   UNL     1       2.914   2.903  18.883  0.00  0.00    +0.000 A 
ATOM     14  C   UNL     1       3.350   3.620  20.011  0.00  0.00    +0.000 A 
ATOM     15  C   UNL     1       2.451   4.046  20.990  0.00  0.00    +0.000 A 
ATOM     16  C   UNL     1       1.098   3.754  20.861  0.00  0.00    +0.000 A 
ATOM     17  C   UNL     1       0.652   3.014  19.766  0.00  0.00    +0.000 A 
ATOM     18  C   UNL     1       1.552   2.590  18.781  0.00  0.00    +0.000 A 
ENDBRANCH  12  13
ENDBRANCH  11  12
ENDBRANCH  10  11
ENDBRANCH   2   5
BRANCH   3  19
ATOM     19  C   UNL     1       1.879   8.686  17.907  0.00  0.00    +0.000 C 
BRANCH  19  20
ATOM     20  C   UNL     1       1.346   9.006  19.289  0.00  0.00    +0.000 A 
ATOM     21  C   UNL     1       1.602   8.079  20.322  0.00  0.00    +0.000 A 
ATOM     22  C   UNL     1       1.292   8.362  21.653  0.00  0.00    +0.000 A 
ATOM     23  C   UNL     1       0.729   9.585  21.986  0.00  0.00    +0.000 A 
ATOM     24  C   UNL     1       0.420  10.495  20.980  0.00  0.00    +0.000 A 
ATOM     25  C   UNL     1       0.687  10.213  19.622  0.00  0.00    +0.000 A 
BRANCH  25  26
ATOM     26  C   UNL     1       0.179  11.215  18.613  0.00  0.00    +0.000 C 
BRANCH  26  27
ATOM     27  N   UNL     1      -1.205  11.082  18.191  0.00  0.00    +0.000 N 
ATOM     28  C   UNL     1      -2.301  11.796  18.591  0.00  0.00    +0.000 A 
ATOM     29  C   UNL     1      -3.382  11.082  18.126  0.00  0.00    +0.000 A 
ATOM     30  N   UNL     1      -2.976   9.977  17.428  0.00  0.00    +0.000 NA
ATOM     31  C   UNL     1      -1.664  10.016  17.460  0.00  0.00    +0.000 A 
ENDBRANCH  26  27
ENDBRANCH  25  26
ENDBRANCH  19  20
ENDBRANCH   3  19
TORSDOF 8
ENDMDL
