MODEL 1
REMARK VINA RESULT:      -7.3      0.000      0.000
REMARK  Name = 
REMARK  4 active torsions:
REMARK  status: ('A' for Active; 'I' for Inactive)
REMARK    1  A    between atoms: C_1  and  C_2
REMARK    2  A    between atoms: C_6  and  C_7
REMARK    3  A    between atoms: C_15  and  C_16
REMARK    4  A    between atoms: C_21  and  C_22
REMARK                            x       y       z     vdW  Elec       q    Type
REMARK                         _______ _______ _______ _____ _____    ______ ____
ROOT
ATOM      1  C   UNL     1      -0.132  12.636  20.050  0.00  0.00    +0.000 C 
ATOM      2  O   UNL     1      -1.001  12.707  19.178  0.00  0.00    +0.000 OA
ATOM      3  N   UNL     1       0.842  13.647  20.150  0.00  0.00    +0.000 N 
ATOM      4  C   UNL     1       0.794  14.788  19.215  0.00  0.00    +0.000 C 
ATOM      5  C   UNL     1       2.190  15.216  18.687  0.00  0.00    +0.000 C 
ATOM      6  N   UNL     1       3.198  15.306  19.773  0.00  0.00    +0.000 N 
ATOM      7  C   UNL     1       4.416  15.859  19.506  0.00  0.00    +0.000 A 
ATOM      8  N   UNL     1       5.609  15.492  19.924  0.00  0.00    +0.000 NA
ATOM      9  C   UNL     1       6.448  16.449  19.407  0.00  0.00    +0.000 A 
ATOM     10  C   UNL     1       7.911  16.455  19.638  0.00  0.00    +0.000 C 
ATOM     11  N   UNL     1       5.842  17.403  18.694  0.00  0.00    +0.000 NA
ATOM     12  N   UNL     1       4.565  17.017  18.788  0.00  0.00    +0.000 N 
ATOM     13  C   UNL     1       3.232  14.094  20.619  0.00  0.00    +0.000 C 
ATOM     14  C   UNL     1       1.829  13.845  21.221  0.00  0.00    +0.000 C 
ATOM     15  H   UNL     1       3.839  17.601  18.380  0.00  0.00    +0.000 HD
ENDROOT
BRANCH   1  21
ATOM     16  C   UNL     1       2.501   6.439  19.658  0.00  0.00    +0.000 C 
ATOM     17  C   UNL     1       1.803   7.728  19.963  0.00  0.00    +0.000 A 
ATOM     18  C   UNL     1       1.760   8.761  19.034  0.00  0.00    +0.000 A 
ATOM     19  C   UNL     1       1.019   9.916  19.305  0.00  0.00    +0.000 A 
ATOM     20  C   UNL     1       0.436  10.174  20.564  0.00  0.00    +0.000 A 
ATOM     21  C   UNL     1      -0.159  11.422  20.959  0.00  0.00    +0.000 A 
ATOM     22  C   UNL     1      -0.858  11.486  22.199  0.00  0.00    +0.000 A 
ATOM     23  C   UNL     1      -1.596  12.691  22.730  0.00  0.00    +0.000 C 
ATOM     24  C   UNL     1      -0.851  10.369  23.054  0.00  0.00    +0.000 A 
ATOM     25  C   UNL     1      -0.202   9.194  22.702  0.00  0.00    +0.000 A 
ATOM     26  C   UNL     1       0.448   9.087  21.475  0.00  0.00    +0.000 A 
ATOM     27  C   UNL     1       1.102   7.884  21.160  0.00  0.00    +0.000 A 
ENDBRANCH   1  21
TORSDOF 1
ENDMDL
MODEL 2
REMARK VINA RESULT:      -7.2      0.789      1.086
REMARK  Name = 
REMARK  4 active torsions:
REMARK  status: ('A' for Active; 'I' for Inactive)
REMARK    1  A    between atoms: C_1  and  C_2
REMARK    2  A    between atoms: C_6  and  C_7
REMARK    3  A    between atoms: C_15  and  C_16
REMARK    4  A    between atoms: C_21  and  C_22
REMARK                            x       y       z     vdW  Elec       q    Type
REMARK                         _______ _______ _______ _____ _____    ______ ____
ROOT
ATOM      1  C   UNL     1       0.233  12.010  19.465  0.00  0.00    +0.000 C 
ATOM      2  O   UNL     1      -0.637  12.106  18.597  0.00  0.00    +0.000 OA
ATOM      3  N   UNL     1       1.077  13.103  19.733  0.00  0.00    +0.000 N 
ATOM      4  C   UNL     1       0.893  14.357  18.977  0.00  0.00    +0.000 C 
ATOM      5  C   UNL     1       2.229  15.022  18.545  0.00  0.00    +0.000 C 
ATOM      6  N   UNL     1       3.217  15.068  19.652  0.00  0.00    +0.000 N 
ATOM      7  C   UNL     1       4.360  15.796  19.494  0.00  0.00    +0.000 A 
ATOM      8  N   UNL     1       5.587  15.515  19.876  0.00  0.00    +0.000 NA
ATOM      9  C   UNL     1       6.306  16.632  19.523  0.00  0.00    +0.000 A 
ATOM     10  C   UNL     1       7.756  16.778  19.781  0.00  0.00    +0.000 C 
ATOM     11  N   UNL     1       5.589  17.603  18.948  0.00  0.00    +0.000 NA
ATOM     12  N   UNL     1       4.368  17.058  18.959  0.00  0.00    +0.000 N 
ATOM     13  C   UNL     1       3.396  13.756  20.309  0.00  0.00    +0.000 C 
ATOM     14  C   UNL     1       2.032  13.255  20.841  0.00  0.00    +0.000 C 
ATOM     15  H   UNL     1       3.578  17.606  18.628  0.00  0.00    +0.000 HD
ENDROOT
BRANCH   1  21
ATOM     16  C   UNL     1       3.376   6.206  18.074  0.00  0.00    +0.000 C 
ATOM     17  C   UNL     1       2.582   7.367  18.588  0.00  0.00    +0.000 A 
ATOM     18  C   UNL     1       2.409   8.516  17.826  0.00  0.00    +0.000 A 
ATOM     19  C   UNL     1       1.582   9.545  18.288  0.00  0.00    +0.000 A 
ATOM     20  C   UNL     1       1.034   9.562  19.589  0.00  0.00    +0.000 A 
ATOM     21  C   UNL     1       0.351  10.678  20.184  0.00  0.00    +0.000 A 
ATOM     22  C   UNL     1      -0.296  10.497  21.440  0.00  0.00    +0.000 A 
ATOM     23  C   UNL     1      -1.112  11.537  22.166  0.00  0.00    +0.000 C 
ATOM     24  C   UNL     1      -0.155   9.272  22.118  0.00  0.00    +0.000 A 
ATOM     25  C   UNL     1       0.578   8.226  21.575  0.00  0.00    +0.000 A 
ATOM     26  C   UNL     1       1.181   8.360  20.326  0.00  0.00    +0.000 A 
ATOM     27  C   UNL     1       1.923   7.281  19.816  0.00  0.00    +0.000 A 
ENDBRANCH   1  21
TORSDOF 1
ENDMDL
MODEL 3
REMARK VINA RESULT:      -7.0      4.104      7.353
REMARK  Name = 
REMARK  4 active torsions:
REMARK  status: ('A' for Active; 'I' for Inactive)
REMARK    1  A    between atoms: C_1  and  C_2
REMARK    2  A    between atoms: C_6  and  C_7
REMARK    3  A    between atoms: C_15  and  C_16
REMARK    4  A    between atoms: C_21  and  C_22
REMARK                            x       y       z     vdW  Elec       q    Type
REMARK                         _______ _______ _______ _____ _____    ______ ____
ROOT
ATOM      1  C   UNL     1      -0.508  12.143  19.312  0.00  0.00    +0.000 C 
ATOM      2  O   UNL     1      -0.255  12.732  18.259  0.00  0.00    +0.000 OA
ATOM      3  N   UNL     1       0.313  11.081  19.734  0.00  0.00    +0.000 N 
ATOM      4  C   UNL     1       1.477  10.699  18.910  0.00  0.00    +0.000 C 
ATOM      5  C   UNL     1       1.673   9.164  18.786  0.00  0.00    +0.000 C 
ATOM      6  N   UNL     1       1.546   8.474  20.094  0.00  0.00    +0.000 N 
ATOM      7  C   UNL     1       1.887   7.156  20.187  0.00  0.00    +0.000 A 
ATOM      8  N   UNL     1       1.302   6.189  20.861  0.00  0.00    +0.000 NA
ATOM      9  C   UNL     1       2.116   5.101  20.649  0.00  0.00    +0.000 A 
ATOM     10  C   UNL     1       1.857   3.769  21.239  0.00  0.00    +0.000 C 
ATOM     11  N   UNL     1       3.185   5.340  19.884  0.00  0.00    +0.000 NA
ATOM     12  N   UNL     1       3.026   6.642  19.623  0.00  0.00    +0.000 N 
ATOM     13  C   UNL     1       0.318   8.856  20.823  0.00  0.00    +0.000 C 
ATOM     14  C   UNL     1       0.297  10.389  21.031  0.00  0.00    +0.000 C 
ATOM     15  H   UNL     1       3.742   7.133  19.094  0.00  0.00    +0.000 HD
ENDROOT
BRANCH   1  21
ATOM     16  C   UNL     1      -7.138  11.116  18.620  0.00  0.00    +0.000 C 
ATOM     17  C   UNL     1      -5.734  11.505  18.967  0.00  0.00    +0.000 A 
ATOM     18  C   UNL     1      -4.667  11.158  18.148  0.00  0.00    +0.000 A 
ATOM     19  C   UNL     1      -3.379  11.617  18.442  0.00  0.00    +0.000 A 
ATOM     20  C   UNL     1      -3.061  12.288  19.642  0.00  0.00    +0.000 A 
ATOM     21  C   UNL     1      -1.730  12.601  20.086  0.00  0.00    +0.000 A 
ATOM     22  C   UNL     1      -1.567  13.428  21.235  0.00  0.00    +0.000 A 
ATOM     23  C   UNL     1      -0.249  13.909  21.791  0.00  0.00    +0.000 C 
ATOM     24  C   UNL     1      -2.701  13.821  21.969  0.00  0.00    +0.000 A 
ATOM     25  C   UNL     1      -3.979  13.444  21.581  0.00  0.00    +0.000 A 
ATOM     26  C   UNL     1      -4.171  12.676  20.435  0.00  0.00    +0.000 A 
ATOM     27  C   UNL     1      -5.479  12.306  20.082  0.00  0.00    +0.000 A 
ENDBRANCH   1  21
TORSDOF 1
ENDMDL
MODEL 4
REMARK VINA RESULT:      -6.7      3.618      7.009
REMARK  Name = 
REMARK  4 active torsions:
REMARK  status: ('A' for Active; 'I' for Inactive)
REMARK    1  A    between atoms: C_1  and  C_2
REMARK    2  A    between atoms: C_6  and  C_7
REMARK    3  A    between atoms: C_15  and  C_16
REMARK    4  A    between atoms: C_21  and  C_22
REMARK                            x       y       z     vdW  Elec       q    Type
REMARK                         _______ _______ _______ _____ _____    ______ ____
ROOT
ATOM      1  C   UNL     1      -0.359  11.717  21.948  0.00  0.00    +0.000 C 
ATOM      2  O   UNL     1      -0.414  11.755  23.179  0.00  0.00    +0.000 OA
ATOM      3  N   UNL     1      -0.041  10.510  21.299  0.00  0.00    +0.000 N 
ATOM      4  C   UNL     1       0.206   9.300  22.107  0.00  0.00    +0.000 C 
ATOM      5  C   UNL     1       1.400   8.448  21.598  0.00  0.00    +0.000 C 
ATOM      6  N   UNL     1       1.363   8.252  20.127  0.00  0.00    +0.000 N 
ATOM      7  C   UNL     1       2.225   7.364  19.553  0.00  0.00    +0.000 A 
ATOM      8  N   UNL     1       2.888   7.459  18.420  0.00  0.00    +0.000 NA
ATOM      9  C   UNL     1       3.533   6.250  18.313  0.00  0.00    +0.000 A 
ATOM     10  C   UNL     1       4.398   5.891  17.167  0.00  0.00    +0.000 C 
ATOM     11  N   UNL     1       3.300   5.399  19.317  0.00  0.00    +0.000 NA
ATOM     12  N   UNL     1       2.462   6.118  20.071  0.00  0.00    +0.000 N 
ATOM     13  C   UNL     1       1.185   9.520  19.388  0.00  0.00    +0.000 C 
ATOM     14  C   UNL     1      -0.114  10.214  19.860  0.00  0.00    +0.000 C 
ATOM     15  H   UNL     1       2.054   5.693  20.900  0.00  0.00    +0.000 HD
ENDROOT
BRANCH   1  21
ATOM     16  C   UNL     1       3.363  15.615  17.893  0.00  0.00    +0.000 C 
ATOM     17  C   UNL     1       2.357  14.937  18.771  0.00  0.00    +0.000 A 
ATOM     18  C   UNL     1       2.696  13.821  19.526  0.00  0.00    +0.000 A 
ATOM     19  C   UNL     1       1.767  13.266  20.412  0.00  0.00    +0.000 A 
ATOM     20  C   UNL     1       0.418  13.677  20.464  0.00  0.00    +0.000 A 
ATOM     21  C   UNL     1      -0.621  13.013  21.203  0.00  0.00    +0.000 A 
ATOM     22  C   UNL     1      -1.899  13.635  21.300  0.00  0.00    +0.000 A 
ATOM     23  C   UNL     1      -3.073  13.111  22.090  0.00  0.00    +0.000 C 
ATOM     24  C   UNL     1      -2.148  14.817  20.579  0.00  0.00    +0.000 A 
ATOM     25  C   UNL     1      -1.163  15.408  19.799  0.00  0.00    +0.000 A 
ATOM     26  C   UNL     1       0.110  14.848  19.725  0.00  0.00    +0.000 A 
ATOM     27  C   UNL     1       1.075  15.471  18.917  0.00  0.00    +0.000 A 
ENDBRANCH   1  21
TORSDOF 1
ENDMDL
MODEL 5
REMARK VINA RESULT:      -6.6      4.203      7.503
REMARK  Name = 
REMARK  4 active torsions:
REMARK  status: ('A' for Active; 'I' for Inactive)
REMARK    1  A    between atoms: C_1  and  C_2
REMARK    2  A    between atoms: C_6  and  C_7
REMARK    3  A    between atoms: C_15  and  C_16
REMARK    4  A    between atoms: C_21  and  C_22
REMARK                            x       y       z     vdW  Elec       q    Type
REMARK                         _______ _______ _______ _____ _____    ______ ____
ROOT
ATOM      1  C   UNL     1      -0.948  12.272  19.611  0.00  0.00    +0.000 C 
ATOM      2  O   UNL     1      -0.676  12.950  18.618  0.00  0.00    +0.000 OA
ATOM      3  N   UNL     1      -0.088  11.229  20.002  0.00  0.00    +0.000 N 
ATOM      4  C   UNL     1       1.139  10.976  19.221  0.00  0.00    +0.000 C 
ATOM      5  C   UNL     1       1.433   9.468  19.000  0.00  0.00    +0.000 C 
ATOM      6  N   UNL     1       1.280   8.677  20.247  0.00  0.00    +0.000 N 
ATOM      7  C   UNL     1       1.694   7.377  20.265  0.00  0.00    +0.000 A 
ATOM      8  N   UNL     1       1.135   6.331  20.834  0.00  0.00    +0.000 NA
ATOM      9  C   UNL     1       2.022   5.310  20.593  0.00  0.00    +0.000 A 
ATOM     10  C   UNL     1       1.814   3.925  21.072  0.00  0.00    +0.000 C 
ATOM     11  N   UNL     1       3.114   5.665  19.909  0.00  0.00    +0.000 NA
ATOM     12  N   UNL     1       2.890   6.972  19.732  0.00  0.00    +0.000 N 
ATOM     13  C   UNL     1      -0.006   8.934  20.929  0.00  0.00    +0.000 C 
ATOM     14  C   UNL     1      -0.130  10.443  21.244  0.00  0.00    +0.000 C 
ATOM     15  H   UNL     1       3.602   7.539  19.280  0.00  0.00    +0.000 HD
ENDROOT
BRANCH   1  21
ATOM     16  C   UNL     1      -2.345  15.320  25.463  0.00  0.00    +0.000 C 
ATOM     17  C   UNL     1      -2.291  14.599  24.152  0.00  0.00    +0.000 A 
ATOM     18  C   UNL     1      -1.080  14.215  23.590  0.00  0.00    +0.000 A 
ATOM     19  C   UNL     1      -1.061  13.457  22.415  0.00  0.00    +0.000 A 
ATOM     20  C   UNL     1      -2.221  13.196  21.654  0.00  0.00    +0.000 A 
ATOM     21  C   UNL     1      -2.234  12.601  20.345  0.00  0.00    +0.000 A 
ATOM     22  C   UNL     1      -3.486  12.243  19.767  0.00  0.00    +0.000 A 
ATOM     23  C   UNL     1      -3.675  11.551  18.439  0.00  0.00    +0.000 C 
ATOM     24  C   UNL     1      -4.677  12.582  20.435  0.00  0.00    +0.000 A 
ATOM     25  C   UNL     1      -4.658  13.233  21.661  0.00  0.00    +0.000 A 
ATOM     26  C   UNL     1      -3.447  13.551  22.272  0.00  0.00    +0.000 A 
ATOM     27  C   UNL     1      -3.470  14.218  23.508  0.00  0.00    +0.000 A 
ENDBRANCH   1  21
TORSDOF 1
ENDMDL
MODEL 6
REMARK VINA RESULT:      -6.6      4.619      8.118
REMARK  Name = 
REMARK  4 active torsions:
REMARK  status: ('A' for Active; 'I' for Inactive)
REMARK    1  A    between atoms: C_1  and  C_2
REMARK    2  A    between atoms: C_6  and  C_7
REMARK    3  A    between atoms: C_15  and  C_16
REMARK    4  A    between atoms: C_21  and  C_22
REMARK                            x       y       z     vdW  Elec       q    Type
REMARK                         _______ _______ _______ _____ _____    ______ ____
ROOT
ATOM      1  C   UNL     1       1.331  10.304  18.351  0.00  0.00    +0.000 C 
ATOM      2  O   UNL     1       1.727  10.586  17.218  0.00  0.00    +0.000 OA
ATOM      3  N   UNL     1       1.843   9.171  19.010  0.00  0.00    +0.000 N 
ATOM      4  C   UNL     1       2.863   8.345  18.335  0.00  0.00    +0.000 C 
ATOM      5  C   UNL     1       2.646   6.819  18.518  0.00  0.00    +0.000 C 
ATOM      6  N   UNL     1       2.345   6.459  19.927  0.00  0.00    +0.000 N 
ATOM      7  C   UNL     1       2.325   5.144  20.288  0.00  0.00    +0.000 A 
ATOM      8  N   UNL     1       1.508   4.515  21.105  0.00  0.00    +0.000 NA
ATOM      9  C   UNL     1       2.005   3.235  21.148  0.00  0.00    +0.000 A 
ATOM     10  C   UNL     1       1.405   2.160  21.970  0.00  0.00    +0.000 C 
ATOM     11  N   UNL     1       3.098   3.031  20.407  0.00  0.00    +0.000 NA
ATOM     12  N   UNL     1       3.287   4.251  19.892  0.00  0.00    +0.000 N 
ATOM     13  C   UNL     1       1.262   7.284  20.505  0.00  0.00    +0.000 C 
ATOM     14  C   UNL     1       1.648   8.779  20.414  0.00  0.00    +0.000 C 
ATOM     15  H   UNL     1       4.106   4.424  19.315  0.00  0.00    +0.000 HD
ENDROOT
BRANCH   1  21
ATOM     16  C   UNL     1      -5.388  10.639  17.857  0.00  0.00    +0.000 C 
ATOM     17  C   UNL     1      -3.919  10.781  18.109  0.00  0.00    +0.000 A 
ATOM     18  C   UNL     1      -2.992  10.004  17.426  0.00  0.00    +0.000 A 
ATOM     19  C   UNL     1      -1.623  10.225  17.608  0.00  0.00    +0.000 A 
ATOM     20  C   UNL     1      -1.112  11.095  18.594  0.00  0.00    +0.000 A 
ATOM     21  C   UNL     1       0.274  11.207  18.960  0.00  0.00    +0.000 A 
ATOM     22  C   UNL     1       0.666  12.246  19.853  0.00  0.00    +0.000 A 
ATOM     23  C   UNL     1       2.081  12.547  20.283  0.00  0.00    +0.000 C 
ATOM     24  C   UNL     1      -0.320  13.059  20.442  0.00  0.00    +0.000 A 
ATOM     25  C   UNL     1      -1.666  12.889  20.148  0.00  0.00    +0.000 A 
ATOM     26  C   UNL     1      -2.073  11.913  19.241  0.00  0.00    +0.000 A 
ATOM     27  C   UNL     1      -3.445  11.766  18.978  0.00  0.00    +0.000 A 
ENDBRANCH   1  21
TORSDOF 1
ENDMDL
MODEL 7
REMARK VINA RESULT:      -6.5      3.559      7.369
REMARK  Name = 
REMARK  4 active torsions:
REMARK  status: ('A' for Active; 'I' for Inactive)
REMARK    1  A    between atoms: C_1  and  C_2
REMARK    2  A    between atoms: C_6  and  C_7
REMARK    3  A    between atoms: C_15  and  C_16
REMARK    4  A    between atoms: C_21  and  C_22
REMARK                            x       y       z     vdW  Elec       q    Type
REMARK                         _______ _______ _______ _____ _____    ______ ____
ROOT
ATOM      1  C   UNL     1       0.564  11.454  20.721  0.00  0.00    +0.000 C 
ATOM      2  O   UNL     1       0.319  11.398  21.928  0.00  0.00    +0.000 OA
ATOM      3  N   UNL     1       0.826  10.271  20.005  0.00  0.00    +0.000 N 
ATOM      4  C   UNL     1       0.786   8.977  20.714  0.00  0.00    +0.000 C 
ATOM      5  C   UNL     1       1.928   8.009  20.301  0.00  0.00    +0.000 C 
ATOM      6  N   UNL     1       2.102   7.941  18.828  0.00  0.00    +0.000 N 
ATOM      7  C   UNL     1       2.925   6.990  18.299  0.00  0.00    +0.000 A 
ATOM      8  N   UNL     1       3.767   7.083  17.292  0.00  0.00    +0.000 NA
ATOM      9  C   UNL     1       4.262   5.808  17.158  0.00  0.00    +0.000 A 
ATOM     10  C   UNL     1       5.246   5.425  16.120  0.00  0.00    +0.000 C 
ATOM     11  N   UNL     1       3.766   4.919  18.023  0.00  0.00    +0.000 NA
ATOM     12  N   UNL     1       2.916   5.685  18.716  0.00  0.00    +0.000 N 
ATOM     13  C   UNL     1       2.206   9.277  18.205  0.00  0.00    +0.000 C 
ATOM     14  C   UNL     1       0.946  10.107  18.549  0.00  0.00    +0.000 C 
ATOM     15  H   UNL     1       2.331   5.256  19.428  0.00  0.00    +0.000 HD
ENDROOT
BRANCH   1  21
ATOM     16  C   UNL     1       5.168  16.372  20.398  0.00  0.00    +0.000 C 
ATOM     17  C   UNL     1       3.989  15.450  20.349  0.00  0.00    +0.000 A 
ATOM     18  C   UNL     1       3.980  14.255  21.058  0.00  0.00    +0.000 A 
ATOM     19  C   UNL     1       2.830  13.460  21.074  0.00  0.00    +0.000 A 
ATOM     20  C   UNL     1       1.709  13.717  20.257  0.00  0.00    +0.000 A 
ATOM     21  C   UNL     1       0.591  12.830  20.083  0.00  0.00    +0.000 A 
ATOM     22  C   UNL     1      -0.547  13.293  19.360  0.00  0.00    +0.000 A 
ATOM     23  C   UNL     1      -1.825  12.520  19.146  0.00  0.00    +0.000 C 
ATOM     24  C   UNL     1      -0.504  14.556  18.740  0.00  0.00    +0.000 A 
ATOM     25  C   UNL     1       0.614  15.373  18.843  0.00  0.00    +0.000 A 
ATOM     26  C   UNL     1       1.721  14.966  19.584  0.00  0.00    +0.000 A 
ATOM     27  C   UNL     1       2.835  15.817  19.655  0.00  0.00    +0.000 A 
ENDBRANCH   1  21
TORSDOF 1
ENDMDL
MODEL 8
REMARK VINA RESULT:      -6.5      4.111      7.436
REMARK  Name = 
REMARK  4 active torsions:
REMARK  status: ('A' for Active; 'I' for Inactive)
REMARK    1  A    between atoms: C_1  and  C_2
REMARK    2  A    between atoms: C_6  and  C_7
REMARK    3  A    between atoms: C_15  and  C_16
REMARK    4  A    between atoms: C_21  and  C_22
REMARK                            x       y       z     vdW  Elec       q    Type
REMARK                         _______ _______ _______ _____ _____    ______ ____
ROOT
ATOM      1  C   UNL     1      -0.724  11.624  22.226  0.00  0.00    +0.000 C 
ATOM      2  O   UNL     1      -0.747  11.563  23.457  0.00  0.00    +0.000 OA
ATOM      3  N   UNL     1      -0.322  10.503  21.477  0.00  0.00    +0.000 N 
ATOM      4  C   UNL     1       0.052   9.262  22.183  0.00  0.00    +0.000 C 
ATOM      5  C   UNL     1       1.300   8.559  21.584  0.00  0.00    +0.000 C 
ATOM      6  N   UNL     1       1.239   8.473  20.103  0.00  0.00    +0.000 N 
ATOM      7  C   UNL     1       2.158   7.711  19.442  0.00  0.00    +0.000 A 
ATOM      8  N   UNL     1       2.778   7.950  18.306  0.00  0.00    +0.000 NA
ATOM      9  C   UNL     1       3.521   6.814  18.092  0.00  0.00    +0.000 A 
ATOM     10  C   UNL     1       4.381   6.622  16.902  0.00  0.00    +0.000 C 
ATOM     11  N   UNL     1       3.392   5.872  19.030  0.00  0.00    +0.000 NA
ATOM     12  N   UNL     1       2.516   6.455  19.856  0.00  0.00    +0.000 N 
ATOM     13  C   UNL     1       0.932   9.773  19.469  0.00  0.00    +0.000 C 
ATOM     14  C   UNL     1      -0.409  10.312  20.022  0.00  0.00    +0.000 C 
ATOM     15  H   UNL     1       2.170   5.934  20.658  0.00  0.00    +0.000 HD
ENDROOT
BRANCH   1  21
ATOM     16  C   UNL     1      -6.587  14.857  21.406  0.00  0.00    +0.000 C 
ATOM     17  C   UNL     1      -5.184  14.332  21.446  0.00  0.00    +0.000 A 
ATOM     18  C   UNL     1      -4.905  13.060  21.929  0.00  0.00    +0.000 A 
ATOM     19  C   UNL     1      -3.601  12.557  21.864  0.00  0.00    +0.000 A 
ATOM     20  C   UNL     1      -2.494  13.345  21.483  0.00  0.00    +0.000 A 
ATOM     21  C   UNL     1      -1.118  12.945  21.590  0.00  0.00    +0.000 A 
ATOM     22  C   UNL     1      -0.114  13.775  21.012  0.00  0.00    +0.000 A 
ATOM     23  C   UNL     1       1.363  13.469  20.973  0.00  0.00    +0.000 C 
ATOM     24  C   UNL     1      -0.480  15.014  20.455  0.00  0.00    +0.000 A 
ATOM     25  C   UNL     1      -1.804  15.432  20.431  0.00  0.00    +0.000 A 
ATOM     26  C   UNL     1      -2.811  14.619  20.945  0.00  0.00    +0.000 A 
ATOM     27  C   UNL     1      -4.136  15.083  20.911  0.00  0.00    +0.000 A 
ENDBRANCH   1  21
TORSDOF 1
ENDMDL
MODEL 9
REMARK VINA RESULT:      -6.5      6.686      9.366
REMARK  Name = 
REMARK  4 active torsions:
REMARK  status: ('A' for Active; 'I' for Inactive)
REMARK    1  A    between atoms: C_1  and  C_2
REMARK    2  A    between atoms: C_6  and  C_7
REMARK    3  A    between atoms: C_15  and  C_16
REMARK    4  A    between atoms: C_21  and  C_22
REMARK                            x       y       z     vdW  Elec       q    Type
REMARK                         _______ _______ _______ _____ _____    ______ ____
ROOT
ATOM      1  C   UNL     1       9.458  14.867  22.145  0.00  0.00    +0.000 C 
ATOM      2  O   UNL     1      10.524  15.343  22.540  0.00  0.00    +0.000 OA
ATOM      3  N   UNL     1       8.429  14.596  23.065  0.00  0.00    +0.000 N 
ATOM      4  C   UNL     1       8.641  14.903  24.494  0.00  0.00    +0.000 C 
ATOM      5  C   UNL     1       8.097  13.808  25.451  0.00  0.00    +0.000 C 
ATOM      6  N   UNL     1       6.731  13.364  25.076  0.00  0.00    +0.000 N 
ATOM      7  C   UNL     1       6.037  12.556  25.929  0.00  0.00    +0.000 A 
ATOM      8  N   UNL     1       5.256  11.532  25.658  0.00  0.00    +0.000 NA
ATOM      9  C   UNL     1       4.771  11.154  26.888  0.00  0.00    +0.000 A 
ATOM     10  C   UNL     1       3.822  10.033  27.074  0.00  0.00    +0.000 C 
ATOM     11  N   UNL     1       5.200  11.895  27.913  0.00  0.00    +0.000 NA
ATOM     12  N   UNL     1       5.979  12.779  27.280  0.00  0.00    +0.000 N 
ATOM     13  C   UNL     1       6.622  13.005  23.646  0.00  0.00    +0.000 C 
ATOM     14  C   UNL     1       7.038  14.216  22.778  0.00  0.00    +0.000 C 
ATOM     15  H   UNL     1       6.409  13.530  27.813  0.00  0.00    +0.000 HD
ENDROOT
BRANCH   1  21
ATOM     16  C   UNL     1       8.940   9.209  18.510  0.00  0.00    +0.000 C 
ATOM     17  C   UNL     1       9.066  10.586  19.086  0.00  0.00    +0.000 A 
ATOM     18  C   UNL     1       9.300  10.780  20.442  0.00  0.00    +0.000 A 
ATOM     19  C   UNL     1       9.512  12.071  20.938  0.00  0.00    +0.000 A 
ATOM     20  C   UNL     1       9.331  13.231  20.156  0.00  0.00    +0.000 A 
ATOM     21  C   UNL     1       9.336  14.578  20.660  0.00  0.00    +0.000 A 
ATOM     22  C   UNL     1       9.309  15.658  19.732  0.00  0.00    +0.000 A 
ATOM     23  C   UNL     1       9.380  17.123  20.087  0.00  0.00    +0.000 C 
ATOM     24  C   UNL     1       9.161  15.385  18.359  0.00  0.00    +0.000 A 
ATOM     25  C   UNL     1       9.071  14.083  17.887  0.00  0.00    +0.000 A 
ATOM     26  C   UNL     1       9.144  13.006  18.768  0.00  0.00    +0.000 A 
ATOM     27  C   UNL     1       9.039  11.704  18.252  0.00  0.00    +0.000 A 
ENDBRANCH   1  21
TORSDOF 1
ENDMDL
