MODEL 1
REMARK VINA RESULT:      -9.6      0.000      0.000
REMARK  Name = 
REMARK  3 active torsions:
REMARK  status: ('A' for Active; 'I' for Inactive)
REMARK    1  A    between atoms: C_1  and  C_2
REMARK    2  A    between atoms: C_8  and  C_10
REMARK    3  A    between atoms: C_14  and  C_15
REMARK                            x       y       z     vdW  Elec       q    Type
REMARK                         _______ _______ _______ _____ _____    ______ ____
ROOT
ATOM      1  C   UNL     1       2.612   4.873  20.239  0.00  0.00    +0.000 A 
ATOM      2  C   UNL     1       1.908   4.051  21.097  0.00  0.00    +0.000 A 
ATOM      3  N   UNL     1       2.548   2.851  21.081  0.00  0.00    +0.000 N 
ATOM      4  N   UNL     1       3.607   2.815  20.265  0.00  0.00    +0.000 NA
ATOM      5  C   UNL     1       3.666   4.044  19.722  0.00  0.00    +0.000 A 
ATOM      6  H   UNL     1       2.324   2.010  21.604  0.00  0.00    +0.000 HD
ENDROOT
BRANCH   1  14
ATOM      7  C   UNL     1      -0.749  10.773  22.900  0.00  0.00    +0.000 C 
ATOM      8  C   UNL     1      -0.020  10.120  21.766  0.00  0.00    +0.000 A 
ATOM      9  C   UNL     1       0.218  10.819  20.583  0.00  0.00    +0.000 A 
ATOM     10  C   UNL     1       0.901  10.179  19.571  0.00  0.00    +0.000 A 
ATOM     11  N   UNL     1       1.362   8.918  19.669  0.00  0.00    +0.000 NA
ATOM     12  C   UNL     1       1.149   8.239  20.807  0.00  0.00    +0.000 A 
ATOM     13  N   UNL     1       1.628   6.927  20.935  0.00  0.00    +0.000 N 
ATOM     14  C   UNL     1       2.367   6.283  19.957  0.00  0.00    +0.000 C 
ATOM     15  O   UNL     1       2.792   6.779  18.922  0.00  0.00    +0.000 OA
ATOM     16  C   UNL     1       0.449   8.802  21.874  0.00  0.00    +0.000 A 
ATOM     17  H   UNL     1       1.370   6.412  21.758  0.00  0.00    +0.000 HD
ENDBRANCH   1  14
BRANCH   5  18
ATOM     18  C   UNL     1       4.674   4.354  18.700  0.00  0.00    +0.000 A 
ATOM     19  C   UNL     1       5.930   4.872  19.059  0.00  0.00    +0.000 A 
ATOM     20  C   UNL     1       6.912   5.108  18.088  0.00  0.00    +0.000 A 
ATOM     21  C   UNL     1       6.646   4.835  16.748  0.00  0.00    +0.000 A 
ATOM     22  C   UNL     1       5.404   4.317  16.383  0.00  0.00    +0.000 A 
ATOM     23  C   UNL     1       4.429   4.081  17.347  0.00  0.00    +0.000 A 
ATOM     24  O   UNL     1       5.061   4.003  15.093  0.00  0.00    +0.000 OA
ATOM     25  C   UNL     1       6.219   3.882  14.270  0.00  0.00    +0.000 C 
ATOM     26  C   UNL     1       7.169   5.046  14.498  0.00  0.00    +0.000 C 
ATOM     27  O   UNL     1       7.653   5.071  15.847  0.00  0.00    +0.000 OA
ENDBRANCH   5  18
TORSDOF 2
ENDMDL
MODEL 2
REMARK VINA RESULT:      -8.8      2.075      7.503
REMARK  Name = 
REMARK  3 active torsions:
REMARK  status: ('A' for Active; 'I' for Inactive)
REMARK    1  A    between atoms: C_1  and  C_2
REMARK    2  A    between atoms: C_8  and  C_10
REMARK    3  A    between atoms: C_14  and  C_15
REMARK                            x       y       z     vdW  Elec       q    Type
REMARK                         _______ _______ _______ _____ _____    ______ ____
ROOT
ATOM      1  C   UNL     1       3.437   4.484  19.684  0.00  0.00    +0.000 A 
ATOM      2  C   UNL     1       3.228   3.272  20.314  0.00  0.00    +0.000 A 
ATOM      3  N   UNL     1       2.057   3.396  20.994  0.00  0.00    +0.000 N 
ATOM      4  N   UNL     1       1.488   4.601  20.874  0.00  0.00    +0.000 NA
ATOM      5  C   UNL     1       2.321   5.297  20.081  0.00  0.00    +0.000 A 
ATOM      6  H   UNL     1       1.578   2.700  21.558  0.00  0.00    +0.000 HD
ENDROOT
BRANCH   1  14
ATOM      7  C   UNL     1       5.684   3.668  12.795  0.00  0.00    +0.000 C 
ATOM      8  C   UNL     1       5.982   4.123  14.191  0.00  0.00    +0.000 A 
ATOM      9  C   UNL     1       7.224   4.673  14.505  0.00  0.00    +0.000 A 
ATOM     10  C   UNL     1       7.447   5.085  15.802  0.00  0.00    +0.000 A 
ATOM     11  N   UNL     1       6.526   4.995  16.778  0.00  0.00    +0.000 NA
ATOM     12  C   UNL     1       5.323   4.477  16.485  0.00  0.00    +0.000 A 
ATOM     13  N   UNL     1       4.344   4.380  17.485  0.00  0.00    +0.000 N 
ATOM     14  C   UNL     1       4.523   4.840  18.779  0.00  0.00    +0.000 C 
ATOM     15  O   UNL     1       5.481   5.474  19.198  0.00  0.00    +0.000 OA
ATOM     16  C   UNL     1       5.018   4.015  15.205  0.00  0.00    +0.000 A 
ATOM     17  H   UNL     1       3.490   3.901  17.261  0.00  0.00    +0.000 HD
ENDBRANCH   1  14
BRANCH   5  18
ATOM     18  C   UNL     1       2.053   6.713  19.789  0.00  0.00    +0.000 A 
ATOM     19  C   UNL     1       2.292   7.243  18.510  0.00  0.00    +0.000 A 
ATOM     20  C   UNL     1       1.979   8.576  18.217  0.00  0.00    +0.000 A 
ATOM     21  C   UNL     1       1.428   9.394  19.202  0.00  0.00    +0.000 A 
ATOM     22  C   UNL     1       1.184   8.876  20.473  0.00  0.00    +0.000 A 
ATOM     23  C   UNL     1       1.495   7.551  20.764  0.00  0.00    +0.000 A 
ATOM     24  O   UNL     1       0.631   9.601  21.496  0.00  0.00    +0.000 OA
ATOM     25  C   UNL     1      -0.019  10.770  21.002  0.00  0.00    +0.000 C 
ATOM     26  C   UNL     1       0.862  11.497  20.000  0.00  0.00    +0.000 C 
ATOM     27  O   UNL     1       1.127  10.685  18.849  0.00  0.00    +0.000 OA
ENDBRANCH   5  18
TORSDOF 2
ENDMDL
MODEL 3
REMARK VINA RESULT:      -8.4      2.182      7.067
REMARK  Name = 
REMARK  3 active torsions:
REMARK  status: ('A' for Active; 'I' for Inactive)
REMARK    1  A    between atoms: C_1  and  C_2
REMARK    2  A    between atoms: C_8  and  C_10
REMARK    3  A    between atoms: C_14  and  C_15
REMARK                            x       y       z     vdW  Elec       q    Type
REMARK                         _______ _______ _______ _____ _____    ______ ____
ROOT
ATOM      1  C   UNL     1       3.401   4.109  19.766  0.00  0.00    +0.000 A 
ATOM      2  C   UNL     1       3.277   2.828  20.269  0.00  0.00    +0.000 A 
ATOM      3  N   UNL     1       2.118   2.812  20.980  0.00  0.00    +0.000 N 
ATOM      4  N   UNL     1       1.480   3.988  21.000  0.00  0.00    +0.000 NA
ATOM      5  C   UNL     1       2.252   4.811  20.269  0.00  0.00    +0.000 A 
ATOM      6  H   UNL     1       1.693   2.035  21.477  0.00  0.00    +0.000 HD
ENDROOT
BRANCH   1  14
ATOM      7  C   UNL     1       5.875   3.649  12.922  0.00  0.00    +0.000 C 
ATOM      8  C   UNL     1       6.078   4.136  14.324  0.00  0.00    +0.000 A 
ATOM      9  C   UNL     1       7.222   4.857  14.663  0.00  0.00    +0.000 A 
ATOM     10  C   UNL     1       7.359   5.291  15.964  0.00  0.00    +0.000 A 
ATOM     11  N   UNL     1       6.441   5.067  16.922  0.00  0.00    +0.000 NA
ATOM     12  C   UNL     1       5.331   4.383  16.605  0.00  0.00    +0.000 A 
ATOM     13  N   UNL     1       4.356   4.144  17.586  0.00  0.00    +0.000 N 
ATOM     14  C   UNL     1       4.443   4.620  18.883  0.00  0.00    +0.000 C 
ATOM     15  O   UNL     1       5.293   5.383  19.322  0.00  0.00    +0.000 OA
ATOM     16  C   UNL     1       5.120   3.888  15.319  0.00  0.00    +0.000 A 
ATOM     17  H   UNL     1       3.584   3.549  17.344  0.00  0.00    +0.000 HD
ENDBRANCH   1  14
BRANCH   5  18
ATOM     18  C   UNL     1       1.900   6.231  20.133  0.00  0.00    +0.000 A 
ATOM     19  C   UNL     1       1.331   6.938  21.205  0.00  0.00    +0.000 A 
ATOM     20  C   UNL     1       1.053   8.307  21.094  0.00  0.00    +0.000 A 
ATOM     21  C   UNL     1       1.336   8.980  19.907  0.00  0.00    +0.000 A 
ATOM     22  C   UNL     1       1.904   8.287  18.839  0.00  0.00    +0.000 A 
ATOM     23  C   UNL     1       2.181   6.928  18.950  0.00  0.00    +0.000 A 
ATOM     24  O   UNL     1       2.231   8.870  17.643  0.00  0.00    +0.000 OA
ATOM     25  C   UNL     1       2.303  10.289  17.767  0.00  0.00    +0.000 C 
ATOM     26  C   UNL     1       1.102  10.828  18.525  0.00  0.00    +0.000 C 
ATOM     27  O   UNL     1       1.057  10.322  19.865  0.00  0.00    +0.000 OA
ENDBRANCH   5  18
TORSDOF 2
ENDMDL
MODEL 4
REMARK VINA RESULT:      -8.2      4.196      6.813
REMARK  Name = 
REMARK  3 active torsions:
REMARK  status: ('A' for Active; 'I' for Inactive)
REMARK    1  A    between atoms: C_1  and  C_2
REMARK    2  A    between atoms: C_8  and  C_10
REMARK    3  A    between atoms: C_14  and  C_15
REMARK                            x       y       z     vdW  Elec       q    Type
REMARK                         _______ _______ _______ _____ _____    ______ ____
ROOT
ATOM      1  C   UNL     1       6.876   5.694  16.612  0.00  0.00    +0.000 A 
ATOM      2  C   UNL     1       7.398   5.301  15.394  0.00  0.00    +0.000 A 
ATOM      3  N   UNL     1       6.473   4.476  14.834  0.00  0.00    +0.000 N 
ATOM      4  N   UNL     1       5.392   4.281  15.597  0.00  0.00    +0.000 NA
ATOM      5  C   UNL     1       5.615   5.010  16.705  0.00  0.00    +0.000 A 
ATOM      6  H   UNL     1       6.506   4.011  13.932  0.00  0.00    +0.000 HD
ENDROOT
BRANCH   1  14
ATOM      7  C   UNL     1       8.431  12.761  17.516  0.00  0.00    +0.000 C 
ATOM      8  C   UNL     1       8.561  11.351  18.006  0.00  0.00    +0.000 A 
ATOM      9  C   UNL     1       9.285  11.068  19.164  0.00  0.00    +0.000 A 
ATOM     10  C   UNL     1       9.368   9.757  19.579  0.00  0.00    +0.000 A 
ATOM     11  N   UNL     1       8.776   8.735  18.933  0.00  0.00    +0.000 NA
ATOM     12  C   UNL     1       8.068   8.995  17.823  0.00  0.00    +0.000 A 
ATOM     13  N   UNL     1       7.436   7.947  17.138  0.00  0.00    +0.000 N 
ATOM     14  C   UNL     1       7.455   6.631  17.567  0.00  0.00    +0.000 C 
ATOM     15  O   UNL     1       7.913   6.217  18.624  0.00  0.00    +0.000 OA
ATOM     16  C   UNL     1       7.949  10.290  17.320  0.00  0.00    +0.000 A 
ATOM     17  H   UNL     1       6.996   8.159  16.260  0.00  0.00    +0.000 HD
ENDBRANCH   1  14
BRANCH   5  18
ATOM     18  C   UNL     1       4.658   4.976  17.819  0.00  0.00    +0.000 A 
ATOM     19  C   UNL     1       3.799   6.060  18.065  0.00  0.00    +0.000 A 
ATOM     20  C   UNL     1       2.845   6.000  19.089  0.00  0.00    +0.000 A 
ATOM     21  C   UNL     1       2.745   4.857  19.881  0.00  0.00    +0.000 A 
ATOM     22  C   UNL     1       3.591   3.776  19.642  0.00  0.00    +0.000 A 
ATOM     23  C   UNL     1       4.538   3.834  18.624  0.00  0.00    +0.000 A 
ATOM     24  O   UNL     1       3.552   2.608  20.358  0.00  0.00    +0.000 OA
ATOM     25  C   UNL     1       2.322   2.482  21.067  0.00  0.00    +0.000 C 
ATOM     26  C   UNL     1       1.974   3.776  21.783  0.00  0.00    +0.000 C 
ATOM     27  O   UNL     1       1.780   4.852  20.856  0.00  0.00    +0.000 OA
ENDBRANCH   5  18
TORSDOF 2
ENDMDL
MODEL 5
REMARK VINA RESULT:      -8.2      4.231      6.920
REMARK  Name = 
REMARK  3 active torsions:
REMARK  status: ('A' for Active; 'I' for Inactive)
REMARK    1  A    between atoms: C_1  and  C_2
REMARK    2  A    between atoms: C_8  and  C_10
REMARK    3  A    between atoms: C_14  and  C_15
REMARK                            x       y       z     vdW  Elec       q    Type
REMARK                         _______ _______ _______ _____ _____    ______ ____
ROOT
ATOM      1  C   UNL     1       6.713   5.768  17.187  0.00  0.00    +0.000 A 
ATOM      2  C   UNL     1       7.252   4.791  16.373  0.00  0.00    +0.000 A 
ATOM      3  N   UNL     1       6.197   4.149  15.803  0.00  0.00    +0.000 N 
ATOM      4  N   UNL     1       5.006   4.615  16.195  0.00  0.00    +0.000 NA
ATOM      5  C   UNL     1       5.291   5.607  17.057  0.00  0.00    +0.000 A 
ATOM      6  H   UNL     1       6.210   3.385  15.135  0.00  0.00    +0.000 HD
ENDROOT
BRANCH   1  14
ATOM      7  C   UNL     1       8.310  12.882  17.336  0.00  0.00    +0.000 C 
ATOM      8  C   UNL     1       8.535  11.510  17.894  0.00  0.00    +0.000 A 
ATOM      9  C   UNL     1       9.442  11.309  18.934  0.00  0.00    +0.000 A 
ATOM     10  C   UNL     1       9.608  10.030  19.418  0.00  0.00    +0.000 A 
ATOM     11  N   UNL     1       8.931   8.965  18.950  0.00  0.00    +0.000 NA
ATOM     12  C   UNL     1       8.047   9.147  17.957  0.00  0.00    +0.000 A 
ATOM     13  N   UNL     1       7.324   8.053  17.458  0.00  0.00    +0.000 N 
ATOM     14  C   UNL     1       7.429   6.770  17.968  0.00  0.00    +0.000 C 
ATOM     15  O   UNL     1       8.059   6.432  18.961  0.00  0.00    +0.000 OA
ATOM     16  C   UNL     1       7.831  10.404  17.392  0.00  0.00    +0.000 A 
ATOM     17  H   UNL     1       6.743   8.203  16.652  0.00  0.00    +0.000 HD
ENDBRANCH   1  14
BRANCH   5  18
ATOM     18  C   UNL     1       4.209   6.311  17.759  0.00  0.00    +0.000 A 
ATOM     19  C   UNL     1       3.697   5.819  18.972  0.00  0.00    +0.000 A 
ATOM     20  C   UNL     1       2.709   6.524  19.671  0.00  0.00    +0.000 A 
ATOM     21  C   UNL     1       2.220   7.726  19.161  0.00  0.00    +0.000 A 
ATOM     22  C   UNL     1       2.724   8.223  17.961  0.00  0.00    +0.000 A 
ATOM     23  C   UNL     1       3.706   7.523  17.267  0.00  0.00    +0.000 A 
ATOM     24  O   UNL     1       2.314   9.402  17.395  0.00  0.00    +0.000 OA
ATOM     25  C   UNL     1       1.646  10.224  18.350  0.00  0.00    +0.000 C 
ATOM     26  C   UNL     1       0.632   9.417  19.143  0.00  0.00    +0.000 C 
ATOM     27  O   UNL     1       1.265   8.378  19.901  0.00  0.00    +0.000 OA
ENDBRANCH   5  18
TORSDOF 2
ENDMDL
MODEL 6
REMARK VINA RESULT:      -8.2      0.753      1.550
REMARK  Name = 
REMARK  3 active torsions:
REMARK  status: ('A' for Active; 'I' for Inactive)
REMARK    1  A    between atoms: C_1  and  C_2
REMARK    2  A    between atoms: C_8  and  C_10
REMARK    3  A    between atoms: C_14  and  C_15
REMARK                            x       y       z     vdW  Elec       q    Type
REMARK                         _______ _______ _______ _____ _____    ______ ____
ROOT
ATOM      1  C   UNL     1       2.481   4.703  20.641  0.00  0.00    +0.000 A 
ATOM      2  C   UNL     1       2.051   4.040  21.774  0.00  0.00    +0.000 A 
ATOM      3  N   UNL     1       2.554   2.779  21.687  0.00  0.00    +0.000 N 
ATOM      4  N   UNL     1       3.265   2.557  20.576  0.00  0.00    +0.000 NA
ATOM      5  C   UNL     1       3.230   3.722  19.906  0.00  0.00    +0.000 A 
ATOM      6  H   UNL     1       2.458   2.014  22.349  0.00  0.00    +0.000 HD
ENDROOT
BRANCH   1  14
ATOM      7  C   UNL     1      -0.881  10.748  22.953  0.00  0.00    +0.000 C 
ATOM      8  C   UNL     1      -0.126  10.040  21.869  0.00  0.00    +0.000 A 
ATOM      9  C   UNL     1       0.155  10.686  20.666  0.00  0.00    +0.000 A 
ATOM     10  C   UNL     1       0.860   9.996  19.704  0.00  0.00    +0.000 A 
ATOM     11  N   UNL     1       1.302   8.736  19.867  0.00  0.00    +0.000 NA
ATOM     12  C   UNL     1       1.046   8.107  21.025  0.00  0.00    +0.000 A 
ATOM     13  N   UNL     1       1.503   6.795  21.221  0.00  0.00    +0.000 N 
ATOM     14  C   UNL     1       2.263   6.103  20.294  0.00  0.00    +0.000 C 
ATOM     15  O   UNL     1       2.726   6.551  19.253  0.00  0.00    +0.000 OA
ATOM     16  C   UNL     1       0.321   8.722  22.046  0.00  0.00    +0.000 A 
ATOM     17  H   UNL     1       1.214   6.318  22.057  0.00  0.00    +0.000 HD
ENDBRANCH   1  14
BRANCH   5  18
ATOM     18  C   UNL     1       3.851   3.831  18.578  0.00  0.00    +0.000 A 
ATOM     19  C   UNL     1       3.108   3.582  17.412  0.00  0.00    +0.000 A 
ATOM     20  C   UNL     1       3.685   3.747  16.146  0.00  0.00    +0.000 A 
ATOM     21  C   UNL     1       5.012   4.158  16.035  0.00  0.00    +0.000 A 
ATOM     22  C   UNL     1       5.755   4.411  17.186  0.00  0.00    +0.000 A 
ATOM     23  C   UNL     1       5.182   4.248  18.444  0.00  0.00    +0.000 A 
ATOM     24  O   UNL     1       7.059   4.834  17.171  0.00  0.00    +0.000 OA
ATOM     25  C   UNL     1       7.412   5.360  15.894  0.00  0.00    +0.000 C 
ATOM     26  C   UNL     1       6.942   4.440  14.780  0.00  0.00    +0.000 C 
ATOM     27  O   UNL     1       5.514   4.318  14.768  0.00  0.00    +0.000 OA
ENDBRANCH   5  18
TORSDOF 2
ENDMDL
MODEL 7
REMARK VINA RESULT:      -8.2      4.168      7.659
REMARK  Name = 
REMARK  3 active torsions:
REMARK  status: ('A' for Active; 'I' for Inactive)
REMARK    1  A    between atoms: C_1  and  C_2
REMARK    2  A    between atoms: C_8  and  C_10
REMARK    3  A    between atoms: C_14  and  C_15
REMARK                            x       y       z     vdW  Elec       q    Type
REMARK                         _______ _______ _______ _____ _____    ______ ____
ROOT
ATOM      1  C   UNL     1       7.504   5.663  18.235  0.00  0.00    +0.000 A 
ATOM      2  C   UNL     1       8.577   5.858  19.084  0.00  0.00    +0.000 A 
ATOM      3  N   UNL     1       8.147   5.501  20.324  0.00  0.00    +0.000 N 
ATOM      4  N   UNL     1       6.870   5.103  20.359  0.00  0.00    +0.000 NA
ATOM      5  C   UNL     1       6.443   5.202  19.088  0.00  0.00    +0.000 A 
ATOM      6  H   UNL     1       8.668   5.497  21.196  0.00  0.00    +0.000 HD
ENDROOT
BRANCH   1  14
ATOM      7  C   UNL     1       5.587   2.275  12.068  0.00  0.00    +0.000 C 
ATOM      8  C   UNL     1       6.273   3.431  12.732  0.00  0.00    +0.000 A 
ATOM      9  C   UNL     1       6.891   4.420  11.968  0.00  0.00    +0.000 A 
ATOM     10  C   UNL     1       7.501   5.467  12.624  0.00  0.00    +0.000 A 
ATOM     11  N   UNL     1       7.520   5.593  13.964  0.00  0.00    +0.000 NA
ATOM     12  C   UNL     1       6.919   4.653  14.710  0.00  0.00    +0.000 A 
ATOM     13  N   UNL     1       6.920   4.767  16.108  0.00  0.00    +0.000 N 
ATOM     14  C   UNL     1       7.473   5.839  16.788  0.00  0.00    +0.000 C 
ATOM     15  O   UNL     1       7.928   6.860  16.289  0.00  0.00    +0.000 OA
ATOM     16  C   UNL     1       6.296   3.548  14.130  0.00  0.00    +0.000 A 
ATOM     17  H   UNL     1       6.547   4.002  16.641  0.00  0.00    +0.000 HD
ENDBRANCH   1  14
BRANCH   5  18
ATOM     18  C   UNL     1       5.041   4.917  18.754  0.00  0.00    +0.000 A 
ATOM     19  C   UNL     1       4.312   5.774  17.913  0.00  0.00    +0.000 A 
ATOM     20  C   UNL     1       2.995   5.469  17.545  0.00  0.00    +0.000 A 
ATOM     21  C   UNL     1       2.393   4.305  18.020  0.00  0.00    +0.000 A 
ATOM     22  C   UNL     1       3.110   3.446  18.852  0.00  0.00    +0.000 A 
ATOM     23  C   UNL     1       4.419   3.749  19.216  0.00  0.00    +0.000 A 
ATOM     24  O   UNL     1       2.605   2.274  19.350  0.00  0.00    +0.000 OA
ATOM     25  C   UNL     1       1.461   1.854  18.612  0.00  0.00    +0.000 C 
ATOM     26  C   UNL     1       0.503   3.012  18.391  0.00  0.00    +0.000 C 
ATOM     27  O   UNL     1       1.108   4.051  17.611  0.00  0.00    +0.000 OA
ENDBRANCH   5  18
TORSDOF 2
ENDMDL
MODEL 8
REMARK VINA RESULT:      -7.7      4.124      6.880
REMARK  Name = 
REMARK  3 active torsions:
REMARK  status: ('A' for Active; 'I' for Inactive)
REMARK    1  A    between atoms: C_1  and  C_2
REMARK    2  A    between atoms: C_8  and  C_10
REMARK    3  A    between atoms: C_14  and  C_15
REMARK                            x       y       z     vdW  Elec       q    Type
REMARK                         _______ _______ _______ _____ _____    ______ ____
ROOT
ATOM      1  C   UNL     1       6.851   5.739  16.700  0.00  0.00    +0.000 A 
ATOM      2  C   UNL     1       7.401   5.212  15.547  0.00  0.00    +0.000 A 
ATOM      3  N   UNL     1       6.434   4.434  14.989  0.00  0.00    +0.000 N 
ATOM      4  N   UNL     1       5.299   4.395  15.695  0.00  0.00    +0.000 NA
ATOM      5  C   UNL     1       5.528   5.181  16.761  0.00  0.00    +0.000 A 
ATOM      6  H   UNL     1       6.474   3.902  14.125  0.00  0.00    +0.000 HD
ENDROOT
BRANCH   1  14
ATOM      7  C   UNL     1       8.387  12.826  17.479  0.00  0.00    +0.000 C 
ATOM      8  C   UNL     1       8.547  11.421  17.975  0.00  0.00    +0.000 A 
ATOM      9  C   UNL     1       9.321  11.154  19.104  0.00  0.00    +0.000 A 
ATOM     10  C   UNL     1       9.431   9.847  19.526  0.00  0.00    +0.000 A 
ATOM     11  N   UNL     1       8.822   8.815  18.914  0.00  0.00    +0.000 NA
ATOM     12  C   UNL     1       8.066   9.061  17.833  0.00  0.00    +0.000 A 
ATOM     13  N   UNL     1       7.415   8.002  17.183  0.00  0.00    +0.000 N 
ATOM     14  C   UNL     1       7.462   6.690  17.622  0.00  0.00    +0.000 C 
ATOM     15  O   UNL     1       7.966   6.289  18.662  0.00  0.00    +0.000 OA
ATOM     16  C   UNL     1       7.916  10.350  17.323  0.00  0.00    +0.000 A 
ATOM     17  H   UNL     1       6.936   8.202  16.323  0.00  0.00    +0.000 HD
ENDBRANCH   1  14
BRANCH   5  18
ATOM     18  C   UNL     1       4.511   5.317  17.813  0.00  0.00    +0.000 A 
ATOM     19  C   UNL     1       4.260   4.268  18.713  0.00  0.00    +0.000 A 
ATOM     20  C   UNL     1       3.335   4.421  19.753  0.00  0.00    +0.000 A 
ATOM     21  C   UNL     1       2.648   5.625  19.901  0.00  0.00    +0.000 A 
ATOM     22  C   UNL     1       2.893   6.673  19.015  0.00  0.00    +0.000 A 
ATOM     23  C   UNL     1       3.813   6.520  17.982  0.00  0.00    +0.000 A 
ATOM     24  O   UNL     1       2.276   7.894  19.094  0.00  0.00    +0.000 OA
ATOM     25  C   UNL     1       1.695   8.092  20.381  0.00  0.00    +0.000 C 
ATOM     26  C   UNL     1       0.914   6.864  20.817  0.00  0.00    +0.000 C 
ATOM     27  O   UNL     1       1.768   5.720  20.949  0.00  0.00    +0.000 OA
ENDBRANCH   5  18
TORSDOF 2
ENDMDL
MODEL 9
REMARK VINA RESULT:      -7.7      2.102      3.003
REMARK  Name = 
REMARK  3 active torsions:
REMARK  status: ('A' for Active; 'I' for Inactive)
REMARK    1  A    between atoms: C_1  and  C_2
REMARK    2  A    between atoms: C_8  and  C_10
REMARK    3  A    between atoms: C_14  and  C_15
REMARK                            x       y       z     vdW  Elec       q    Type
REMARK                         _______ _______ _______ _____ _____    ______ ____
ROOT
ATOM      1  C   UNL     1       2.529   3.426  19.259  0.00  0.00    +0.000 A 
ATOM      2  C   UNL     1       2.054   2.130  19.297  0.00  0.00    +0.000 A 
ATOM      3  N   UNL     1       2.925   1.385  18.565  0.00  0.00    +0.000 N 
ATOM      4  N   UNL     1       3.926   2.095  18.032  0.00  0.00    +0.000 NA
ATOM      5  C   UNL     1       3.704   3.358  18.434  0.00  0.00    +0.000 A 
ATOM      6  H   UNL     1       2.905   0.386  18.385  0.00  0.00    +0.000 HD
ENDROOT
BRANCH   1  14
ATOM      7  C   UNL     1       1.523  10.606  18.474  0.00  0.00    +0.000 C 
ATOM      8  C   UNL     1       1.482   9.399  19.361  0.00  0.00    +0.000 A 
ATOM      9  C   UNL     1       1.093   9.515  20.695  0.00  0.00    +0.000 A 
ATOM     10  C   UNL     1       1.063   8.374  21.468  0.00  0.00    +0.000 A 
ATOM     11  N   UNL     1       1.377   7.152  21.001  0.00  0.00    +0.000 NA
ATOM     12  C   UNL     1       1.742   7.026  19.715  0.00  0.00    +0.000 A 
ATOM     13  N   UNL     1       2.066   5.761  19.204  0.00  0.00    +0.000 N 
ATOM     14  C   UNL     1       1.986   4.593  19.944  0.00  0.00    +0.000 C 
ATOM     15  O   UNL     1       1.534   4.479  21.075  0.00  0.00    +0.000 OA
ATOM     16  C   UNL     1       1.821   8.130  18.867  0.00  0.00    +0.000 A 
ATOM     17  H   UNL     1       2.428   5.712  18.268  0.00  0.00    +0.000 HD
ENDBRANCH   1  14
BRANCH   5  18
ATOM     18  C   UNL     1       4.575   4.447  17.968  0.00  0.00    +0.000 A 
ATOM     19  C   UNL     1       4.222   5.227  16.854  0.00  0.00    +0.000 A 
ATOM     20  C   UNL     1       5.022   6.303  16.450  0.00  0.00    +0.000 A 
ATOM     21  C   UNL     1       6.187   6.606  17.153  0.00  0.00    +0.000 A 
ATOM     22  C   UNL     1       6.543   5.840  18.261  0.00  0.00    +0.000 A 
ATOM     23  C   UNL     1       5.748   4.772  18.664  0.00  0.00    +0.000 A 
ATOM     24  O   UNL     1       7.660   6.076  19.020  0.00  0.00    +0.000 OA
ATOM     25  C   UNL     1       8.161   7.392  18.799  0.00  0.00    +0.000 C 
ATOM     26  C   UNL     1       8.223   7.706  17.314  0.00  0.00    +0.000 C 
ATOM     27  O   UNL     1       6.919   7.682  16.719  0.00  0.00    +0.000 OA
ENDBRANCH   5  18
TORSDOF 2
ENDMDL
