MODEL 1
REMARK VINA RESULT:      -8.1      0.000      0.000
REMARK  Name = 
REMARK  4 active torsions:
REMARK  status: ('A' for Active; 'I' for Inactive)
REMARK    1  A    between atoms: C_1  and  C_2
REMARK    2  A    between atoms: C_5  and  C_6
REMARK    3  A    between atoms: C_17  and  N_18
REMARK    4  A    between atoms: C_19  and  C_21
REMARK                            x       y       z     vdW  Elec       q    Type
REMARK                         _______ _______ _______ _____ _____    ______ ____
ROOT
ATOM      1  C   UNL     1       0.262  11.346  18.546  0.00  0.00    +0.000 C 
ATOM      2  C   UNL     1       0.932  10.022  18.790  0.00  0.00    +0.000 A 
ATOM      3  C   UNL     1       1.269   9.250  17.659  0.00  0.00    +0.000 A 
ATOM      4  C   UNL     1       1.918   8.019  17.798  0.00  0.00    +0.000 A 
ATOM      5  C   UNL     1       2.244   7.529  19.061  0.00  0.00    +0.000 A 
ATOM      6  C   UNL     1       1.914   8.305  20.184  0.00  0.00    +0.000 A 
ATOM      7  C   UNL     1       1.243   9.532  20.077  0.00  0.00    +0.000 A 
ENDROOT
BRANCH   5   8
ATOM      8  C   UNL     1       2.957   6.252  19.173  0.00  0.00    +0.000 A 
ATOM      9  N   UNL     1       4.146   6.012  18.652  0.00  0.00    +0.000 NA
ATOM     10  N   UNL     1       4.554   4.764  19.036  0.00  0.00    +0.000 NA
ATOM     11  C   UNL     1       3.597   4.221  19.759  0.00  0.00    +0.000 A 
ATOM     12  N   UNL     1       2.536   5.093  19.804  0.00  0.00    +0.000 N 
ATOM     13  C   UNL     1       1.219   4.835  20.359  0.00  0.00    +0.000 C 
ATOM     14  C   UNL     1       0.731   3.402  20.194  0.00  0.00    +0.000 C 
ATOM     15  C   UNL     1       1.314   2.429  21.217  0.00  0.00    +0.000 C 
ATOM     16  C   UNL     1       2.776   2.669  21.592  0.00  0.00    +0.000 C 
ATOM     17  C   UNL     1       3.682   2.872  20.384  0.00  0.00    +0.000 C 
ENDBRANCH   5   8
BRANCH   7  18
ATOM     18  N   UNL     1       0.825  10.241  21.238  0.00  0.00    +0.000 N 
ATOM     19  C   UNL     1      -0.231   9.916  22.092  0.00  0.00    +0.000 C 
ATOM     20  O   UNL     1      -0.837   8.848  22.101  0.00  0.00    +0.000 OA
ATOM     21  H   UNL     1       1.376  11.053  21.480  0.00  0.00    +0.000 HD
BRANCH  19  22
ATOM     22  C   UNL     1      -0.729  11.103  22.909  0.00  0.00    +0.000 C 
ATOM     23  C   UNL     1      -2.190  11.073  23.429  0.00  0.00    +0.000 C 
ATOM     24  C   UNL     1      -2.659  12.536  23.216  0.00  0.00    +0.000 C 
ATOM     25  C   UNL     1      -2.891  12.714  21.739  0.00  0.00    +0.000 C 
ATOM     26  C   UNL     1      -1.687  12.677  21.147  0.00  0.00    +0.000 C 
ATOM     27  C   UNL     1      -0.645  12.501  22.236  0.00  0.00    +0.000 C 
ATOM     28  C   UNL     1      -1.350  13.325  23.328  0.00  0.00    +0.000 C 
ENDBRANCH  19  22
ENDBRANCH   7  18
TORSDOF 3
ENDMDL
MODEL 2
REMARK VINA RESULT:      -8.0      3.228      8.795
REMARK  Name = 
REMARK  4 active torsions:
REMARK  status: ('A' for Active; 'I' for Inactive)
REMARK    1  A    between atoms: C_1  and  C_2
REMARK    2  A    between atoms: C_5  and  C_6
REMARK    3  A    between atoms: C_17  and  N_18
REMARK    4  A    between atoms: C_19  and  C_21
REMARK                            x       y       z     vdW  Elec       q    Type
REMARK                         _______ _______ _______ _____ _____    ______ ____
ROOT
ATOM      1  C   UNL     1       2.590   3.136  19.205  0.00  0.00    +0.000 C 
ATOM      2  C   UNL     1       2.297   4.565  19.574  0.00  0.00    +0.000 A 
ATOM      3  C   UNL     1       1.270   4.794  20.511  0.00  0.00    +0.000 A 
ATOM      4  C   UNL     1       0.953   6.090  20.927  0.00  0.00    +0.000 A 
ATOM      5  C   UNL     1       1.648   7.186  20.419  0.00  0.00    +0.000 A 
ATOM      6  C   UNL     1       2.675   6.954  19.492  0.00  0.00    +0.000 A 
ATOM      7  C   UNL     1       3.001   5.666  19.040  0.00  0.00    +0.000 A 
ENDROOT
BRANCH   5   8
ATOM      8  C   UNL     1       1.317   8.532  20.901  0.00  0.00    +0.000 A 
ATOM      9  N   UNL     1       1.411   8.917  22.160  0.00  0.00    +0.000 NA
ATOM     10  N   UNL     1       1.127  10.255  22.236  0.00  0.00    +0.000 NA
ATOM     11  C   UNL     1       0.818  10.679  21.029  0.00  0.00    +0.000 A 
ATOM     12  N   UNL     1       0.846   9.608  20.168  0.00  0.00    +0.000 N 
ATOM     13  C   UNL     1       0.421   9.595  18.780  0.00  0.00    +0.000 C 
ATOM     14  C   UNL     1      -0.761  10.503  18.470  0.00  0.00    +0.000 C 
ATOM     15  C   UNL     1      -0.384  11.973  18.303  0.00  0.00    +0.000 C 
ATOM     16  C   UNL     1       0.707  12.482  19.245  0.00  0.00    +0.000 C 
ATOM     17  C   UNL     1       0.476  12.091  20.699  0.00  0.00    +0.000 C 
ENDBRANCH   5   8
BRANCH   7  18
ATOM     18  N   UNL     1       3.973   5.474  18.018  0.00  0.00    +0.000 N 
ATOM     19  C   UNL     1       5.361   5.463  18.162  0.00  0.00    +0.000 C 
ATOM     20  O   UNL     1       5.966   5.404  19.230  0.00  0.00    +0.000 OA
ATOM     21  H   UNL     1       3.608   5.301  17.090  0.00  0.00    +0.000 HD
BRANCH  19  22
ATOM     22  C   UNL     1       6.103   5.743  16.860  0.00  0.00    +0.000 C 
ATOM     23  C   UNL     1       5.282   6.245  15.643  0.00  0.00    +0.000 C 
ATOM     24  C   UNL     1       5.919   5.472  14.460  0.00  0.00    +0.000 C 
ATOM     25  C   UNL     1       5.438   4.047  14.553  0.00  0.00    +0.000 C 
ATOM     26  C   UNL     1       6.022   3.509  15.636  0.00  0.00    +0.000 C 
ATOM     27  C   UNL     1       6.917   4.569  16.250  0.00  0.00    +0.000 C 
ATOM     28  C   UNL     1       7.357   5.249  14.941  0.00  0.00    +0.000 C 
ENDBRANCH  19  22
ENDBRANCH   7  18
TORSDOF 3
ENDMDL
MODEL 3
REMARK VINA RESULT:      -7.7      5.429      8.422
REMARK  Name = 
REMARK  4 active torsions:
REMARK  status: ('A' for Active; 'I' for Inactive)
REMARK    1  A    between atoms: C_1  and  C_2
REMARK    2  A    between atoms: C_5  and  C_6
REMARK    3  A    between atoms: C_17  and  N_18
REMARK    4  A    between atoms: C_19  and  C_21
REMARK                            x       y       z     vdW  Elec       q    Type
REMARK                         _______ _______ _______ _____ _____    ______ ____
ROOT
ATOM      1  C   UNL     1       3.317   6.685  18.618  0.00  0.00    +0.000 C 
ATOM      2  C   UNL     1       4.104   6.159  17.449  0.00  0.00    +0.000 A 
ATOM      3  C   UNL     1       4.515   7.091  16.474  0.00  0.00    +0.000 A 
ATOM      4  C   UNL     1       5.272   6.689  15.370  0.00  0.00    +0.000 A 
ATOM      5  C   UNL     1       5.636   5.353  15.211  0.00  0.00    +0.000 A 
ATOM      6  C   UNL     1       5.232   4.430  16.187  0.00  0.00    +0.000 A 
ATOM      7  C   UNL     1       4.453   4.800  17.294  0.00  0.00    +0.000 A 
ENDROOT
BRANCH   5   8
ATOM      8  C   UNL     1       6.462   4.967  14.060  0.00  0.00    +0.000 A 
ATOM      9  N   UNL     1       7.626   5.513  13.761  0.00  0.00    +0.000 NA
ATOM     10  N   UNL     1       8.166   4.846  12.695  0.00  0.00    +0.000 NA
ATOM     11  C   UNL     1       7.314   3.917  12.315  0.00  0.00    +0.000 A 
ATOM     12  N   UNL     1       6.189   4.010  13.098  0.00  0.00    +0.000 N 
ATOM     13  C   UNL     1       4.943   3.286  12.922  0.00  0.00    +0.000 C 
ATOM     14  C   UNL     1       4.568   3.011  11.472  0.00  0.00    +0.000 C 
ATOM     15  C   UNL     1       5.305   1.822  10.858  0.00  0.00    +0.000 C 
ATOM     16  C   UNL     1       6.764   1.664  11.282  0.00  0.00    +0.000 C 
ATOM     17  C   UNL     1       7.559   2.961  11.199  0.00  0.00    +0.000 C 
ENDBRANCH   5   8
BRANCH   7  18
ATOM     18  N   UNL     1       3.968   3.822  18.207  0.00  0.00    +0.000 N 
ATOM     19  C   UNL     1       2.924   2.918  18.002  0.00  0.00    +0.000 C 
ATOM     20  O   UNL     1       2.394   2.676  16.921  0.00  0.00    +0.000 OA
ATOM     21  H   UNL     1       4.457   3.764  19.090  0.00  0.00    +0.000 HD
BRANCH  19  22
ATOM     22  C   UNL     1       2.331   2.382  19.300  0.00  0.00    +0.000 C 
ATOM     23  C   UNL     1       0.844   2.697  19.611  0.00  0.00    +0.000 C 
ATOM     24  C   UNL     1       0.871   2.999  21.131  0.00  0.00    +0.000 C 
ATOM     25  C   UNL     1       1.487   4.363  21.300  0.00  0.00    +0.000 C 
ATOM     26  C   UNL     1       2.785   4.247  20.977  0.00  0.00    +0.000 C 
ATOM     27  C   UNL     1       3.041   2.795  20.618  0.00  0.00    +0.000 C 
ATOM     28  C   UNL     1       2.058   2.161  21.618  0.00  0.00    +0.000 C 
ENDBRANCH  19  22
ENDBRANCH   7  18
TORSDOF 3
ENDMDL
MODEL 4
REMARK VINA RESULT:      -7.6      2.415      3.480
REMARK  Name = 
REMARK  4 active torsions:
REMARK  status: ('A' for Active; 'I' for Inactive)
REMARK    1  A    between atoms: C_1  and  C_2
REMARK    2  A    between atoms: C_5  and  C_6
REMARK    3  A    between atoms: C_17  and  N_18
REMARK    4  A    between atoms: C_19  and  C_21
REMARK                            x       y       z     vdW  Elec       q    Type
REMARK                         _______ _______ _______ _____ _____    ______ ____
ROOT
ATOM      1  C   UNL     1      -0.296  10.137  21.903  0.00  0.00    +0.000 C 
ATOM      2  C   UNL     1       0.557   9.376  20.925  0.00  0.00    +0.000 A 
ATOM      3  C   UNL     1       1.104   8.151  21.359  0.00  0.00    +0.000 A 
ATOM      4  C   UNL     1       1.886   7.371  20.503  0.00  0.00    +0.000 A 
ATOM      5  C   UNL     1       2.143   7.791  19.199  0.00  0.00    +0.000 A 
ATOM      6  C   UNL     1       1.590   9.007  18.768  0.00  0.00    +0.000 A 
ATOM      7  C   UNL     1       0.820   9.822  19.612  0.00  0.00    +0.000 A 
ENDROOT
BRANCH   5   8
ATOM      8  C   UNL     1       2.937   6.933  18.312  0.00  0.00    +0.000 A 
ATOM      9  N   UNL     1       3.871   7.373  17.489  0.00  0.00    +0.000 NA
ATOM     10  N   UNL     1       4.479   6.299  16.895  0.00  0.00    +0.000 NA
ATOM     11  C   UNL     1       3.890   5.203  17.324  0.00  0.00    +0.000 A 
ATOM     12  N   UNL     1       2.858   5.559  18.159  0.00  0.00    +0.000 N 
ATOM     13  C   UNL     1       1.854   4.678  18.728  0.00  0.00    +0.000 C 
ATOM     14  C   UNL     1       1.443   3.521  17.829  0.00  0.00    +0.000 C 
ATOM     15  C   UNL     1       2.424   2.350  17.840  0.00  0.00    +0.000 C 
ATOM     16  C   UNL     1       3.902   2.734  17.915  0.00  0.00    +0.000 C 
ATOM     17  C   UNL     1       4.291   3.825  16.926  0.00  0.00    +0.000 C 
ENDBRANCH   5   8
BRANCH   7  18
ATOM     18  N   UNL     1       0.368  11.100  19.179  0.00  0.00    +0.000 N 
ATOM     19  C   UNL     1       1.152  12.193  18.806  0.00  0.00    +0.000 C 
ATOM     20  O   UNL     1       2.360  12.161  18.586  0.00  0.00    +0.000 OA
ATOM     21  H   UNL     1      -0.635  11.213  19.113  0.00  0.00    +0.000 HD
BRANCH  19  22
ATOM     22  C   UNL     1       0.409  13.522  18.892  0.00  0.00    +0.000 C 
ATOM     23  C   UNL     1       1.227  14.830  18.731  0.00  0.00    +0.000 C 
ATOM     24  C   UNL     1       0.597  15.760  19.800  0.00  0.00    +0.000 C 
ATOM     25  C   UNL     1       1.087  15.287  21.143  0.00  0.00    +0.000 C 
ATOM     26  C   UNL     1       0.506  14.099  21.373  0.00  0.00    +0.000 C 
ATOM     27  C   UNL     1      -0.396  13.792  20.192  0.00  0.00    +0.000 C 
ATOM     28  C   UNL     1      -0.840  15.235  19.894  0.00  0.00    +0.000 C 
ENDBRANCH  19  22
ENDBRANCH   7  18
TORSDOF 3
ENDMDL
MODEL 5
REMARK VINA RESULT:      -7.6      2.273      3.492
REMARK  Name = 
REMARK  4 active torsions:
REMARK  status: ('A' for Active; 'I' for Inactive)
REMARK    1  A    between atoms: C_1  and  C_2
REMARK    2  A    between atoms: C_5  and  C_6
REMARK    3  A    between atoms: C_17  and  N_18
REMARK    4  A    between atoms: C_19  and  C_21
REMARK                            x       y       z     vdW  Elec       q    Type
REMARK                         _______ _______ _______ _____ _____    ______ ____
ROOT
ATOM      1  C   UNL     1      -0.338   9.861  22.311  0.00  0.00    +0.000 C 
ATOM      2  C   UNL     1       0.514   9.169  21.283  0.00  0.00    +0.000 A 
ATOM      3  C   UNL     1       0.892   7.837  21.546  0.00  0.00    +0.000 A 
ATOM      4  C   UNL     1       1.661   7.114  20.629  0.00  0.00    +0.000 A 
ATOM      5  C   UNL     1       2.071   7.700  19.433  0.00  0.00    +0.000 A 
ATOM      6  C   UNL     1       1.686   9.024  19.171  0.00  0.00    +0.000 A 
ATOM      7  C   UNL     1       0.934   9.781  20.082  0.00  0.00    +0.000 A 
ENDROOT
BRANCH   5   8
ATOM      8  C   UNL     1       2.847   6.905  18.474  0.00  0.00    +0.000 A 
ATOM      9  N   UNL     1       3.729   7.407  17.630  0.00  0.00    +0.000 NA
ATOM     10  N   UNL     1       4.338   6.379  16.962  0.00  0.00    +0.000 NA
ATOM     11  C   UNL     1       3.801   5.248  17.369  0.00  0.00    +0.000 A 
ATOM     12  N   UNL     1       2.799   5.537  18.264  0.00  0.00    +0.000 N 
ATOM     13  C   UNL     1       1.847   4.603  18.838  0.00  0.00    +0.000 C 
ATOM     14  C   UNL     1       1.427   3.474  17.908  0.00  0.00    +0.000 C 
ATOM     15  C   UNL     1       2.441   2.334  17.823  0.00  0.00    +0.000 C 
ATOM     16  C   UNL     1       3.908   2.758  17.849  0.00  0.00    +0.000 C 
ATOM     17  C   UNL     1       4.221   3.901  16.892  0.00  0.00    +0.000 C 
ENDBRANCH   5   8
BRANCH   7  18
ATOM     18  N   UNL     1       0.653  11.154  19.835  0.00  0.00    +0.000 N 
ATOM     19  C   UNL     1      -0.404  11.681  19.091  0.00  0.00    +0.000 C 
ATOM     20  O   UNL     1      -1.387  11.053  18.706  0.00  0.00    +0.000 OA
ATOM     21  H   UNL     1       1.279  11.817  20.273  0.00  0.00    +0.000 HD
BRANCH  19  22
ATOM     22  C   UNL     1      -0.144  13.100  18.599  0.00  0.00    +0.000 C 
ATOM     23  C   UNL     1       1.328  13.550  18.406  0.00  0.00    +0.000 C 
ATOM     24  C   UNL     1       1.314  15.004  18.944  0.00  0.00    +0.000 C 
ATOM     25  C   UNL     1       1.242  14.920  20.446  0.00  0.00    +0.000 C 
ATOM     26  C   UNL     1       0.020  14.456  20.752  0.00  0.00    +0.000 C 
ATOM     27  C   UNL     1      -0.735  14.257  19.451  0.00  0.00    +0.000 C 
ATOM     28  C   UNL     1      -0.131  15.444  18.681  0.00  0.00    +0.000 C 
ENDBRANCH  19  22
ENDBRANCH   7  18
TORSDOF 3
ENDMDL
MODEL 6
REMARK VINA RESULT:      -7.5      1.944      8.363
REMARK  Name = 
REMARK  4 active torsions:
REMARK  status: ('A' for Active; 'I' for Inactive)
REMARK    1  A    between atoms: C_1  and  C_2
REMARK    2  A    between atoms: C_5  and  C_6
REMARK    3  A    between atoms: C_17  and  N_18
REMARK    4  A    between atoms: C_19  and  C_21
REMARK                            x       y       z     vdW  Elec       q    Type
REMARK                         _______ _______ _______ _____ _____    ______ ____
ROOT
ATOM      1  C   UNL     1       3.280   7.523  16.835  0.00  0.00    +0.000 C 
ATOM      2  C   UNL     1       2.568   8.034  18.057  0.00  0.00    +0.000 A 
ATOM      3  C   UNL     1       2.314   9.419  18.125  0.00  0.00    +0.000 A 
ATOM      4  C   UNL     1       1.633   9.972  19.215  0.00  0.00    +0.000 A 
ATOM      5  C   UNL     1       1.194   9.161  20.259  0.00  0.00    +0.000 A 
ATOM      6  C   UNL     1       1.442   7.781  20.184  0.00  0.00    +0.000 A 
ATOM      7  C   UNL     1       2.141   7.202  19.114  0.00  0.00    +0.000 A 
ENDROOT
BRANCH   5   8
ATOM      8  C   UNL     1       0.451   9.764  21.372  0.00  0.00    +0.000 A 
ATOM      9  N   UNL     1       0.455   9.302  22.609  0.00  0.00    +0.000 NA
ATOM     10  N   UNL     1      -0.255  10.161  23.404  0.00  0.00    +0.000 NA
ATOM     11  C   UNL     1      -0.728  11.128  22.647  0.00  0.00    +0.000 A 
ATOM     12  N   UNL     1      -0.375  10.875  21.343  0.00  0.00    +0.000 N 
ATOM     13  C   UNL     1      -0.819  11.597  20.164  0.00  0.00    +0.000 C 
ATOM     14  C   UNL     1      -2.245  12.123  20.242  0.00  0.00    +0.000 C 
ATOM     15  C   UNL     1      -2.384  13.417  21.043  0.00  0.00    +0.000 C 
ATOM     16  C   UNL     1      -1.492  13.521  22.280  0.00  0.00    +0.000 C 
ATOM     17  C   UNL     1      -1.531  12.275  23.156  0.00  0.00    +0.000 C 
ENDBRANCH   5   8
BRANCH   7  18
ATOM     18  N   UNL     1       2.472   5.818  19.122  0.00  0.00    +0.000 N 
ATOM     19  C   UNL     1       3.740   5.253  19.268  0.00  0.00    +0.000 C 
ATOM     20  O   UNL     1       4.750   5.852  19.627  0.00  0.00    +0.000 OA
ATOM     21  H   UNL     1       1.693   5.178  19.038  0.00  0.00    +0.000 HD
BRANCH  19  22
ATOM     22  C   UNL     1       3.828   3.827  18.733  0.00  0.00    +0.000 C 
ATOM     23  C   UNL     1       3.049   3.482  17.437  0.00  0.00    +0.000 C 
ATOM     24  C   UNL     1       2.482   2.072  17.744  0.00  0.00    +0.000 C 
ATOM     25  C   UNL     1       1.345   2.255  18.714  0.00  0.00    +0.000 C 
ATOM     26  C   UNL     1       1.885   2.641  19.881  0.00  0.00    +0.000 C 
ATOM     27  C   UNL     1       3.390   2.690  19.696  0.00  0.00    +0.000 C 
ATOM     28  C   UNL     1       3.515   1.504  18.723  0.00  0.00    +0.000 C 
ENDBRANCH  19  22
ENDBRANCH   7  18
TORSDOF 3
ENDMDL
MODEL 7
REMARK VINA RESULT:      -7.4      3.002      8.852
REMARK  Name = 
REMARK  4 active torsions:
REMARK  status: ('A' for Active; 'I' for Inactive)
REMARK    1  A    between atoms: C_1  and  C_2
REMARK    2  A    between atoms: C_5  and  C_6
REMARK    3  A    between atoms: C_17  and  N_18
REMARK    4  A    between atoms: C_19  and  C_21
REMARK                            x       y       z     vdW  Elec       q    Type
REMARK                         _______ _______ _______ _____ _____    ______ ____
ROOT
ATOM      1  C   UNL     1       2.290   5.924  21.100  0.00  0.00    +0.000 C 
ATOM      2  C   UNL     1       1.764   7.177  20.456  0.00  0.00    +0.000 A 
ATOM      3  C   UNL     1       0.797   7.914  21.169  0.00  0.00    +0.000 A 
ATOM      4  C   UNL     1       0.277   9.105  20.653  0.00  0.00    +0.000 A 
ATOM      5  C   UNL     1       0.706   9.587  19.417  0.00  0.00    +0.000 A 
ATOM      6  C   UNL     1       1.675   8.854  18.714  0.00  0.00    +0.000 A 
ATOM      7  C   UNL     1       2.198   7.646  19.197  0.00  0.00    +0.000 A 
ENDROOT
BRANCH   5   8
ATOM      8  C   UNL     1       0.168  10.858  18.917  0.00  0.00    +0.000 A 
ATOM      9  N   UNL     1      -0.968  10.979  18.257  0.00  0.00    +0.000 NA
ATOM     10  N   UNL     1      -1.213  12.308  18.037  0.00  0.00    +0.000 NA
ATOM     11  C   UNL     1      -0.205  12.999  18.526  0.00  0.00    +0.000 A 
ATOM     12  N   UNL     1       0.729  12.120  19.021  0.00  0.00    +0.000 N 
ATOM     13  C   UNL     1       2.058  12.443  19.508  0.00  0.00    +0.000 C 
ATOM     14  C   UNL     1       2.736  13.596  18.782  0.00  0.00    +0.000 C 
ATOM     15  C   UNL     1       2.270  14.976  19.242  0.00  0.00    +0.000 C 
ATOM     16  C   UNL     1       0.783  15.090  19.574  0.00  0.00    +0.000 C 
ATOM     17  C   UNL     1      -0.119  14.485  18.505  0.00  0.00    +0.000 C 
ENDBRANCH   5   8
BRANCH   7  18
ATOM     18  N   UNL     1       3.096   6.872  18.410  0.00  0.00    +0.000 N 
ATOM     19  C   UNL     1       2.855   5.623  17.833  0.00  0.00    +0.000 C 
ATOM     20  O   UNL     1       1.756   5.086  17.732  0.00  0.00    +0.000 OA
ATOM     21  H   UNL     1       3.999   7.291  18.231  0.00  0.00    +0.000 HD
BRANCH  19  22
ATOM     22  C   UNL     1       4.132   4.856  17.507  0.00  0.00    +0.000 C 
ATOM     23  C   UNL     1       5.266   4.838  18.564  0.00  0.00    +0.000 C 
ATOM     24  C   UNL     1       6.543   4.990  17.698  0.00  0.00    +0.000 C 
ATOM     25  C   UNL     1       6.603   6.426  17.248  0.00  0.00    +0.000 C 
ATOM     26  C   UNL     1       5.601   6.602  16.371  0.00  0.00    +0.000 C 
ATOM     27  C   UNL     1       4.888   5.272  16.215  0.00  0.00    +0.000 C 
ATOM     28  C   UNL     1       6.120   4.361  16.366  0.00  0.00    +0.000 C 
ENDBRANCH  19  22
ENDBRANCH   7  18
TORSDOF 3
ENDMDL
MODEL 8
REMARK VINA RESULT:      -7.4      2.984      8.930
REMARK  Name = 
REMARK  4 active torsions:
REMARK  status: ('A' for Active; 'I' for Inactive)
REMARK    1  A    between atoms: C_1  and  C_2
REMARK    2  A    between atoms: C_5  and  C_6
REMARK    3  A    between atoms: C_17  and  N_18
REMARK    4  A    between atoms: C_19  and  C_21
REMARK                            x       y       z     vdW  Elec       q    Type
REMARK                         _______ _______ _______ _____ _____    ______ ____
ROOT
ATOM      1  C   UNL     1       1.977   5.041  20.842  0.00  0.00    +0.000 C 
ATOM      2  C   UNL     1       1.735   6.466  20.425  0.00  0.00    +0.000 A 
ATOM      3  C   UNL     1       1.076   7.306  21.344  0.00  0.00    +0.000 A 
ATOM      4  C   UNL     1       0.836   8.651  21.044  0.00  0.00    +0.000 A 
ATOM      5  C   UNL     1       1.244   9.187  19.825  0.00  0.00    +0.000 A 
ATOM      6  C   UNL     1       1.908   8.349  18.915  0.00  0.00    +0.000 A 
ATOM      7  C   UNL     1       2.143   6.992  19.179  0.00  0.00    +0.000 A 
ENDROOT
BRANCH   5   8
ATOM      8  C   UNL     1       1.011  10.610  19.553  0.00  0.00    +0.000 A 
ATOM      9  N   UNL     1       1.649  11.308  18.632  0.00  0.00    +0.000 NA
ATOM     10  N   UNL     1       1.111  12.566  18.578  0.00  0.00    +0.000 NA
ATOM     11  C   UNL     1       0.171  12.652  19.496  0.00  0.00    +0.000 A 
ATOM     12  N   UNL     1       0.128  11.466  20.189  0.00  0.00    +0.000 N 
ATOM     13  C   UNL     1      -0.651  11.182  21.381  0.00  0.00    +0.000 C 
ATOM     14  C   UNL     1      -0.818  12.364  22.326  0.00  0.00    +0.000 C 
ATOM     15  C   UNL     1      -1.902  13.350  21.896  0.00  0.00    +0.000 C 
ATOM     16  C   UNL     1      -2.011  13.591  20.391  0.00  0.00    +0.000 C 
ATOM     17  C   UNL     1      -0.667  13.861  19.727  0.00  0.00    +0.000 C 
ENDBRANCH   5   8
BRANCH   7  18
ATOM     18  N   UNL     1       2.719   6.144  18.192  0.00  0.00    +0.000 N 
ATOM     19  C   UNL     1       4.027   5.656  18.155  0.00  0.00    +0.000 C 
ATOM     20  O   UNL     1       4.832   5.707  19.080  0.00  0.00    +0.000 OA
ATOM     21  H   UNL     1       2.098   5.843  17.453  0.00  0.00    +0.000 HD
BRANCH  19  22
ATOM     22  C   UNL     1       4.466   5.222  16.761  0.00  0.00    +0.000 C 
ATOM     23  C   UNL     1       4.994   3.775  16.577  0.00  0.00    +0.000 C 
ATOM     24  C   UNL     1       6.186   3.968  15.604  0.00  0.00    +0.000 C 
ATOM     25  C   UNL     1       7.311   4.578  16.399  0.00  0.00    +0.000 C 
ATOM     26  C   UNL     1       6.940   5.833  16.699  0.00  0.00    +0.000 C 
ATOM     27  C   UNL     1       5.575   6.069  16.080  0.00  0.00    +0.000 C 
ATOM     28  C   UNL     1       5.774   5.215  14.815  0.00  0.00    +0.000 C 
ENDBRANCH  19  22
ENDBRANCH   7  18
TORSDOF 3
ENDMDL
MODEL 9
REMARK VINA RESULT:      -7.4      3.297      8.728
REMARK  Name = 
REMARK  4 active torsions:
REMARK  status: ('A' for Active; 'I' for Inactive)
REMARK    1  A    between atoms: C_1  and  C_2
REMARK    2  A    between atoms: C_5  and  C_6
REMARK    3  A    between atoms: C_17  and  N_18
REMARK    4  A    between atoms: C_19  and  C_21
REMARK                            x       y       z     vdW  Elec       q    Type
REMARK                         _______ _______ _______ _____ _____    ______ ____
ROOT
ATOM      1  C   UNL     1       2.344   2.513  19.981  0.00  0.00    +0.000 C 
ATOM      2  C   UNL     1       2.177   4.000  19.834  0.00  0.00    +0.000 A 
ATOM      3  C   UNL     1       1.226   4.629  20.662  0.00  0.00    +0.000 A 
ATOM      4  C   UNL     1       1.027   6.012  20.606  0.00  0.00    +0.000 A 
ATOM      5  C   UNL     1       1.767   6.798  19.725  0.00  0.00    +0.000 A 
ATOM      6  C   UNL     1       2.719   6.169  18.907  0.00  0.00    +0.000 A 
ATOM      7  C   UNL     1       2.924   4.781  18.926  0.00  0.00    +0.000 A 
ENDROOT
BRANCH   5   8
ATOM      8  C   UNL     1       1.562   8.251  19.714  0.00  0.00    +0.000 A 
ATOM      9  N   UNL     1       2.073   9.070  18.813  0.00  0.00    +0.000 NA
ATOM     10  N   UNL     1       1.597  10.332  19.042  0.00  0.00    +0.000 NA
ATOM     11  C   UNL     1       0.827  10.295  20.109  0.00  0.00    +0.000 A 
ATOM     12  N   UNL     1       0.840   9.017  20.613  0.00  0.00    +0.000 N 
ATOM     13  C   UNL     1       0.256   8.568  21.864  0.00  0.00    +0.000 C 
ATOM     14  C   UNL     1       0.306   9.591  22.991  0.00  0.00    +0.000 C 
ATOM     15  C   UNL     1      -0.785  10.657  22.906  0.00  0.00    +0.000 C 
ATOM     16  C   UNL     1      -1.128  11.133  21.495  0.00  0.00    +0.000 C 
ATOM     17  C   UNL     1       0.100  11.473  20.659  0.00  0.00    +0.000 C 
ENDBRANCH   5   8
BRANCH   7  18
ATOM     18  N   UNL     1       3.817   4.162  18.007  0.00  0.00    +0.000 N 
ATOM     19  C   UNL     1       5.201   4.027  18.133  0.00  0.00    +0.000 C 
ATOM     20  O   UNL     1       5.846   4.231  19.158  0.00  0.00    +0.000 OA
ATOM     21  H   UNL     1       3.391   3.753  17.186  0.00  0.00    +0.000 HD
BRANCH  19  22
ATOM     22  C   UNL     1       5.906   3.793  16.801  0.00  0.00    +0.000 C 
ATOM     23  C   UNL     1       7.308   4.423  16.594  0.00  0.00    +0.000 C 
ATOM     24  C   UNL     1       7.246   4.918  15.126  0.00  0.00    +0.000 C 
ATOM     25  C   UNL     1       6.381   6.151  15.111  0.00  0.00    +0.000 C 
ATOM     26  C   UNL     1       5.125   5.749  15.364  0.00  0.00    +0.000 C 
ATOM     27  C   UNL     1       5.149   4.240  15.521  0.00  0.00    +0.000 C 
ATOM     28  C   UNL     1       6.250   3.944  14.487  0.00  0.00    +0.000 C 
ENDBRANCH  19  22
ENDBRANCH   7  18
TORSDOF 3
ENDMDL
