MODEL 1
REMARK VINA RESULT:      -8.1      0.000      0.000
REMARK  Name = 
REMARK  5 active torsions:
REMARK  status: ('A' for Active; 'I' for Inactive)
REMARK    1  A    between atoms: C_2  and  C_14
REMARK    2  A    between atoms: N_3  and  C_4
REMARK    3  A    between atoms: C_4  and  C_5
REMARK    4  A    between atoms: C_18  and  C_19
REMARK    5  A    between atoms: C_19  and  N_20
REMARK                            x       y       z     vdW  Elec       q    Type
REMARK                         _______ _______ _______ _____ _____    ______ ____
ROOT
ATOM      1  O   UNL     1       2.204   5.785  18.095  0.00  0.00    +0.000 OA
ATOM      2  C   UNL     1       2.576   6.243  19.168  0.00  0.00    +0.000 C 
ATOM      3  N   UNL     1       3.561   5.654  19.934  0.00  0.00    +0.000 N 
ATOM      4  H   UNL     1       3.656   5.892  20.913  0.00  0.00    +0.000 HD
ENDROOT
BRANCH   2   5
ATOM      5  C   UNL     1       1.939   7.462  19.731  0.00  0.00    +0.000 A 
ATOM      6  C   UNL     1       1.662   7.505  21.102  0.00  0.00    +0.000 A 
ATOM      7  C   UNL     1       1.084   8.644  21.664  0.00  0.00    +0.000 A 
ATOM      8  C   UNL     1       0.797   9.748  20.863  0.00  0.00    +0.000 A 
ATOM      9  C   UNL     1       1.065   9.717  19.487  0.00  0.00    +0.000 A 
ATOM     10  C   UNL     1       1.613   8.555  18.921  0.00  0.00    +0.000 A 
BRANCH   9  11
ATOM     11  C   UNL     1       0.861  10.951  18.646  0.00  0.00    +0.000 C 
BRANCH  11  12
ATOM     12  N   UNL     1      -0.547  11.188  18.371  0.00  0.00    +0.000 N 
ATOM     13  C   UNL     1      -1.405  10.191  17.777  0.00  0.00    +0.000 C 
ATOM     14  C   UNL     1      -2.730  10.910  17.633  0.00  0.00    +0.000 C 
ATOM     15  C   UNL     1      -2.745  11.867  18.816  0.00  0.00    +0.000 C 
ATOM     16  C   UNL     1      -1.281  12.160  19.038  0.00  0.00    +0.000 C 
ATOM     17  O   UNL     1      -0.841  13.053  19.743  0.00  0.00    +0.000 OA
ENDBRANCH  11  12
ENDBRANCH   9  11
ENDBRANCH   2   5
BRANCH   3  18
ATOM     18  C   UNL     1       4.140   4.403  19.499  0.00  0.00    +0.000 C 
BRANCH  18  19
ATOM     19  C   UNL     1       5.452   4.646  18.848  0.00  0.00    +0.000 A 
ATOM     20  N   UNL     1       6.601   4.904  19.451  0.00  0.00    +0.000 NA
ATOM     21  N   UNL     1       7.582   4.984  18.488  0.00  0.00    +0.000 NA
ATOM     22  C   UNL     1       7.020   4.776  17.319  0.00  0.00    +0.000 A 
ATOM     23  C   UNL     1       7.534   4.723  15.992  0.00  0.00    +0.000 A 
ATOM     24  C   UNL     1       6.696   4.509  14.960  0.00  0.00    +0.000 A 
ATOM     25  C   UNL     1       5.267   4.327  15.169  0.00  0.00    +0.000 A 
ATOM     26  C   UNL     1       4.778   4.356  16.423  0.00  0.00    +0.000 A 
ATOM     27  N   UNL     1       5.656   4.577  17.487  0.00  0.00    +0.000 N 
ENDBRANCH  18  19
ENDBRANCH   3  18
TORSDOF 5
ENDMDL
MODEL 2
REMARK VINA RESULT:      -8.1      0.926      1.204
REMARK  Name = 
REMARK  5 active torsions:
REMARK  status: ('A' for Active; 'I' for Inactive)
REMARK    1  A    between atoms: C_2  and  C_14
REMARK    2  A    between atoms: N_3  and  C_4
REMARK    3  A    between atoms: C_4  and  C_5
REMARK    4  A    between atoms: C_18  and  C_19
REMARK    5  A    between atoms: C_19  and  N_20
REMARK                            x       y       z     vdW  Elec       q    Type
REMARK                         _______ _______ _______ _____ _____    ______ ____
ROOT
ATOM      1  O   UNL     1       2.372   6.264  18.066  0.00  0.00    +0.000 OA
ATOM      2  C   UNL     1       2.541   6.523  19.250  0.00  0.00    +0.000 C 
ATOM      3  N   UNL     1       3.296   5.730  20.091  0.00  0.00    +0.000 N 
ATOM      4  H   UNL     1       3.197   5.814  21.095  0.00  0.00    +0.000 HD
ENDROOT
BRANCH   2   5
ATOM      5  C   UNL     1       1.889   7.709  19.865  0.00  0.00    +0.000 A 
ATOM      6  C   UNL     1       1.766   7.763  21.258  0.00  0.00    +0.000 A 
ATOM      7  C   UNL     1       1.179   8.873  21.867  0.00  0.00    +0.000 A 
ATOM      8  C   UNL     1       0.729   9.938  21.087  0.00  0.00    +0.000 A 
ATOM      9  C   UNL     1       0.842   9.895  19.690  0.00  0.00    +0.000 A 
ATOM     10  C   UNL     1       1.400   8.759  19.082  0.00  0.00    +0.000 A 
BRANCH   9  11
ATOM     11  C   UNL     1       0.460  11.094  18.862  0.00  0.00    +0.000 C 
BRANCH  11  12
ATOM     12  N   UNL     1      -0.978  11.305  18.850  0.00  0.00    +0.000 N 
ATOM     13  C   UNL     1      -1.603  12.456  19.457  0.00  0.00    +0.000 C 
ATOM     14  C   UNL     1      -3.081  12.203  19.249  0.00  0.00    +0.000 C 
ATOM     15  C   UNL     1      -3.129  11.443  17.931  0.00  0.00    +0.000 C 
ATOM     16  C   UNL     1      -1.809  10.710  17.910  0.00  0.00    +0.000 C 
ATOM     17  O   UNL     1      -1.518   9.807  17.143  0.00  0.00    +0.000 OA
ENDBRANCH  11  12
ENDBRANCH   9  11
ENDBRANCH   2   5
BRANCH   3  18
ATOM     18  C   UNL     1       3.861   4.501  19.583  0.00  0.00    +0.000 C 
BRANCH  18  19
ATOM     19  C   UNL     1       5.213   4.752  19.027  0.00  0.00    +0.000 A 
ATOM     20  N   UNL     1       6.301   5.085  19.703  0.00  0.00    +0.000 NA
ATOM     21  N   UNL     1       7.355   5.144  18.819  0.00  0.00    +0.000 NA
ATOM     22  C   UNL     1       6.897   4.849  17.623  0.00  0.00    +0.000 A 
ATOM     23  C   UNL     1       7.520   4.738  16.348  0.00  0.00    +0.000 A 
ATOM     24  C   UNL     1       6.777   4.436  15.266  0.00  0.00    +0.000 A 
ATOM     25  C   UNL     1       5.341   4.216  15.370  0.00  0.00    +0.000 A 
ATOM     26  C   UNL     1       4.751   4.299  16.577  0.00  0.00    +0.000 A 
ATOM     27  N   UNL     1       5.531   4.612  17.693  0.00  0.00    +0.000 N 
ENDBRANCH  18  19
ENDBRANCH   3  18
TORSDOF 5
ENDMDL
MODEL 3
REMARK VINA RESULT:      -8.1      2.833      8.414
REMARK  Name = 
REMARK  5 active torsions:
REMARK  status: ('A' for Active; 'I' for Inactive)
REMARK    1  A    between atoms: C_2  and  C_14
REMARK    2  A    between atoms: N_3  and  C_4
REMARK    3  A    between atoms: C_4  and  C_5
REMARK    4  A    between atoms: C_18  and  C_19
REMARK    5  A    between atoms: C_19  and  N_20
REMARK                            x       y       z     vdW  Elec       q    Type
REMARK                         _______ _______ _______ _____ _____    ______ ____
ROOT
ATOM      1  O   UNL     1       2.776   8.688  16.901  0.00  0.00    +0.000 OA
ATOM      2  C   UNL     1       2.776   7.863  17.806  0.00  0.00    +0.000 C 
ATOM      3  N   UNL     1       2.052   8.025  18.970  0.00  0.00    +0.000 N 
ATOM      4  H   UNL     1       2.277   7.478  19.790  0.00  0.00    +0.000 HD
ENDROOT
BRANCH   2   5
ATOM      5  C   UNL     1       3.611   6.638  17.711  0.00  0.00    +0.000 A 
ATOM      6  C   UNL     1       4.997   6.776  17.573  0.00  0.00    +0.000 A 
ATOM      7  C   UNL     1       5.811   5.645  17.504  0.00  0.00    +0.000 A 
ATOM      8  C   UNL     1       5.245   4.373  17.589  0.00  0.00    +0.000 A 
ATOM      9  C   UNL     1       3.858   4.219  17.723  0.00  0.00    +0.000 A 
ATOM     10  C   UNL     1       3.041   5.361  17.755  0.00  0.00    +0.000 A 
BRANCH   9  11
ATOM     11  C   UNL     1       3.263   2.850  17.929  0.00  0.00    +0.000 C 
BRANCH  11  12
ATOM     12  N   UNL     1       2.651   2.722  19.241  0.00  0.00    +0.000 N 
ATOM     13  C   UNL     1       3.320   3.118  20.457  0.00  0.00    +0.000 C 
ATOM     14  C   UNL     1       2.331   2.740  21.540  0.00  0.00    +0.000 C 
ATOM     15  C   UNL     1       0.979   2.933  20.870  0.00  0.00    +0.000 C 
ATOM     16  C   UNL     1       1.275   2.653  19.416  0.00  0.00    +0.000 C 
ATOM     17  O   UNL     1       0.436   2.475  18.548  0.00  0.00    +0.000 OA
ENDBRANCH  11  12
ENDBRANCH   9  11
ENDBRANCH   2   5
BRANCH   3  18
ATOM     18  C   UNL     1       1.310   9.249  19.174  0.00  0.00    +0.000 C 
BRANCH  18  19
ATOM     19  C   UNL     1       0.840   9.333  20.579  0.00  0.00    +0.000 A 
ATOM     20  N   UNL     1       1.246   8.593  21.598  0.00  0.00    +0.000 NA
ATOM     21  N   UNL     1       0.618   9.047  22.736  0.00  0.00    +0.000 NA
ATOM     22  C   UNL     1      -0.160  10.051  22.396  0.00  0.00    +0.000 A 
ATOM     23  C   UNL     1      -1.020  10.905  23.142  0.00  0.00    +0.000 A 
ATOM     24  C   UNL     1      -1.728  11.858  22.507  0.00  0.00    +0.000 A 
ATOM     25  C   UNL     1      -1.634  12.038  21.065  0.00  0.00    +0.000 A 
ATOM     26  C   UNL     1      -0.806  11.246  20.357  0.00  0.00    +0.000 A 
ATOM     27  N   UNL     1      -0.074  10.262  21.026  0.00  0.00    +0.000 N 
ENDBRANCH  18  19
ENDBRANCH   3  18
TORSDOF 5
ENDMDL
MODEL 4
REMARK VINA RESULT:      -8.0      2.372      8.160
REMARK  Name = 
REMARK  5 active torsions:
REMARK  status: ('A' for Active; 'I' for Inactive)
REMARK    1  A    between atoms: C_2  and  C_14
REMARK    2  A    between atoms: N_3  and  C_4
REMARK    3  A    between atoms: C_4  and  C_5
REMARK    4  A    between atoms: C_18  and  C_19
REMARK    5  A    between atoms: C_19  and  N_20
REMARK                            x       y       z     vdW  Elec       q    Type
REMARK                         _______ _______ _______ _____ _____    ______ ____
ROOT
ATOM      1  O   UNL     1       0.833   4.879  20.692  0.00  0.00    +0.000 OA
ATOM      2  C   UNL     1       1.845   5.209  20.088  0.00  0.00    +0.000 C 
ATOM      3  N   UNL     1       2.371   6.484  20.146  0.00  0.00    +0.000 N 
ATOM      4  H   UNL     1       3.030   6.796  19.444  0.00  0.00    +0.000 HD
ENDROOT
BRANCH   2   5
ATOM      5  C   UNL     1       2.549   4.242  19.206  0.00  0.00    +0.000 A 
ATOM      6  C   UNL     1       2.053   2.937  19.106  0.00  0.00    +0.000 A 
ATOM      7  C   UNL     1       2.678   2.012  18.269  0.00  0.00    +0.000 A 
ATOM      8  C   UNL     1       3.789   2.392  17.517  0.00  0.00    +0.000 A 
ATOM      9  C   UNL     1       4.299   3.694  17.611  0.00  0.00    +0.000 A 
ATOM     10  C   UNL     1       3.688   4.610  18.483  0.00  0.00    +0.000 A 
BRANCH   9  11
ATOM     11  C   UNL     1       5.427   4.133  16.713  0.00  0.00    +0.000 C 
BRANCH  11  12
ATOM     12  N   UNL     1       6.213   5.197  17.316  0.00  0.00    +0.000 N 
ATOM     13  C   UNL     1       7.348   4.941  18.170  0.00  0.00    +0.000 C 
ATOM     14  C   UNL     1       7.786   6.327  18.594  0.00  0.00    +0.000 C 
ATOM     15  C   UNL     1       7.437   7.194  17.394  0.00  0.00    +0.000 C 
ATOM     16  C   UNL     1       6.248   6.483  16.793  0.00  0.00    +0.000 C 
ATOM     17  O   UNL     1       5.506   6.947  15.943  0.00  0.00    +0.000 OA
ENDBRANCH  11  12
ENDBRANCH   9  11
ENDBRANCH   2   5
BRANCH   3  18
ATOM     18  C   UNL     1       1.670   7.503  20.893  0.00  0.00    +0.000 C 
BRANCH  18  19
ATOM     19  C   UNL     1       1.351   8.654  20.012  0.00  0.00    +0.000 A 
ATOM     20  N   UNL     1       1.701   8.806  18.745  0.00  0.00    +0.000 NA
ATOM     21  N   UNL     1       1.136   9.971  18.279  0.00  0.00    +0.000 NA
ATOM     22  C   UNL     1       0.454  10.512  19.264  0.00  0.00    +0.000 A 
ATOM     23  C   UNL     1      -0.337  11.692  19.361  0.00  0.00    +0.000 A 
ATOM     24  C   UNL     1      -0.914  12.013  20.535  0.00  0.00    +0.000 A 
ATOM     25  C   UNL     1      -0.748  11.178  21.716  0.00  0.00    +0.000 A 
ATOM     26  C   UNL     1      -0.017  10.051  21.624  0.00  0.00    +0.000 A 
ATOM     27  N   UNL     1       0.575   9.724  20.401  0.00  0.00    +0.000 N 
ENDBRANCH  18  19
ENDBRANCH   3  18
TORSDOF 5
ENDMDL
MODEL 5
REMARK VINA RESULT:      -8.0      2.501      8.563
REMARK  Name = 
REMARK  5 active torsions:
REMARK  status: ('A' for Active; 'I' for Inactive)
REMARK    1  A    between atoms: C_2  and  C_14
REMARK    2  A    between atoms: N_3  and  C_4
REMARK    3  A    between atoms: C_4  and  C_5
REMARK    4  A    between atoms: C_18  and  C_19
REMARK    5  A    between atoms: C_19  and  N_20
REMARK                            x       y       z     vdW  Elec       q    Type
REMARK                         _______ _______ _______ _____ _____    ______ ____
ROOT
ATOM      1  O   UNL     1       1.536   5.251  20.855  0.00  0.00    +0.000 OA
ATOM      2  C   UNL     1       2.131   5.900  20.004  0.00  0.00    +0.000 C 
ATOM      3  N   UNL     1       2.204   7.278  20.026  0.00  0.00    +0.000 N 
ATOM      4  H   UNL     1       2.459   7.788  19.191  0.00  0.00    +0.000 HD
ENDROOT
BRANCH   2   5
ATOM      5  C   UNL     1       2.782   5.221  18.854  0.00  0.00    +0.000 A 
ATOM      6  C   UNL     1       2.297   3.973  18.446  0.00  0.00    +0.000 A 
ATOM      7  C   UNL     1       2.873   3.320  17.355  0.00  0.00    +0.000 A 
ATOM      8  C   UNL     1       3.922   3.919  16.659  0.00  0.00    +0.000 A 
ATOM      9  C   UNL     1       4.421   5.167  17.060  0.00  0.00    +0.000 A 
ATOM     10  C   UNL     1       3.862   5.801  18.181  0.00  0.00    +0.000 A 
BRANCH   9  11
ATOM     11  C   UNL     1       5.476   5.861  16.238  0.00  0.00    +0.000 C 
BRANCH  11  12
ATOM     12  N   UNL     1       6.583   6.321  17.060  0.00  0.00    +0.000 N 
ATOM     13  C   UNL     1       6.774   7.709  17.408  0.00  0.00    +0.000 C 
ATOM     14  C   UNL     1       8.064   7.697  18.201  0.00  0.00    +0.000 C 
ATOM     15  C   UNL     1       8.043   6.342  18.893  0.00  0.00    +0.000 C 
ATOM     16  C   UNL     1       7.261   5.479  17.933  0.00  0.00    +0.000 C 
ATOM     17  O   UNL     1       7.189   4.262  17.978  0.00  0.00    +0.000 OA
ENDBRANCH  11  12
ENDBRANCH   9  11
ENDBRANCH   2   5
BRANCH   3  18
ATOM     18  C   UNL     1       1.493   8.005  21.054  0.00  0.00    +0.000 C 
BRANCH  18  19
ATOM     19  C   UNL     1       0.841   9.205  20.473  0.00  0.00    +0.000 A 
ATOM     20  N   UNL     1       0.886   9.601  19.211  0.00  0.00    +0.000 NA
ATOM     21  N   UNL     1       0.084  10.712  19.081  0.00  0.00    +0.000 NA
ATOM     22  C   UNL     1      -0.435  10.978  20.259  0.00  0.00    +0.000 A 
ATOM     23  C   UNL     1      -1.335  11.981  20.717  0.00  0.00    +0.000 A 
ATOM     24  C   UNL     1      -1.682  12.023  22.017  0.00  0.00    +0.000 A 
ATOM     25  C   UNL     1      -1.154  11.059  22.974  0.00  0.00    +0.000 A 
ATOM     26  C   UNL     1      -0.318  10.097  22.542  0.00  0.00    +0.000 A 
ATOM     27  N   UNL     1       0.033  10.061  21.190  0.00  0.00    +0.000 N 
ENDBRANCH  18  19
ENDBRANCH   3  18
TORSDOF 5
ENDMDL
MODEL 6
REMARK VINA RESULT:      -7.9      2.477      8.907
REMARK  Name = 
REMARK  5 active torsions:
REMARK  status: ('A' for Active; 'I' for Inactive)
REMARK    1  A    between atoms: C_2  and  C_14
REMARK    2  A    between atoms: N_3  and  C_4
REMARK    3  A    between atoms: C_4  and  C_5
REMARK    4  A    between atoms: C_18  and  C_19
REMARK    5  A    between atoms: C_19  and  N_20
REMARK                            x       y       z     vdW  Elec       q    Type
REMARK                         _______ _______ _______ _____ _____    ______ ____
ROOT
ATOM      1  O   UNL     1       2.008   8.069  17.803  0.00  0.00    +0.000 OA
ATOM      2  C   UNL     1       2.157   7.599  18.924  0.00  0.00    +0.000 C 
ATOM      3  N   UNL     1       1.716   8.232  20.068  0.00  0.00    +0.000 N 
ATOM      4  H   UNL     1       2.082   7.965  20.972  0.00  0.00    +0.000 HD
ENDROOT
BRANCH   2   5
ATOM      5  C   UNL     1       2.879   6.314  19.115  0.00  0.00    +0.000 A 
ATOM      6  C   UNL     1       2.180   5.219  19.635  0.00  0.00    +0.000 A 
ATOM      7  C   UNL     1       2.823   3.993  19.805  0.00  0.00    +0.000 A 
ATOM      8  C   UNL     1       4.161   3.852  19.440  0.00  0.00    +0.000 A 
ATOM      9  C   UNL     1       4.876   4.942  18.921  0.00  0.00    +0.000 A 
ATOM     10  C   UNL     1       4.232   6.182  18.788  0.00  0.00    +0.000 A 
BRANCH   9  11
ATOM     11  C   UNL     1       6.286   4.756  18.422  0.00  0.00    +0.000 C 
BRANCH  11  12
ATOM     12  N   UNL     1       6.327   4.571  16.981  0.00  0.00    +0.000 N 
ATOM     13  C   UNL     1       5.417   3.695  16.281  0.00  0.00    +0.000 C 
ATOM     14  C   UNL     1       5.883   3.785  14.843  0.00  0.00    +0.000 C 
ATOM     15  C   UNL     1       6.410   5.207  14.728  0.00  0.00    +0.000 C 
ATOM     16  C   UNL     1       6.891   5.508  16.127  0.00  0.00    +0.000 C 
ATOM     17  O   UNL     1       7.591   6.457  16.442  0.00  0.00    +0.000 OA
ENDBRANCH  11  12
ENDBRANCH   9  11
ENDBRANCH   2   5
BRANCH   3  18
ATOM     18  C   UNL     1       1.110   9.541  19.961  0.00  0.00    +0.000 C 
BRANCH  18  19
ATOM     19  C   UNL     1       0.469   9.914  21.246  0.00  0.00    +0.000 A 
ATOM     20  N   UNL     1       0.797   9.479  22.453  0.00  0.00    +0.000 NA
ATOM     21  N   UNL     1       0.008  10.132  23.373  0.00  0.00    +0.000 NA
ATOM     22  C   UNL     1      -0.786  10.950  22.719  0.00  0.00    +0.000 A 
ATOM     23  C   UNL     1      -1.783  11.874  23.139  0.00  0.00    +0.000 A 
ATOM     24  C   UNL     1      -2.470  12.579  22.219  0.00  0.00    +0.000 A 
ATOM     25  C   UNL     1      -2.214  12.417  20.794  0.00  0.00    +0.000 A 
ATOM     26  C   UNL     1      -1.258  11.559  20.393  0.00  0.00    +0.000 A 
ATOM     27  N   UNL     1      -0.550  10.835  21.355  0.00  0.00    +0.000 N 
ENDBRANCH  18  19
ENDBRANCH   3  18
TORSDOF 5
ENDMDL
MODEL 7
REMARK VINA RESULT:      -7.8      1.864      2.526
REMARK  Name = 
REMARK  5 active torsions:
REMARK  status: ('A' for Active; 'I' for Inactive)
REMARK    1  A    between atoms: C_2  and  C_14
REMARK    2  A    between atoms: N_3  and  C_4
REMARK    3  A    between atoms: C_4  and  C_5
REMARK    4  A    between atoms: C_18  and  C_19
REMARK    5  A    between atoms: C_19  and  N_20
REMARK                            x       y       z     vdW  Elec       q    Type
REMARK                         _______ _______ _______ _____ _____    ______ ____
ROOT
ATOM      1  O   UNL     1       2.452   3.984  17.772  0.00  0.00    +0.000 OA
ATOM      2  C   UNL     1       3.050   5.052  17.799  0.00  0.00    +0.000 C 
ATOM      3  N   UNL     1       4.252   5.256  17.152  0.00  0.00    +0.000 N 
ATOM      4  H   UNL     1       4.843   6.036  17.408  0.00  0.00    +0.000 HD
ENDROOT
BRANCH   2   5
ATOM      5  C   UNL     1       2.520   6.194  18.588  0.00  0.00    +0.000 A 
ATOM      6  C   UNL     1       2.233   6.002  19.943  0.00  0.00    +0.000 A 
ATOM      7  C   UNL     1       1.755   7.061  20.716  0.00  0.00    +0.000 A 
ATOM      8  C   UNL     1       1.579   8.319  20.140  0.00  0.00    +0.000 A 
ATOM      9  C   UNL     1       1.859   8.525  18.782  0.00  0.00    +0.000 A 
ATOM     10  C   UNL     1       2.305   7.446  18.002  0.00  0.00    +0.000 A 
BRANCH   9  11
ATOM     11  C   UNL     1       1.778   9.910  18.193  0.00  0.00    +0.000 C 
BRANCH  11  12
ATOM     12  N   UNL     1       0.472  10.511  18.409  0.00  0.00    +0.000 N 
ATOM     13  C   UNL     1      -0.745   9.946  17.878  0.00  0.00    +0.000 C 
ATOM     14  C   UNL     1      -1.807  10.938  18.304  0.00  0.00    +0.000 C 
ATOM     15  C   UNL     1      -1.283  11.473  19.628  0.00  0.00    +0.000 C 
ATOM     16  C   UNL     1       0.215  11.369  19.471  0.00  0.00    +0.000 C 
ATOM     17  O   UNL     1       1.038  11.892  20.203  0.00  0.00    +0.000 OA
ENDBRANCH  11  12
ENDBRANCH   9  11
ENDBRANCH   2   5
BRANCH   3  18
ATOM     18  C   UNL     1       4.879   4.150  16.463  0.00  0.00    +0.000 C 
BRANCH  18  19
ATOM     19  C   UNL     1       5.957   4.647  15.573  0.00  0.00    +0.000 A 
ATOM     20  N   UNL     1       6.961   5.442  15.908  0.00  0.00    +0.000 NA
ATOM     21  N   UNL     1       7.775   5.594  14.809  0.00  0.00    +0.000 NA
ATOM     22  C   UNL     1       7.258   4.894  13.823  0.00  0.00    +0.000 A 
ATOM     23  C   UNL     1       7.667   4.666  12.479  0.00  0.00    +0.000 A 
ATOM     24  C   UNL     1       6.907   3.903  11.671  0.00  0.00    +0.000 A 
ATOM     25  C   UNL     1       5.668   3.299  12.142  0.00  0.00    +0.000 A 
ATOM     26  C   UNL     1       5.287   3.496  13.418  0.00  0.00    +0.000 A 
ATOM     27  N   UNL     1       6.084   4.287  14.249  0.00  0.00    +0.000 N 
ENDBRANCH  18  19
ENDBRANCH   3  18
TORSDOF 5
ENDMDL
MODEL 8
REMARK VINA RESULT:      -7.8      2.910      9.170
REMARK  Name = 
REMARK  5 active torsions:
REMARK  status: ('A' for Active; 'I' for Inactive)
REMARK    1  A    between atoms: C_2  and  C_14
REMARK    2  A    between atoms: N_3  and  C_4
REMARK    3  A    between atoms: C_4  and  C_5
REMARK    4  A    between atoms: C_18  and  C_19
REMARK    5  A    between atoms: C_19  and  N_20
REMARK                            x       y       z     vdW  Elec       q    Type
REMARK                         _______ _______ _______ _____ _____    ______ ____
ROOT
ATOM      1  O   UNL     1       1.630   9.989  17.397  0.00  0.00    +0.000 OA
ATOM      2  C   UNL     1       1.755   9.279  18.387  0.00  0.00    +0.000 C 
ATOM      3  N   UNL     1       1.200   9.592  19.611  0.00  0.00    +0.000 N 
ATOM      4  H   UNL     1       1.537   9.144  20.453  0.00  0.00    +0.000 HD
ENDROOT
BRANCH   2   5
ATOM      5  C   UNL     1       2.569   8.037  18.327  0.00  0.00    +0.000 A 
ATOM      6  C   UNL     1       3.550   7.921  17.336  0.00  0.00    +0.000 A 
ATOM      7  C   UNL     1       4.345   6.777  17.267  0.00  0.00    +0.000 A 
ATOM      8  C   UNL     1       4.175   5.753  18.199  0.00  0.00    +0.000 A 
ATOM      9  C   UNL     1       3.193   5.853  19.195  0.00  0.00    +0.000 A 
ATOM     10  C   UNL     1       2.371   6.991  19.235  0.00  0.00    +0.000 A 
BRANCH   9  11
ATOM     11  C   UNL     1       3.089   4.799  20.266  0.00  0.00    +0.000 C 
BRANCH  11  12
ATOM     12  N   UNL     1       2.801   3.489  19.707  0.00  0.00    +0.000 N 
ATOM     13  C   UNL     1       1.637   3.226  18.894  0.00  0.00    +0.000 C 
ATOM     14  C   UNL     1       1.738   1.742  18.608  0.00  0.00    +0.000 C 
ATOM     15  C   UNL     1       3.238   1.489  18.566  0.00  0.00    +0.000 C 
ATOM     16  C   UNL     1       3.788   2.532  19.510  0.00  0.00    +0.000 C 
ATOM     17  O   UNL     1       4.925   2.552  19.950  0.00  0.00    +0.000 OA
ENDBRANCH  11  12
ENDBRANCH   9  11
ENDBRANCH   2   5
BRANCH   3  18
ATOM     18  C   UNL     1       0.494  10.844  19.765  0.00  0.00    +0.000 C 
BRANCH  18  19
ATOM     19  C   UNL     1      -0.126  10.919  21.111  0.00  0.00    +0.000 A 
ATOM     20  N   UNL     1       0.359  10.421  22.238  0.00  0.00    +0.000 NA
ATOM     21  N   UNL     1      -0.485  10.780  23.264  0.00  0.00    +0.000 NA
ATOM     22  C   UNL     1      -1.469  11.486  22.752  0.00  0.00    +0.000 A 
ATOM     23  C   UNL     1      -2.604  12.124  23.326  0.00  0.00    +0.000 A 
ATOM     24  C   UNL     1      -3.476  12.775  22.532  0.00  0.00    +0.000 A 
ATOM     25  C   UNL     1      -3.284  12.842  21.090  0.00  0.00    +0.000 A 
ATOM     26  C   UNL     1      -2.201  12.257  20.545  0.00  0.00    +0.000 A 
ATOM     27  N   UNL     1      -1.301  11.587  21.377  0.00  0.00    +0.000 N 
ENDBRANCH  18  19
ENDBRANCH   3  18
TORSDOF 5
ENDMDL
MODEL 9
REMARK VINA RESULT:      -7.8      2.672      8.929
REMARK  Name = 
REMARK  5 active torsions:
REMARK  status: ('A' for Active; 'I' for Inactive)
REMARK    1  A    between atoms: C_2  and  C_14
REMARK    2  A    between atoms: N_3  and  C_4
REMARK    3  A    between atoms: C_4  and  C_5
REMARK    4  A    between atoms: C_18  and  C_19
REMARK    5  A    between atoms: C_19  and  N_20
REMARK                            x       y       z     vdW  Elec       q    Type
REMARK                         _______ _______ _______ _____ _____    ______ ____
ROOT
ATOM      1  O   UNL     1       1.846   8.212  18.107  0.00  0.00    +0.000 OA
ATOM      2  C   UNL     1       1.932   7.757  19.240  0.00  0.00    +0.000 C 
ATOM      3  N   UNL     1       1.508   8.445  20.359  0.00  0.00    +0.000 N 
ATOM      4  H   UNL     1       1.831   8.172  21.278  0.00  0.00    +0.000 HD
ENDROOT
BRANCH   2   5
ATOM      5  C   UNL     1       2.555   6.429  19.476  0.00  0.00    +0.000 A 
ATOM      6  C   UNL     1       1.945   5.549  20.376  0.00  0.00    +0.000 A 
ATOM      7  C   UNL     1       2.492   4.285  20.602  0.00  0.00    +0.000 A 
ATOM      8  C   UNL     1       3.641   3.891  19.916  0.00  0.00    +0.000 A 
ATOM      9  C   UNL     1       4.266   4.765  19.014  0.00  0.00    +0.000 A 
ATOM     10  C   UNL     1       3.730   6.048  18.820  0.00  0.00    +0.000 A 
BRANCH   9  11
ATOM     11  C   UNL     1       5.438   4.295  18.192  0.00  0.00    +0.000 C 
BRANCH  11  12
ATOM     12  N   UNL     1       6.420   5.349  18.003  0.00  0.00    +0.000 N 
ATOM     13  C   UNL     1       6.276   6.379  17.001  0.00  0.00    +0.000 C 
ATOM     14  C   UNL     1       7.549   7.187  17.144  0.00  0.00    +0.000 C 
ATOM     15  C   UNL     1       7.876   7.076  18.626  0.00  0.00    +0.000 C 
ATOM     16  C   UNL     1       7.303   5.731  19.004  0.00  0.00    +0.000 C 
ATOM     17  O   UNL     1       7.531   5.137  20.044  0.00  0.00    +0.000 OA
ENDBRANCH  11  12
ENDBRANCH   9  11
ENDBRANCH   2   5
BRANCH   3  18
ATOM     18  C   UNL     1       1.000   9.790  20.210  0.00  0.00    +0.000 C 
BRANCH  18  19
ATOM     19  C   UNL     1       0.242  10.187  21.421  0.00  0.00    +0.000 A 
ATOM     20  N   UNL     1       0.469   9.797  22.665  0.00  0.00    +0.000 NA
ATOM     21  N   UNL     1      -0.410  10.459  23.491  0.00  0.00    +0.000 NA
ATOM     22  C   UNL     1      -1.159  11.239  22.744  0.00  0.00    +0.000 A 
ATOM     23  C   UNL     1      -2.208  12.153  23.045  0.00  0.00    +0.000 A 
ATOM     24  C   UNL     1      -2.824  12.814  22.047  0.00  0.00    +0.000 A 
ATOM     25  C   UNL     1      -2.440  12.616  20.656  0.00  0.00    +0.000 A 
ATOM     26  C   UNL     1      -1.436  11.767  20.367  0.00  0.00    +0.000 A 
ATOM     27  N   UNL     1      -0.801  11.088  21.411  0.00  0.00    +0.000 N 
ENDBRANCH  18  19
ENDBRANCH   3  18
TORSDOF 5
ENDMDL
