MODEL 1
REMARK VINA RESULT:      -9.0      0.000      0.000
REMARK  Name = 
REMARK  7 active torsions:
REMARK  status: ('A' for Active; 'I' for Inactive)
REMARK    1  A    between atoms: C_1  and  N_2
REMARK    2  A    between atoms: C_6  and  C_7
REMARK    3  A    between atoms: C_7  and  N_8
REMARK    4  A    between atoms: N_8  and  C_9
REMARK    5  A    between atoms: C_13  and  N_14
REMARK    6  A    between atoms: C_19  and  C_20
REMARK    7  A    between atoms: C_23  and  C_24
REMARK                            x       y       z     vdW  Elec       q    Type
REMARK                         _______ _______ _______ _____ _____    ______ ____
ROOT
ATOM      1  C   UNL     1       2.238   7.396  19.688  0.00  0.00    +0.000 A 
ATOM      2  C   UNL     1       2.714   8.128  18.592  0.00  0.00    +0.000 A 
ATOM      3  C   UNL     1       3.239   7.480  17.478  0.00  0.00    +0.000 A 
ATOM      4  C   UNL     1       3.425   6.104  17.501  0.00  0.00    +0.000 A 
ATOM      5  C   UNL     1       3.243   5.411  18.708  0.00  0.00    +0.000 A 
ATOM      6  C   UNL     1       2.536   6.030  19.748  0.00  0.00    +0.000 A 
ENDROOT
BRANCH   5   7
ATOM      7  N   UNL     1       4.150   4.322  19.054  0.00  0.00    +0.000 N 
ATOM      8  C   UNL     1       5.508   4.862  19.311  0.00  0.00    +0.000 C 
ATOM      9  C   UNL     1       6.119   4.807  17.943  0.00  0.00    +0.000 A 
ATOM     10  C   UNL     1       5.509   3.760  17.252  0.00  0.00    +0.000 A 
ATOM     11  C   UNL     1       5.681   3.559  15.893  0.00  0.00    +0.000 A 
ATOM     12  C   UNL     1       6.474   4.479  15.195  0.00  0.00    +0.000 A 
ATOM     13  C   UNL     1       7.084   5.551  15.891  0.00  0.00    +0.000 A 
ATOM     14  C   UNL     1       6.917   5.733  17.279  0.00  0.00    +0.000 A 
ATOM     15  C   UNL     1       4.329   3.336  18.048  0.00  0.00    +0.000 C 
ATOM     16  O   UNL     1       3.572   2.441  17.719  0.00  0.00    +0.000 OA
BRANCH  14  17
ATOM     17  C   UNL     1       7.421   6.979  17.955  0.00  0.00    +0.000 C 
ATOM     18  F   UNL     1       8.376   6.720  18.892  0.00  0.00    +0.000 F 
ATOM     19  F   UNL     1       7.985   7.867  17.091  0.00  0.00    +0.000 F 
ENDBRANCH  14  17
BRANCH  12  20
ATOM     20  C   UNL     1       6.573   4.388  13.694  0.00  0.00    +0.000 C 
ATOM     21  F   UNL     1       7.517   5.216  13.162  0.00  0.00    +0.000 F 
ENDBRANCH  12  20
ENDBRANCH   5   7
BRANCH   1  22
ATOM     22  N   UNL     1       1.646   8.096  20.761  0.00  0.00    +0.000 N 
ATOM     23  H   UNL     1       2.385   8.395  21.399  0.00  0.00    +0.000 HD
BRANCH  22  24
ATOM     24  C   UNL     1       0.863   9.276  20.356  0.00  0.00    +0.000 C 
BRANCH  24  30
ATOM     25  C   UNL     1      -1.202  11.600  20.157  0.00  0.00    +0.000 C 
ATOM     26  N   UNL     1      -0.706  11.009  21.362  0.00  0.00    +0.000 N 
ATOM     27  C   UNL     1      -1.058  11.349  22.632  0.00  0.00    +0.000 A 
ATOM     28  N   UNL     1      -0.430  10.582  23.488  0.00  0.00    +0.000 NA
ATOM     29  N   UNL     1       0.357   9.717  22.772  0.00  0.00    +0.000 NA
ATOM     30  C   UNL     1       0.198   9.981  21.491  0.00  0.00    +0.000 A 
ENDBRANCH  24  30
ENDBRANCH  22  24
ENDBRANCH   1  22
TORSDOF 6
ENDMDL
MODEL 2
REMARK VINA RESULT:      -8.6      4.716      6.635
REMARK  Name = 
REMARK  7 active torsions:
REMARK  status: ('A' for Active; 'I' for Inactive)
REMARK    1  A    between atoms: C_1  and  N_2
REMARK    2  A    between atoms: C_6  and  C_7
REMARK    3  A    between atoms: C_7  and  N_8
REMARK    4  A    between atoms: N_8  and  C_9
REMARK    5  A    between atoms: C_13  and  N_14
REMARK    6  A    between atoms: C_19  and  C_20
REMARK    7  A    between atoms: C_23  and  C_24
REMARK                            x       y       z     vdW  Elec       q    Type
REMARK                         _______ _______ _______ _____ _____    ______ ____
ROOT
ATOM      1  C   UNL     1       8.094   7.258  18.402  0.00  0.00    +0.000 A 
ATOM      2  C   UNL     1       8.040   6.167  19.280  0.00  0.00    +0.000 A 
ATOM      3  C   UNL     1       7.785   4.883  18.806  0.00  0.00    +0.000 A 
ATOM      4  C   UNL     1       7.443   4.694  17.473  0.00  0.00    +0.000 A 
ATOM      5  C   UNL     1       7.189   5.814  16.668  0.00  0.00    +0.000 A 
ATOM      6  C   UNL     1       7.634   7.073  17.093  0.00  0.00    +0.000 A 
ENDROOT
BRANCH   5   7
ATOM      7  N   UNL     1       6.101   5.768  15.696  0.00  0.00    +0.000 N 
ATOM      8  C   UNL     1       4.948   6.557  16.198  0.00  0.00    +0.000 C 
ATOM      9  C   UNL     1       4.181   5.519  16.960  0.00  0.00    +0.000 A 
ATOM     10  C   UNL     1       4.442   4.284  16.367  0.00  0.00    +0.000 A 
ATOM     11  C   UNL     1       4.065   3.082  16.943  0.00  0.00    +0.000 A 
ATOM     12  C   UNL     1       3.432   3.130  18.191  0.00  0.00    +0.000 A 
ATOM     13  C   UNL     1       3.177   4.382  18.802  0.00  0.00    +0.000 A 
ATOM     14  C   UNL     1       3.547   5.599  18.196  0.00  0.00    +0.000 A 
ATOM     15  C   UNL     1       5.576   4.476  15.429  0.00  0.00    +0.000 C 
ATOM     16  O   UNL     1       6.059   3.587  14.752  0.00  0.00    +0.000 OA
BRANCH  14  17
ATOM     17  C   UNL     1       3.434   6.897  18.949  0.00  0.00    +0.000 C 
ATOM     18  F   UNL     1       2.872   7.890  18.204  0.00  0.00    +0.000 F 
ATOM     19  F   UNL     1       2.668   6.800  20.071  0.00  0.00    +0.000 F 
ENDBRANCH  14  17
BRANCH  12  20
ATOM     20  C   UNL     1       3.133   1.847  18.924  0.00  0.00    +0.000 C 
ATOM     21  F   UNL     1       3.788   0.765  18.413  0.00  0.00    +0.000 F 
ENDBRANCH  12  20
ENDBRANCH   5   7
BRANCH   1  22
ATOM     22  N   UNL     1       8.429   8.526  18.922  0.00  0.00    +0.000 N 
ATOM     23  H   UNL     1       9.365   8.473  19.327  0.00  0.00    +0.000 HD
BRANCH  22  24
ATOM     24  C   UNL     1       8.403   9.613  17.929  0.00  0.00    +0.000 C 
BRANCH  24  30
ATOM     25  C   UNL     1       7.743  12.566  17.185  0.00  0.00    +0.000 C 
ATOM     26  N   UNL     1       8.841  12.120  17.988  0.00  0.00    +0.000 N 
ATOM     27  C   UNL     1       9.781  12.906  18.578  0.00  0.00    +0.000 A 
ATOM     28  N   UNL     1      10.618  12.165  19.260  0.00  0.00    +0.000 NA
ATOM     29  N   UNL     1      10.227  10.858  19.118  0.00  0.00    +0.000 NA
ATOM     30  C   UNL     1       9.161  10.830  18.343  0.00  0.00    +0.000 A 
ENDBRANCH  24  30
ENDBRANCH  22  24
ENDBRANCH   1  22
TORSDOF 6
ENDMDL
MODEL 3
REMARK VINA RESULT:      -8.6      0.940      1.019
REMARK  Name = 
REMARK  7 active torsions:
REMARK  status: ('A' for Active; 'I' for Inactive)
REMARK    1  A    between atoms: C_1  and  N_2
REMARK    2  A    between atoms: C_6  and  C_7
REMARK    3  A    between atoms: C_7  and  N_8
REMARK    4  A    between atoms: N_8  and  C_9
REMARK    5  A    between atoms: C_13  and  N_14
REMARK    6  A    between atoms: C_19  and  C_20
REMARK    7  A    between atoms: C_23  and  C_24
REMARK                            x       y       z     vdW  Elec       q    Type
REMARK                         _______ _______ _______ _____ _____    ______ ____
ROOT
ATOM      1  C   UNL     1       1.930   6.968  20.173  0.00  0.00    +0.000 A 
ATOM      2  C   UNL     1       2.419   7.669  19.063  0.00  0.00    +0.000 A 
ATOM      3  C   UNL     1       2.705   7.008  17.872  0.00  0.00    +0.000 A 
ATOM      4  C   UNL     1       2.639   5.621  17.818  0.00  0.00    +0.000 A 
ATOM      5  C   UNL     1       2.457   4.900  19.007  0.00  0.00    +0.000 A 
ATOM      6  C   UNL     1       1.981   5.569  20.143  0.00  0.00    +0.000 A 
ENDROOT
BRANCH   5   7
ATOM      7  N   UNL     1       3.181   3.649  19.207  0.00  0.00    +0.000 N 
ATOM      8  C   UNL     1       4.563   3.938  19.668  0.00  0.00    +0.000 C 
ATOM      9  C   UNL     1       5.299   4.045  18.367  0.00  0.00    +0.000 A 
ATOM     10  C   UNL     1       4.638   3.235  17.442  0.00  0.00    +0.000 A 
ATOM     11  C   UNL     1       4.923   3.260  16.088  0.00  0.00    +0.000 A 
ATOM     12  C   UNL     1       5.891   4.170  15.643  0.00  0.00    +0.000 A 
ATOM     13  C   UNL     1       6.555   5.002  16.577  0.00  0.00    +0.000 A 
ATOM     14  C   UNL     1       6.270   4.952  17.957  0.00  0.00    +0.000 A 
ATOM     15  C   UNL     1       3.340   2.845  18.047  0.00  0.00    +0.000 C 
ATOM     16  O   UNL     1       2.515   2.140  17.495  0.00  0.00    +0.000 OA
BRANCH  14  17
ATOM     17  C   UNL     1       6.852   5.973  18.898  0.00  0.00    +0.000 C 
ATOM     18  F   UNL     1       7.430   5.408  19.994  0.00  0.00    +0.000 F 
ATOM     19  F   UNL     1       7.820   6.739  18.324  0.00  0.00    +0.000 F 
ENDBRANCH  14  17
BRANCH  12  20
ATOM     20  C   UNL     1       6.133   4.337  14.164  0.00  0.00    +0.000 C 
ATOM     21  F   UNL     1       7.162   5.183  13.876  0.00  0.00    +0.000 F 
ENDBRANCH  12  20
ENDBRANCH   5   7
BRANCH   1  22
ATOM     22  N   UNL     1       1.585   7.695  21.332  0.00  0.00    +0.000 N 
ATOM     23  H   UNL     1       2.203   7.406  22.091  0.00  0.00    +0.000 HD
BRANCH  22  24
ATOM     24  C   UNL     1       1.673   9.156  21.179  0.00  0.00    +0.000 C 
BRANCH  24  30
ATOM     25  C   UNL     1      -0.490  11.012  19.919  0.00  0.00    +0.000 C 
ATOM     26  N   UNL     1      -0.327  10.724  21.312  0.00  0.00    +0.000 N 
ATOM     27  C   UNL     1      -1.097  11.198  22.329  0.00  0.00    +0.000 A 
ATOM     28  N   UNL     1      -0.680  10.706  23.468  0.00  0.00    +0.000 NA
ATOM     29  N   UNL     1       0.388   9.889  23.204  0.00  0.00    +0.000 NA
ATOM     30  C   UNL     1       0.608   9.908  21.904  0.00  0.00    +0.000 A 
ENDBRANCH  24  30
ENDBRANCH  22  24
ENDBRANCH   1  22
TORSDOF 6
ENDMDL
MODEL 4
REMARK VINA RESULT:      -8.5      0.815      1.303
REMARK  Name = 
REMARK  7 active torsions:
REMARK  status: ('A' for Active; 'I' for Inactive)
REMARK    1  A    between atoms: C_1  and  N_2
REMARK    2  A    between atoms: C_6  and  C_7
REMARK    3  A    between atoms: C_7  and  N_8
REMARK    4  A    between atoms: N_8  and  C_9
REMARK    5  A    between atoms: C_13  and  N_14
REMARK    6  A    between atoms: C_19  and  C_20
REMARK    7  A    between atoms: C_23  and  C_24
REMARK                            x       y       z     vdW  Elec       q    Type
REMARK                         _______ _______ _______ _____ _____    ______ ____
ROOT
ATOM      1  C   UNL     1       2.233   7.357  19.906  0.00  0.00    +0.000 A 
ATOM      2  C   UNL     1       2.587   8.040  18.734  0.00  0.00    +0.000 A 
ATOM      3  C   UNL     1       2.967   7.342  17.591  0.00  0.00    +0.000 A 
ATOM      4  C   UNL     1       3.135   5.965  17.645  0.00  0.00    +0.000 A 
ATOM      5  C   UNL     1       3.089   5.320  18.891  0.00  0.00    +0.000 A 
ATOM      6  C   UNL     1       2.518   5.989  19.983  0.00  0.00    +0.000 A 
ENDROOT
BRANCH   5   7
ATOM      7  N   UNL     1       4.015   4.228  19.169  0.00  0.00    +0.000 N 
ATOM      8  C   UNL     1       5.377   4.772  19.402  0.00  0.00    +0.000 C 
ATOM      9  C   UNL     1       5.944   4.771  18.015  0.00  0.00    +0.000 A 
ATOM     10  C   UNL     1       5.321   3.743  17.307  0.00  0.00    +0.000 A 
ATOM     11  C   UNL     1       5.452   3.591  15.937  0.00  0.00    +0.000 A 
ATOM     12  C   UNL     1       6.213   4.543  15.247  0.00  0.00    +0.000 A 
ATOM     13  C   UNL     1       6.837   5.595  15.961  0.00  0.00    +0.000 A 
ATOM     14  C   UNL     1       6.713   5.727  17.359  0.00  0.00    +0.000 A 
ATOM     15  C   UNL     1       4.171   3.280  18.123  0.00  0.00    +0.000 C 
ATOM     16  O   UNL     1       3.411   2.390  17.787  0.00  0.00    +0.000 OA
BRANCH  14  17
ATOM     17  C   UNL     1       7.227   6.953  18.063  0.00  0.00    +0.000 C 
ATOM     18  F   UNL     1       8.311   6.694  18.846  0.00  0.00    +0.000 F 
ATOM     19  F   UNL     1       7.618   7.938  17.207  0.00  0.00    +0.000 F 
ENDBRANCH  14  17
BRANCH  12  20
ATOM     20  C   UNL     1       6.266   4.506  13.741  0.00  0.00    +0.000 C 
ATOM     21  F   UNL     1       6.060   3.261  13.222  0.00  0.00    +0.000 F 
ENDBRANCH  12  20
ENDBRANCH   5   7
BRANCH   1  22
ATOM     22  N   UNL     1       1.783   8.106  21.014  0.00  0.00    +0.000 N 
ATOM     23  H   UNL     1       2.207   9.034  20.971  0.00  0.00    +0.000 HD
BRANCH  22  24
ATOM     24  C   UNL     1       0.320   8.257  21.087  0.00  0.00    +0.000 C 
BRANCH  24  30
ATOM     25  C   UNL     1      -0.795  10.355  23.104  0.00  0.00    +0.000 C 
ATOM     26  N   UNL     1      -0.656  10.530  21.689  0.00  0.00    +0.000 N 
ATOM     27  C   UNL     1      -0.974  11.646  20.980  0.00  0.00    +0.000 A 
ATOM     28  N   UNL     1      -0.690  11.464  19.714  0.00  0.00    +0.000 NA
ATOM     29  N   UNL     1      -0.175  10.200  19.581  0.00  0.00    +0.000 NA
ATOM     30  C   UNL     1      -0.164   9.633  20.770  0.00  0.00    +0.000 A 
ENDBRANCH  24  30
ENDBRANCH  22  24
ENDBRANCH   1  22
TORSDOF 6
ENDMDL
MODEL 5
REMARK VINA RESULT:      -8.5      1.069      1.119
REMARK  Name = 
REMARK  7 active torsions:
REMARK  status: ('A' for Active; 'I' for Inactive)
REMARK    1  A    between atoms: C_1  and  N_2
REMARK    2  A    between atoms: C_6  and  C_7
REMARK    3  A    between atoms: C_7  and  N_8
REMARK    4  A    between atoms: N_8  and  C_9
REMARK    5  A    between atoms: C_13  and  N_14
REMARK    6  A    between atoms: C_19  and  C_20
REMARK    7  A    between atoms: C_23  and  C_24
REMARK                            x       y       z     vdW  Elec       q    Type
REMARK                         _______ _______ _______ _____ _____    ______ ____
ROOT
ATOM      1  C   UNL     1       2.068   7.749  19.634  0.00  0.00    +0.000 A 
ATOM      2  C   UNL     1       2.592   8.422  18.522  0.00  0.00    +0.000 A 
ATOM      3  C   UNL     1       3.151   7.715  17.461  0.00  0.00    +0.000 A 
ATOM      4  C   UNL     1       3.320   6.339  17.559  0.00  0.00    +0.000 A 
ATOM      5  C   UNL     1       3.087   5.709  18.790  0.00  0.00    +0.000 A 
ATOM      6  C   UNL     1       2.349   6.385  19.772  0.00  0.00    +0.000 A 
ENDROOT
BRANCH   5   7
ATOM      7  N   UNL     1       3.968   4.630  19.223  0.00  0.00    +0.000 N 
ATOM      8  C   UNL     1       5.340   5.156  19.431  0.00  0.00    +0.000 C 
ATOM      9  C   UNL     1       5.943   4.973  18.071  0.00  0.00    +0.000 A 
ATOM     10  C   UNL     1       5.304   3.888  17.471  0.00  0.00    +0.000 A 
ATOM     11  C   UNL     1       5.466   3.571  16.133  0.00  0.00    +0.000 A 
ATOM     12  C   UNL     1       6.277   4.411  15.358  0.00  0.00    +0.000 A 
ATOM     13  C   UNL     1       6.917   5.520  15.962  0.00  0.00    +0.000 A 
ATOM     14  C   UNL     1       6.761   5.820  17.330  0.00  0.00    +0.000 A 
ATOM     15  C   UNL     1       4.118   3.560  18.301  0.00  0.00    +0.000 C 
ATOM     16  O   UNL     1       3.338   2.661  18.049  0.00  0.00    +0.000 OA
BRANCH  14  17
ATOM     17  C   UNL     1       7.298   7.106  17.901  0.00  0.00    +0.000 C 
ATOM     18  F   UNL     1       8.223   6.900  18.880  0.00  0.00    +0.000 F 
ATOM     19  F   UNL     1       7.913   7.888  16.971  0.00  0.00    +0.000 F 
ENDBRANCH  14  17
BRANCH  12  20
ATOM     20  C   UNL     1       6.367   4.193  13.869  0.00  0.00    +0.000 C 
ATOM     21  F   UNL     1       5.164   3.927  13.286  0.00  0.00    +0.000 F 
ENDBRANCH  12  20
ENDBRANCH   5   7
BRANCH   1  22
ATOM     22  N   UNL     1       1.445   8.507  20.649  0.00  0.00    +0.000 N 
ATOM     23  H   UNL     1       2.136   9.145  21.047  0.00  0.00    +0.000 HD
BRANCH  22  24
ATOM     24  C   UNL     1       0.284   9.289  20.194  0.00  0.00    +0.000 C 
BRANCH  24  30
ATOM     25  C   UNL     1      -1.522  11.579  19.095  0.00  0.00    +0.000 C 
ATOM     26  N   UNL     1      -0.473  11.716  20.059  0.00  0.00    +0.000 N 
ATOM     27  C   UNL     1      -0.088  12.867  20.674  0.00  0.00    +0.000 A 
ATOM     28  N   UNL     1       0.883  12.617  21.517  0.00  0.00    +0.000 NA
ATOM     29  N   UNL     1       1.150  11.274  21.458  0.00  0.00    +0.000 NA
ATOM     30  C   UNL     1       0.339  10.732  20.572  0.00  0.00    +0.000 A 
ENDBRANCH  24  30
ENDBRANCH  22  24
ENDBRANCH   1  22
TORSDOF 6
ENDMDL
MODEL 6
REMARK VINA RESULT:      -8.4      4.652      6.890
REMARK  Name = 
REMARK  7 active torsions:
REMARK  status: ('A' for Active; 'I' for Inactive)
REMARK    1  A    between atoms: C_1  and  N_2
REMARK    2  A    between atoms: C_6  and  C_7
REMARK    3  A    between atoms: C_7  and  N_8
REMARK    4  A    between atoms: N_8  and  C_9
REMARK    5  A    between atoms: C_13  and  N_14
REMARK    6  A    between atoms: C_19  and  C_20
REMARK    7  A    between atoms: C_23  and  C_24
REMARK                            x       y       z     vdW  Elec       q    Type
REMARK                         _______ _______ _______ _____ _____    ______ ____
ROOT
ATOM      1  C   UNL     1       7.856   7.777  17.813  0.00  0.00    +0.000 A 
ATOM      2  C   UNL     1       7.928   6.952  18.943  0.00  0.00    +0.000 A 
ATOM      3  C   UNL     1       7.805   5.571  18.825  0.00  0.00    +0.000 A 
ATOM      4  C   UNL     1       7.468   5.009  17.600  0.00  0.00    +0.000 A 
ATOM      5  C   UNL     1       7.087   5.850  16.545  0.00  0.00    +0.000 A 
ATOM      6  C   UNL     1       7.402   7.215  16.614  0.00  0.00    +0.000 A 
ENDROOT
BRANCH   5   7
ATOM      7  N   UNL     1       5.998   5.447  15.661  0.00  0.00    +0.000 N 
ATOM      8  C   UNL     1       4.808   6.299  15.910  0.00  0.00    +0.000 C 
ATOM      9  C   UNL     1       4.099   5.523  16.979  0.00  0.00    +0.000 A 
ATOM     10  C   UNL     1       4.421   4.176  16.803  0.00  0.00    +0.000 A 
ATOM     11  C   UNL     1       4.109   3.204  17.738  0.00  0.00    +0.000 A 
ATOM     12  C   UNL     1       3.480   3.616  18.920  0.00  0.00    +0.000 A 
ATOM     13  C   UNL     1       3.164   4.984  19.107  0.00  0.00    +0.000 A 
ATOM     14  C   UNL     1       3.468   5.961  18.138  0.00  0.00    +0.000 A 
ATOM     15  C   UNL     1       5.539   4.114  15.829  0.00  0.00    +0.000 C 
ATOM     16  O   UNL     1       6.063   3.079  15.459  0.00  0.00    +0.000 OA
BRANCH  14  17
ATOM     17  C   UNL     1       3.292   7.425  18.443  0.00  0.00    +0.000 C 
ATOM     18  F   UNL     1       2.644   8.094  17.449  0.00  0.00    +0.000 F 
ATOM     19  F   UNL     1       2.569   7.653  19.573  0.00  0.00    +0.000 F 
ENDBRANCH  14  17
BRANCH  12  20
ATOM     20  C   UNL     1       3.252   2.621  20.029  0.00  0.00    +0.000 C 
ATOM     21  F   UNL     1       1.937   2.466  20.356  0.00  0.00    +0.000 F 
ENDBRANCH  12  20
ENDBRANCH   5   7
BRANCH   1  22
ATOM     22  N   UNL     1       8.062   9.164  17.976  0.00  0.00    +0.000 N 
ATOM     23  H   UNL     1       7.164   9.602  18.185  0.00  0.00    +0.000 HD
BRANCH  22  24
ATOM     24  C   UNL     1       9.019   9.513  19.039  0.00  0.00    +0.000 C 
BRANCH  24  30
ATOM     25  C   UNL     1       9.169  11.730  21.224  0.00  0.00    +0.000 C 
ATOM     26  N   UNL     1       9.659  11.828  19.882  0.00  0.00    +0.000 N 
ATOM     27  C   UNL     1      10.287  12.900  19.329  0.00  0.00    +0.000 A 
ATOM     28  N   UNL     1      10.623  12.630  18.093  0.00  0.00    +0.000 NA
ATOM     29  N   UNL     1      10.208  11.353  17.818  0.00  0.00    +0.000 NA
ATOM     30  C   UNL     1       9.617  10.872  18.894  0.00  0.00    +0.000 A 
ENDBRANCH  24  30
ENDBRANCH  22  24
ENDBRANCH   1  22
TORSDOF 6
ENDMDL
MODEL 7
REMARK VINA RESULT:      -8.3      0.961      1.145
REMARK  Name = 
REMARK  7 active torsions:
REMARK  status: ('A' for Active; 'I' for Inactive)
REMARK    1  A    between atoms: C_1  and  N_2
REMARK    2  A    between atoms: C_6  and  C_7
REMARK    3  A    between atoms: C_7  and  N_8
REMARK    4  A    between atoms: N_8  and  C_9
REMARK    5  A    between atoms: C_13  and  N_14
REMARK    6  A    between atoms: C_19  and  C_20
REMARK    7  A    between atoms: C_23  and  C_24
REMARK                            x       y       z     vdW  Elec       q    Type
REMARK                         _______ _______ _______ _____ _____    ______ ____
ROOT
ATOM      1  C   UNL     1       2.132   7.296  20.093  0.00  0.00    +0.000 A 
ATOM      2  C   UNL     1       2.344   7.986  18.892  0.00  0.00    +0.000 A 
ATOM      3  C   UNL     1       2.723   7.306  17.738  0.00  0.00    +0.000 A 
ATOM      4  C   UNL     1       3.030   5.953  17.802  0.00  0.00    +0.000 A 
ATOM      5  C   UNL     1       3.122   5.332  19.057  0.00  0.00    +0.000 A 
ATOM      6  C   UNL     1       2.555   5.964  20.172  0.00  0.00    +0.000 A 
ENDROOT
BRANCH   5   7
ATOM      7  N   UNL     1       4.167   4.342  19.293  0.00  0.00    +0.000 N 
ATOM      8  C   UNL     1       5.499   4.995  19.235  0.00  0.00    +0.000 C 
ATOM      9  C   UNL     1       5.838   4.864  17.781  0.00  0.00    +0.000 A 
ATOM     10  C   UNL     1       5.196   3.720  17.303  0.00  0.00    +0.000 A 
ATOM     11  C   UNL     1       5.121   3.414  15.954  0.00  0.00    +0.000 A 
ATOM     12  C   UNL     1       5.683   4.322  15.048  0.00  0.00    +0.000 A 
ATOM     13  C   UNL     1       6.323   5.490  15.530  0.00  0.00    +0.000 A 
ATOM     14  C   UNL     1       6.412   5.780  16.906  0.00  0.00    +0.000 A 
ATOM     15  C   UNL     1       4.233   3.287  18.345  0.00  0.00    +0.000 C 
ATOM     16  O   UNL     1       3.505   2.317  18.238  0.00  0.00    +0.000 OA
BRANCH  14  17
ATOM     17  C   UNL     1       6.929   7.113  17.378  0.00  0.00    +0.000 C 
ATOM     18  F   UNL     1       5.932   7.952  17.776  0.00  0.00    +0.000 F 
ATOM     19  F   UNL     1       7.773   7.013  18.442  0.00  0.00    +0.000 F 
ENDBRANCH  14  17
BRANCH  12  20
ATOM     20  C   UNL     1       5.499   4.108  13.567  0.00  0.00    +0.000 C 
ATOM     21  F   UNL     1       6.518   3.410  12.990  0.00  0.00    +0.000 F 
ENDBRANCH  12  20
ENDBRANCH   5   7
BRANCH   1  22
ATOM     22  N   UNL     1       1.676   8.020  21.216  0.00  0.00    +0.000 N 
ATOM     23  H   UNL     1       2.274   8.839  21.337  0.00  0.00    +0.000 HD
BRANCH  22  24
ATOM     24  C   UNL     1       0.276   8.465  21.121  0.00  0.00    +0.000 C 
BRANCH  24  30
ATOM     25  C   UNL     1      -0.526  10.464  18.868  0.00  0.00    +0.000 C 
ATOM     26  N   UNL     1      -0.251  10.792  20.235  0.00  0.00    +0.000 N 
ATOM     27  C   UNL     1      -0.304  12.032  20.792  0.00  0.00    +0.000 A 
ATOM     28  N   UNL     1      -0.020  11.958  22.068  0.00  0.00    +0.000 NA
ATOM     29  N   UNL     1       0.228  10.643  22.364  0.00  0.00    +0.000 NA
ATOM     30  C   UNL     1       0.099   9.941  21.256  0.00  0.00    +0.000 A 
ENDBRANCH  24  30
ENDBRANCH  22  24
ENDBRANCH   1  22
TORSDOF 6
ENDMDL
MODEL 8
REMARK VINA RESULT:      -8.1      4.622      6.523
REMARK  Name = 
REMARK  7 active torsions:
REMARK  status: ('A' for Active; 'I' for Inactive)
REMARK    1  A    between atoms: C_1  and  N_2
REMARK    2  A    between atoms: C_6  and  C_7
REMARK    3  A    between atoms: C_7  and  N_8
REMARK    4  A    between atoms: N_8  and  C_9
REMARK    5  A    between atoms: C_13  and  N_14
REMARK    6  A    between atoms: C_19  and  C_20
REMARK    7  A    between atoms: C_23  and  C_24
REMARK                            x       y       z     vdW  Elec       q    Type
REMARK                         _______ _______ _______ _____ _____    ______ ____
ROOT
ATOM      1  C   UNL     1       7.870   7.819  17.970  0.00  0.00    +0.000 A 
ATOM      2  C   UNL     1       7.913   6.939  19.060  0.00  0.00    +0.000 A 
ATOM      3  C   UNL     1       7.810   5.564  18.870  0.00  0.00    +0.000 A 
ATOM      4  C   UNL     1       7.522   5.060  17.608  0.00  0.00    +0.000 A 
ATOM      5  C   UNL     1       7.167   5.950  16.582  0.00  0.00    +0.000 A 
ATOM      6  C   UNL     1       7.464   7.312  16.730  0.00  0.00    +0.000 A 
ENDROOT
BRANCH   5   7
ATOM      7  N   UNL     1       6.115   5.580  15.642  0.00  0.00    +0.000 N 
ATOM      8  C   UNL     1       4.910   6.413  15.886  0.00  0.00    +0.000 C 
ATOM      9  C   UNL     1       4.169   5.585  16.892  0.00  0.00    +0.000 A 
ATOM     10  C   UNL     1       4.507   4.250  16.668  0.00  0.00    +0.000 A 
ATOM     11  C   UNL     1       4.168   3.235  17.547  0.00  0.00    +0.000 A 
ATOM     12  C   UNL     1       3.494   3.590  18.722  0.00  0.00    +0.000 A 
ATOM     13  C   UNL     1       3.161   4.946  18.959  0.00  0.00    +0.000 A 
ATOM     14  C   UNL     1       3.493   5.967  18.046  0.00  0.00    +0.000 A 
ATOM     15  C   UNL     1       5.660   4.238  15.734  0.00  0.00    +0.000 C 
ATOM     16  O   UNL     1       6.205   3.224  15.337  0.00  0.00    +0.000 OA
BRANCH  14  17
ATOM     17  C   UNL     1       3.295   7.415  18.409  0.00  0.00    +0.000 C 
ATOM     18  F   UNL     1       2.640   8.114  17.440  0.00  0.00    +0.000 F 
ATOM     19  F   UNL     1       2.564   7.587  19.545  0.00  0.00    +0.000 F 
ENDBRANCH  14  17
BRANCH  12  20
ATOM     20  C   UNL     1       3.233   2.544  19.777  0.00  0.00    +0.000 C 
ATOM     21  F   UNL     1       4.244   2.426  20.685  0.00  0.00    +0.000 F 
ENDBRANCH  12  20
ENDBRANCH   5   7
BRANCH   1  22
ATOM     22  N   UNL     1       8.054   9.198  18.208  0.00  0.00    +0.000 N 
ATOM     23  H   UNL     1       7.280   9.533  18.783  0.00  0.00    +0.000 HD
BRANCH  22  24
ATOM     24  C   UNL     1       9.322   9.532  18.878  0.00  0.00    +0.000 C 
BRANCH  24  30
ATOM     25  C   UNL     1       9.388  12.441  17.762  0.00  0.00    +0.000 C 
ATOM     26  N   UNL     1       9.311  12.064  19.141  0.00  0.00    +0.000 N 
ATOM     27  C   UNL     1       9.241  12.908  20.205  0.00  0.00    +0.000 A 
ATOM     28  N   UNL     1       9.153  12.219  21.315  0.00  0.00    +0.000 NA
ATOM     29  N   UNL     1       9.168  10.889  20.981  0.00  0.00    +0.000 NA
ATOM     30  C   UNL     1       9.274  10.795  19.671  0.00  0.00    +0.000 A 
ENDBRANCH  24  30
ENDBRANCH  22  24
ENDBRANCH   1  22
TORSDOF 6
ENDMDL
MODEL 9
REMARK VINA RESULT:      -7.9      7.186      9.773
REMARK  Name = 
REMARK  7 active torsions:
REMARK  status: ('A' for Active; 'I' for Inactive)
REMARK    1  A    between atoms: C_1  and  N_2
REMARK    2  A    between atoms: C_6  and  C_7
REMARK    3  A    between atoms: C_7  and  N_8
REMARK    4  A    between atoms: N_8  and  C_9
REMARK    5  A    between atoms: C_13  and  N_14
REMARK    6  A    between atoms: C_19  and  C_20
REMARK    7  A    between atoms: C_23  and  C_24
REMARK                            x       y       z     vdW  Elec       q    Type
REMARK                         _______ _______ _______ _____ _____    ______ ____
ROOT
ATOM      1  C   UNL     1      -3.917  11.631  17.710  0.00  0.00    +0.000 A 
ATOM      2  C   UNL     1      -3.949  10.804  16.580  0.00  0.00    +0.000 A 
ATOM      3  C   UNL     1      -2.937   9.877  16.347  0.00  0.00    +0.000 A 
ATOM      4  C   UNL     1      -1.812   9.862  17.162  0.00  0.00    +0.000 A 
ATOM      5  C   UNL     1      -1.633  10.892  18.097  0.00  0.00    +0.000 A 
ATOM      6  C   UNL     1      -2.731  11.688  18.451  0.00  0.00    +0.000 A 
ENDROOT
BRANCH   5   7
ATOM      7  N   UNL     1      -0.297  11.436  18.319  0.00  0.00    +0.000 N 
ATOM      8  C   UNL     1       0.427  10.596  19.307  0.00  0.00    +0.000 C 
ATOM      9  C   UNL     1       0.048  11.256  20.599  0.00  0.00    +0.000 A 
ATOM     10  C   UNL     1      -0.193  12.603  20.328  0.00  0.00    +0.000 A 
ATOM     11  C   UNL     1      -0.767  13.461  21.251  0.00  0.00    +0.000 A 
ATOM     12  C   UNL     1      -1.149  12.925  22.487  0.00  0.00    +0.000 A 
ATOM     13  C   UNL     1      -0.917  11.555  22.761  0.00  0.00    +0.000 A 
ATOM     14  C   UNL     1      -0.313  10.696  21.820  0.00  0.00    +0.000 A 
ATOM     15  C   UNL     1      -0.256  12.751  18.852  0.00  0.00    +0.000 C 
ATOM     16  O   UNL     1      -0.459  13.807  18.282  0.00  0.00    +0.000 OA
BRANCH  14  17
ATOM     17  C   UNL     1      -0.250   9.212  22.064  0.00  0.00    +0.000 C 
ATOM     18  F   UNL     1       1.026   8.757  22.208  0.00  0.00    +0.000 F 
ATOM     19  F   UNL     1      -0.907   8.827  23.193  0.00  0.00    +0.000 F 
ENDBRANCH  14  17
BRANCH  12  20
ATOM     20  C   UNL     1      -1.908  13.782  23.468  0.00  0.00    +0.000 C 
ATOM     21  F   UNL     1      -1.147  14.213  24.513  0.00  0.00    +0.000 F 
ENDBRANCH  12  20
ENDBRANCH   5   7
BRANCH   1  22
ATOM     22  N   UNL     1      -5.004  12.502  17.941  0.00  0.00    +0.000 N 
ATOM     23  H   UNL     1      -4.925  13.294  17.302  0.00  0.00    +0.000 HD
BRANCH  22  24
ATOM     24  C   UNL     1      -6.326  11.878  17.762  0.00  0.00    +0.000 C 
BRANCH  24  30
ATOM     25  C   UNL     1      -7.746  13.187  20.208  0.00  0.00    +0.000 C 
ATOM     26  N   UNL     1      -7.453  11.795  20.043  0.00  0.00    +0.000 N 
ATOM     27  C   UNL     1      -7.754  10.798  20.918  0.00  0.00    +0.000 A 
ATOM     28  N   UNL     1      -7.366   9.646  20.431  0.00  0.00    +0.000 NA
ATOM     29  N   UNL     1      -6.792   9.883  19.209  0.00  0.00    +0.000 NA
ATOM     30  C   UNL     1      -6.836  11.180  18.979  0.00  0.00    +0.000 A 
ENDBRANCH  24  30
ENDBRANCH  22  24
ENDBRANCH   1  22
TORSDOF 6
ENDMDL
