MODEL 1
REMARK VINA RESULT:      -8.8      0.000      0.000
REMARK  Name = 
REMARK  8 active torsions:
REMARK  status: ('A' for Active; 'I' for Inactive)
REMARK    1  A    between atoms: C_1  and  C_2
REMARK    2  A    between atoms: C_2  and  C_3
REMARK    3  A    between atoms: C_5  and  C_6
REMARK    4  A    between atoms: C_13  and  C_14
REMARK    5  A    between atoms: C_14  and  C_15
REMARK    6  A    between atoms: C_15  and  C_16
REMARK    7  A    between atoms: N_20  and  C_21
REMARK    8  A    between atoms: C_27  and  C_28
REMARK                            x       y       z     vdW  Elec       q    Type
REMARK                         _______ _______ _______ _____ _____    ______ ____
ROOT
ATOM      1  C   UNL     1       1.918   6.498  20.006  0.00  0.00    +0.000 C 
ATOM      2  O   UNL     1       2.122   5.684  20.906  0.00  0.00    +0.000 OA
ATOM      3  N   UNL     1       2.189   6.287  18.667  0.00  0.00    +0.000 N 
ATOM      4  C   UNL     1       2.783   5.106  18.215  0.00  0.00    +0.000 A 
ATOM      5  C   UNL     1       2.323   3.867  18.637  0.00  0.00    +0.000 A 
ATOM      6  C   UNL     1       2.997   2.728  18.219  0.00  0.00    +0.000 A 
ATOM      7  C   UNL     1       4.119   2.865  17.413  0.00  0.00    +0.000 A 
ATOM      8  C   UNL     1       4.514   4.137  16.999  0.00  0.00    +0.000 A 
ATOM      9  N   UNL     1       3.825   5.253  17.373  0.00  0.00    +0.000 NA
ATOM     10  H   UNL     1       2.342   7.114  18.102  0.00  0.00    +0.000 HD
ENDROOT
BRANCH   1  13
ATOM     11  C   UNL     1       0.420   9.341  21.852  0.00  0.00    +0.000 A 
ATOM     12  C   UNL     1       0.875   8.068  21.604  0.00  0.00    +0.000 A 
ATOM     13  C   UNL     1       1.421   7.862  20.358  0.00  0.00    +0.000 A 
ATOM     14  N   UNL     1       1.545   8.817  19.410  0.00  0.00    +0.000 NA
ATOM     15  C   UNL     1       1.052  10.031  19.726  0.00  0.00    +0.000 A 
ATOM     16  N   UNL     1       0.496  10.312  20.921  0.00  0.00    +0.000 NA
BRANCH  15  17
ATOM     17  C   UNL     1       1.102  11.113  18.679  0.00  0.00    +0.000 C 
ATOM     18  C   UNL     1       2.384  11.340  17.911  0.00  0.00    +0.000 C 
ATOM     19  C   UNL     1       1.918  12.368  18.895  0.00  0.00    +0.000 C 
ENDBRANCH  15  17
BRANCH  11  21
ATOM     20  C   UNL     1      -1.110  10.875  23.084  0.00  0.00    +0.000 C 
ATOM     21  C   UNL     1      -0.136   9.712  23.200  0.00  0.00    +0.000 C 
ENDBRANCH  11  21
ENDBRANCH   1  13
BRANCH   8  22
ATOM     22  C   UNL     1       5.777   4.447  16.117  0.00  0.00    +0.000 C 
ATOM     23  C   UNL     1       5.637   5.684  15.189  0.00  0.00    +0.000 C 
ATOM     24  O   UNL     1       6.263   4.967  14.095  0.00  0.00    +0.000 OA
ATOM     25  C   UNL     1       5.961   3.711  14.765  0.00  0.00    +0.000 C 
BRANCH  22  26
ATOM     26  C   UNL     1       7.058   4.495  16.971  0.00  0.00    +0.000 C 
BRANCH  26  27
ATOM     27  C   UNL     1       7.459   5.883  17.361  0.00  0.00    +0.000 A 
ATOM     28  N   UNL     1       7.541   6.918  16.546  0.00  0.00    +0.000 NA
ATOM     29  N   UNL     1       7.903   8.022  17.281  0.00  0.00    +0.000 NA
ATOM     30  C   UNL     1       8.033   7.641  18.529  0.00  0.00    +0.000 A 
ATOM     31  N   UNL     1       7.783   6.306  18.626  0.00  0.00    +0.000 N 
ATOM     32  C   UNL     1       7.848   5.533  19.837  0.00  0.00    +0.000 C 
ENDBRANCH  26  27
ENDBRANCH  22  26
ENDBRANCH   8  22
TORSDOF 6
ENDMDL
MODEL 2
REMARK VINA RESULT:      -8.6      4.002      9.748
REMARK  Name = 
REMARK  8 active torsions:
REMARK  status: ('A' for Active; 'I' for Inactive)
REMARK    1  A    between atoms: C_1  and  C_2
REMARK    2  A    between atoms: C_2  and  C_3
REMARK    3  A    between atoms: C_5  and  C_6
REMARK    4  A    between atoms: C_13  and  C_14
REMARK    5  A    between atoms: C_14  and  C_15
REMARK    6  A    between atoms: C_15  and  C_16
REMARK    7  A    between atoms: N_20  and  C_21
REMARK    8  A    between atoms: C_27  and  C_28
REMARK                            x       y       z     vdW  Elec       q    Type
REMARK                         _______ _______ _______ _____ _____    ______ ____
ROOT
ATOM      1  C   UNL     1       2.245   7.673  18.640  0.00  0.00    +0.000 C 
ATOM      2  O   UNL     1       2.127   7.753  19.862  0.00  0.00    +0.000 OA
ATOM      3  N   UNL     1       1.648   8.521  17.727  0.00  0.00    +0.000 N 
ATOM      4  C   UNL     1       0.790   9.547  18.129  0.00  0.00    +0.000 A 
ATOM      5  C   UNL     1       1.135  10.403  19.167  0.00  0.00    +0.000 A 
ATOM      6  C   UNL     1       0.215  11.356  19.579  0.00  0.00    +0.000 A 
ATOM      7  C   UNL     1      -1.025  11.410  18.958  0.00  0.00    +0.000 A 
ATOM      8  C   UNL     1      -1.301  10.542  17.901  0.00  0.00    +0.000 A 
ATOM      9  N   UNL     1      -0.380   9.635  17.466  0.00  0.00    +0.000 NA
ATOM     10  H   UNL     1       1.501   8.151  16.795  0.00  0.00    +0.000 HD
ENDROOT
BRANCH   1  13
ATOM     11  C   UNL     1       4.894   5.693  16.968  0.00  0.00    +0.000 A 
ATOM     12  C   UNL     1       4.252   6.783  17.505  0.00  0.00    +0.000 A 
ATOM     13  C   UNL     1       3.015   6.534  18.056  0.00  0.00    +0.000 A 
ATOM     14  N   UNL     1       2.433   5.316  18.109  0.00  0.00    +0.000 NA
ATOM     15  C   UNL     1       3.120   4.307  17.539  0.00  0.00    +0.000 A 
ATOM     16  N   UNL     1       4.333   4.469  16.974  0.00  0.00    +0.000 NA
BRANCH  15  17
ATOM     17  C   UNL     1       2.485   2.941  17.510  0.00  0.00    +0.000 C 
ATOM     18  C   UNL     1       1.393   2.611  18.502  0.00  0.00    +0.000 C 
ATOM     19  C   UNL     1       2.729   1.945  18.622  0.00  0.00    +0.000 C 
ENDBRANCH  15  17
BRANCH  11  21
ATOM     20  C   UNL     1       7.162   4.666  16.855  0.00  0.00    +0.000 C 
ATOM     21  C   UNL     1       6.282   5.819  16.398  0.00  0.00    +0.000 C 
ENDBRANCH  11  21
ENDBRANCH   1  13
BRANCH   8  22
ATOM     22  C   UNL     1      -2.667  10.467  17.128  0.00  0.00    +0.000 C 
ATOM     23  C   UNL     1      -2.671   9.516  15.900  0.00  0.00    +0.000 C 
ATOM     24  O   UNL     1      -3.402  10.491  15.114  0.00  0.00    +0.000 OA
ATOM     25  C   UNL     1      -2.991  11.530  16.046  0.00  0.00    +0.000 C 
BRANCH  22  26
ATOM     26  C   UNL     1      -3.839  10.190  18.089  0.00  0.00    +0.000 C 
BRANCH  26  27
ATOM     27  C   UNL     1      -4.859  11.285  18.110  0.00  0.00    +0.000 A 
ATOM     28  N   UNL     1      -5.864  11.418  17.266  0.00  0.00    +0.000 NA
ATOM     29  N   UNL     1      -6.597  12.520  17.633  0.00  0.00    +0.000 NA
ATOM     30  C   UNL     1      -6.027  13.040  18.694  0.00  0.00    +0.000 A 
ATOM     31  N   UNL     1      -4.924  12.312  19.020  0.00  0.00    +0.000 N 
ATOM     32  C   UNL     1      -4.035  12.593  20.115  0.00  0.00    +0.000 C 
ENDBRANCH  26  27
ENDBRANCH  22  26
ENDBRANCH   8  22
TORSDOF 6
ENDMDL
MODEL 3
REMARK VINA RESULT:      -8.5      3.992      9.532
REMARK  Name = 
REMARK  8 active torsions:
REMARK  status: ('A' for Active; 'I' for Inactive)
REMARK    1  A    between atoms: C_1  and  C_2
REMARK    2  A    between atoms: C_2  and  C_3
REMARK    3  A    between atoms: C_5  and  C_6
REMARK    4  A    between atoms: C_13  and  C_14
REMARK    5  A    between atoms: C_14  and  C_15
REMARK    6  A    between atoms: C_15  and  C_16
REMARK    7  A    between atoms: N_20  and  C_21
REMARK    8  A    between atoms: C_27  and  C_28
REMARK                            x       y       z     vdW  Elec       q    Type
REMARK                         _______ _______ _______ _____ _____    ______ ____
ROOT
ATOM      1  C   UNL     1       2.212   7.723  18.730  0.00  0.00    +0.000 C 
ATOM      2  O   UNL     1       2.103   7.864  19.947  0.00  0.00    +0.000 OA
ATOM      3  N   UNL     1       1.613   8.526  17.779  0.00  0.00    +0.000 N 
ATOM      4  C   UNL     1       0.762   9.575  18.135  0.00  0.00    +0.000 A 
ATOM      5  C   UNL     1       1.117  10.481  19.125  0.00  0.00    +0.000 A 
ATOM      6  C   UNL     1       0.203  11.458  19.495  0.00  0.00    +0.000 A 
ATOM      7  C   UNL     1      -1.040  11.486  18.879  0.00  0.00    +0.000 A 
ATOM      8  C   UNL     1      -1.326  10.567  17.869  0.00  0.00    +0.000 A 
ATOM      9  N   UNL     1      -0.411   9.635  17.475  0.00  0.00    +0.000 NA
ATOM     10  H   UNL     1       1.459   8.110  16.869  0.00  0.00    +0.000 HD
ENDROOT
BRANCH   1  13
ATOM     11  C   UNL     1       3.100   4.301  17.616  0.00  0.00    +0.000 A 
ATOM     12  C   UNL     1       2.333   5.338  18.091  0.00  0.00    +0.000 A 
ATOM     13  C   UNL     1       2.974   6.552  18.200  0.00  0.00    +0.000 A 
ATOM     14  N   UNL     1       4.263   6.770  17.858  0.00  0.00    +0.000 NA
ATOM     15  C   UNL     1       4.949   5.695  17.423  0.00  0.00    +0.000 A 
ATOM     16  N   UNL     1       4.397   4.471  17.294  0.00  0.00    +0.000 NA
BRANCH  15  17
ATOM     17  C   UNL     1       6.409   5.868  17.093  0.00  0.00    +0.000 C 
ATOM     18  C   UNL     1       7.313   4.657  17.083  0.00  0.00    +0.000 C 
ATOM     19  C   UNL     1       7.472   5.693  18.153  0.00  0.00    +0.000 C 
ENDBRANCH  15  17
BRANCH  11  21
ATOM     20  C   UNL     1       1.681   2.498  18.589  0.00  0.00    +0.000 C 
ATOM     21  C   UNL     1       2.499   2.941  17.385  0.00  0.00    +0.000 C 
ENDBRANCH  11  21
ENDBRANCH   1  13
BRANCH   8  22
ATOM     22  C   UNL     1      -2.697  10.458  17.109  0.00  0.00    +0.000 C 
ATOM     23  C   UNL     1      -2.698   9.488  15.897  0.00  0.00    +0.000 C 
ATOM     24  O   UNL     1      -3.450  10.439  15.102  0.00  0.00    +0.000 OA
ATOM     25  C   UNL     1      -3.046  11.499  16.014  0.00  0.00    +0.000 C 
BRANCH  22  26
ATOM     26  C   UNL     1      -3.857  10.180  18.085  0.00  0.00    +0.000 C 
BRANCH  26  27
ATOM     27  C   UNL     1      -4.878  11.273  18.119  0.00  0.00    +0.000 A 
ATOM     28  N   UNL     1      -5.902  11.397  17.296  0.00  0.00    +0.000 NA
ATOM     29  N   UNL     1      -6.629  12.501  17.670  0.00  0.00    +0.000 NA
ATOM     30  C   UNL     1      -6.037  13.032  18.713  0.00  0.00    +0.000 A 
ATOM     31  N   UNL     1      -4.925  12.308  19.021  0.00  0.00    +0.000 N 
ATOM     32  C   UNL     1      -4.012  12.600  20.093  0.00  0.00    +0.000 C 
ENDBRANCH  26  27
ENDBRANCH  22  26
ENDBRANCH   8  22
TORSDOF 6
ENDMDL
MODEL 4
REMARK VINA RESULT:      -8.5      3.108      8.976
REMARK  Name = 
REMARK  8 active torsions:
REMARK  status: ('A' for Active; 'I' for Inactive)
REMARK    1  A    between atoms: C_1  and  C_2
REMARK    2  A    between atoms: C_2  and  C_3
REMARK    3  A    between atoms: C_5  and  C_6
REMARK    4  A    between atoms: C_13  and  C_14
REMARK    5  A    between atoms: C_14  and  C_15
REMARK    6  A    between atoms: C_15  and  C_16
REMARK    7  A    between atoms: N_20  and  C_21
REMARK    8  A    between atoms: C_27  and  C_28
REMARK                            x       y       z     vdW  Elec       q    Type
REMARK                         _______ _______ _______ _____ _____    ______ ____
ROOT
ATOM      1  C   UNL     1       2.099   6.344  20.212  0.00  0.00    +0.000 C 
ATOM      2  O   UNL     1       1.214   5.822  20.890  0.00  0.00    +0.000 OA
ATOM      3  N   UNL     1       2.256   7.703  20.020  0.00  0.00    +0.000 N 
ATOM      4  C   UNL     1       1.361   8.629  20.560  0.00  0.00    +0.000 A 
ATOM      5  C   UNL     1       0.960   8.549  21.886  0.00  0.00    +0.000 A 
ATOM      6  C   UNL     1       0.010   9.447  22.352  0.00  0.00    +0.000 A 
ATOM      7  C   UNL     1      -0.524  10.380  21.474  0.00  0.00    +0.000 A 
ATOM      8  C   UNL     1      -0.058  10.430  20.159  0.00  0.00    +0.000 A 
ATOM      9  N   UNL     1       0.908   9.576  19.715  0.00  0.00    +0.000 NA
ATOM     10  H   UNL     1       2.746   7.986  19.180  0.00  0.00    +0.000 HD
ENDROOT
BRANCH   1  13
ATOM     11  C   UNL     1       3.595   3.424  18.489  0.00  0.00    +0.000 A 
ATOM     12  C   UNL     1       2.669   4.176  19.171  0.00  0.00    +0.000 A 
ATOM     13  C   UNL     1       3.044   5.470  19.454  0.00  0.00    +0.000 A 
ATOM     14  N   UNL     1       4.223   6.021  19.092  0.00  0.00    +0.000 NA
ATOM     15  C   UNL     1       5.083   5.208  18.447  0.00  0.00    +0.000 A 
ATOM     16  N   UNL     1       4.795   3.927  18.138  0.00  0.00    +0.000 NA
BRANCH  15  17
ATOM     17  C   UNL     1       6.439   5.752  18.081  0.00  0.00    +0.000 C 
ATOM     18  C   UNL     1       7.579   4.791  17.832  0.00  0.00    +0.000 C 
ATOM     19  C   UNL     1       7.599   5.666  19.047  0.00  0.00    +0.000 C 
ENDBRANCH  15  17
BRANCH  11  21
ATOM     20  C   UNL     1       1.892   1.605  18.527  0.00  0.00    +0.000 C 
ATOM     21  C   UNL     1       3.280   2.017  18.059  0.00  0.00    +0.000 C 
ENDBRANCH  11  21
ENDBRANCH   1  13
BRANCH   8  22
ATOM     22  C   UNL     1      -0.591  11.406  19.050  0.00  0.00    +0.000 C 
ATOM     23  C   UNL     1       0.467  12.393  18.485  0.00  0.00    +0.000 C 
ATOM     24  O   UNL     1      -0.489  13.482  18.522  0.00  0.00    +0.000 OA
ATOM     25  C   UNL     1      -1.295  12.724  19.468  0.00  0.00    +0.000 C 
BRANCH  22  26
ATOM     26  C   UNL     1      -1.331  10.639  17.938  0.00  0.00    +0.000 C 
BRANCH  26  27
ATOM     27  C   UNL     1      -2.760  11.055  17.782  0.00  0.00    +0.000 A 
ATOM     28  N   UNL     1      -3.561  11.439  18.758  0.00  0.00    +0.000 NA
ATOM     29  N   UNL     1      -4.778  11.775  18.215  0.00  0.00    +0.000 NA
ATOM     30  C   UNL     1      -4.697  11.592  16.919  0.00  0.00    +0.000 A 
ATOM     31  N   UNL     1      -3.458  11.124  16.602  0.00  0.00    +0.000 N 
ATOM     32  C   UNL     1      -3.009  10.790  15.277  0.00  0.00    +0.000 C 
ENDBRANCH  26  27
ENDBRANCH  22  26
ENDBRANCH   8  22
TORSDOF 6
ENDMDL
MODEL 5
REMARK VINA RESULT:      -8.4      1.744      2.766
REMARK  Name = 
REMARK  8 active torsions:
REMARK  status: ('A' for Active; 'I' for Inactive)
REMARK    1  A    between atoms: C_1  and  C_2
REMARK    2  A    between atoms: C_2  and  C_3
REMARK    3  A    between atoms: C_5  and  C_6
REMARK    4  A    between atoms: C_13  and  C_14
REMARK    5  A    between atoms: C_14  and  C_15
REMARK    6  A    between atoms: C_15  and  C_16
REMARK    7  A    between atoms: N_20  and  C_21
REMARK    8  A    between atoms: C_27  and  C_28
REMARK                            x       y       z     vdW  Elec       q    Type
REMARK                         _______ _______ _______ _____ _____    ______ ____
ROOT
ATOM      1  C   UNL     1       1.621   7.420  20.223  0.00  0.00    +0.000 C 
ATOM      2  O   UNL     1       1.403   6.485  20.993  0.00  0.00    +0.000 OA
ATOM      3  N   UNL     1       2.436   7.358  19.109  0.00  0.00    +0.000 N 
ATOM      4  C   UNL     1       3.145   6.200  18.781  0.00  0.00    +0.000 A 
ATOM      5  C   UNL     1       2.527   4.958  18.780  0.00  0.00    +0.000 A 
ATOM      6  C   UNL     1       3.294   3.831  18.523  0.00  0.00    +0.000 A 
ATOM      7  C   UNL     1       4.655   3.978  18.296  0.00  0.00    +0.000 A 
ATOM      8  C   UNL     1       5.213   5.257  18.281  0.00  0.00    +0.000 A 
ATOM      9  N   UNL     1       4.450   6.368  18.490  0.00  0.00    +0.000 NA
ATOM     10  H   UNL     1       2.832   8.235  18.791  0.00  0.00    +0.000 HD
ENDROOT
BRANCH   1  13
ATOM     11  C   UNL     1      -0.184  10.186  21.903  0.00  0.00    +0.000 A 
ATOM     12  C   UNL     1       0.333   8.930  21.696  0.00  0.00    +0.000 A 
ATOM     13  C   UNL     1       1.046   8.764  20.529  0.00  0.00    +0.000 A 
ATOM     14  N   UNL     1       1.269   9.741  19.624  0.00  0.00    +0.000 NA
ATOM     15  C   UNL     1       0.707  10.936  19.893  0.00  0.00    +0.000 A 
ATOM     16  N   UNL     1      -0.011  11.178  21.008  0.00  0.00    +0.000 NA
BRANCH  15  17
ATOM     17  C   UNL     1       0.867  12.041  18.882  0.00  0.00    +0.000 C 
ATOM     18  C   UNL     1       0.568  13.465  19.290  0.00  0.00    +0.000 C 
ATOM     19  C   UNL     1      -0.337  12.766  18.324  0.00  0.00    +0.000 C 
ENDBRANCH  15  17
BRANCH  11  21
ATOM     20  C   UNL     1      -1.798  11.746  22.985  0.00  0.00    +0.000 C 
ATOM     21  C   UNL     1      -0.923  10.516  23.172  0.00  0.00    +0.000 C 
ENDBRANCH  11  21
ENDBRANCH   1  13
BRANCH   8  22
ATOM     22  C   UNL     1       6.737   5.574  18.072  0.00  0.00    +0.000 C 
ATOM     23  C   UNL     1       7.529   5.866  19.375  0.00  0.00    +0.000 C 
ATOM     24  O   UNL     1       8.216   6.974  18.742  0.00  0.00    +0.000 OA
ATOM     25  C   UNL     1       7.175   7.022  17.727  0.00  0.00    +0.000 C 
BRANCH  22  26
ATOM     26  C   UNL     1       7.418   4.502  17.199  0.00  0.00    +0.000 C 
BRANCH  26  27
ATOM     27  C   UNL     1       7.206   4.710  15.733  0.00  0.00    +0.000 A 
ATOM     28  N   UNL     1       7.859   5.569  14.974  0.00  0.00    +0.000 NA
ATOM     29  N   UNL     1       7.410   5.438  13.682  0.00  0.00    +0.000 NA
ATOM     30  C   UNL     1       6.492   4.501  13.675  0.00  0.00    +0.000 A 
ATOM     31  N   UNL     1       6.316   4.028  14.940  0.00  0.00    +0.000 N 
ATOM     32  C   UNL     1       5.378   3.007  15.323  0.00  0.00    +0.000 C 
ENDBRANCH  26  27
ENDBRANCH  22  26
ENDBRANCH   8  22
TORSDOF 6
ENDMDL
MODEL 6
REMARK VINA RESULT:      -8.4      3.188      8.916
REMARK  Name = 
REMARK  8 active torsions:
REMARK  status: ('A' for Active; 'I' for Inactive)
REMARK    1  A    between atoms: C_1  and  C_2
REMARK    2  A    between atoms: C_2  and  C_3
REMARK    3  A    between atoms: C_5  and  C_6
REMARK    4  A    between atoms: C_13  and  C_14
REMARK    5  A    between atoms: C_14  and  C_15
REMARK    6  A    between atoms: C_15  and  C_16
REMARK    7  A    between atoms: N_20  and  C_21
REMARK    8  A    between atoms: C_27  and  C_28
REMARK                            x       y       z     vdW  Elec       q    Type
REMARK                         _______ _______ _______ _____ _____    ______ ____
ROOT
ATOM      1  C   UNL     1       2.126   6.507  19.917  0.00  0.00    +0.000 C 
ATOM      2  O   UNL     1       1.595   5.958  20.881  0.00  0.00    +0.000 OA
ATOM      3  N   UNL     1       2.035   7.853  19.620  0.00  0.00    +0.000 N 
ATOM      4  C   UNL     1       1.261   8.725  20.390  0.00  0.00    +0.000 A 
ATOM      5  C   UNL     1       1.343   8.720  21.776  0.00  0.00    +0.000 A 
ATOM      6  C   UNL     1       0.497   9.551  22.497  0.00  0.00    +0.000 A 
ATOM      7  C   UNL     1      -0.415  10.342  21.814  0.00  0.00    +0.000 A 
ATOM      8  C   UNL     1      -0.428  10.325  20.419  0.00  0.00    +0.000 A 
ATOM      9  N   UNL     1       0.434   9.541  19.709  0.00  0.00    +0.000 NA
ATOM     10  H   UNL     1       2.173   8.112  18.650  0.00  0.00    +0.000 HD
ENDROOT
BRANCH   1  13
ATOM     11  C   UNL     1       3.251   3.640  17.856  0.00  0.00    +0.000 A 
ATOM     12  C   UNL     1       2.516   4.351  18.774  0.00  0.00    +0.000 A 
ATOM     13  C   UNL     1       2.866   5.674  18.922  0.00  0.00    +0.000 A 
ATOM     14  N   UNL     1       3.845   6.289  18.223  0.00  0.00    +0.000 NA
ATOM     15  C   UNL     1       4.532   5.514  17.361  0.00  0.00    +0.000 A 
ATOM     16  N   UNL     1       4.256   4.209  17.162  0.00  0.00    +0.000 NA
BRANCH  15  17
ATOM     17  C   UNL     1       5.679   6.133  16.606  0.00  0.00    +0.000 C 
ATOM     18  C   UNL     1       6.769   5.242  16.055  0.00  0.00    +0.000 C 
ATOM     19  C   UNL     1       7.071   6.166  17.195  0.00  0.00    +0.000 C 
ENDBRANCH  15  17
BRANCH  11  21
ATOM     20  C   UNL     1       3.700   1.264  18.461  0.00  0.00    +0.000 C 
ATOM     21  C   UNL     1       2.922   2.203  17.551  0.00  0.00    +0.000 C 
ENDBRANCH  11  21
ENDBRANCH   1  13
BRANCH   8  22
ATOM     22  C   UNL     1      -1.423  11.140  19.516  0.00  0.00    +0.000 C 
ATOM     23  C   UNL     1      -0.748  12.005  18.417  0.00  0.00    +0.000 C 
ATOM     24  O   UNL     1      -1.642  13.111  18.702  0.00  0.00    +0.000 OA
ATOM     25  C   UNL     1      -1.934  12.521  20.000  0.00  0.00    +0.000 C 
BRANCH  22  26
ATOM     26  C   UNL     1      -2.535  10.235  18.951  0.00  0.00    +0.000 C 
BRANCH  26  27
ATOM     27  C   UNL     1      -2.757  10.416  17.482  0.00  0.00    +0.000 A 
ATOM     28  N   UNL     1      -2.023   9.886  16.522  0.00  0.00    +0.000 NA
ATOM     29  N   UNL     1      -2.563  10.250  15.312  0.00  0.00    +0.000 NA
ATOM     30  C   UNL     1      -3.615  10.994  15.555  0.00  0.00    +0.000 A 
ATOM     31  N   UNL     1      -3.767  11.142  16.900  0.00  0.00    +0.000 N 
ATOM     32  C   UNL     1      -4.801  11.908  17.542  0.00  0.00    +0.000 C 
ENDBRANCH  26  27
ENDBRANCH  22  26
ENDBRANCH   8  22
TORSDOF 6
ENDMDL
MODEL 7
REMARK VINA RESULT:      -8.4      2.682      8.743
REMARK  Name = 
REMARK  8 active torsions:
REMARK  status: ('A' for Active; 'I' for Inactive)
REMARK    1  A    between atoms: C_1  and  C_2
REMARK    2  A    between atoms: C_2  and  C_3
REMARK    3  A    between atoms: C_5  and  C_6
REMARK    4  A    between atoms: C_13  and  C_14
REMARK    5  A    between atoms: C_14  and  C_15
REMARK    6  A    between atoms: C_15  and  C_16
REMARK    7  A    between atoms: N_20  and  C_21
REMARK    8  A    between atoms: C_27  and  C_28
REMARK                            x       y       z     vdW  Elec       q    Type
REMARK                         _______ _______ _______ _____ _____    ______ ____
ROOT
ATOM      1  C   UNL     1       1.934   6.574  19.938  0.00  0.00    +0.000 C 
ATOM      2  O   UNL     1       1.211   5.979  20.736  0.00  0.00    +0.000 OA
ATOM      3  N   UNL     1       2.054   7.948  19.846  0.00  0.00    +0.000 N 
ATOM      4  C   UNL     1       1.299   8.806  20.648  0.00  0.00    +0.000 A 
ATOM      5  C   UNL     1       1.190   8.597  22.016  0.00  0.00    +0.000 A 
ATOM      6  C   UNL     1       0.365   9.433  22.755  0.00  0.00    +0.000 A 
ATOM      7  C   UNL     1      -0.339  10.436  22.103  0.00  0.00    +0.000 A 
ATOM      8  C   UNL     1      -0.163  10.615  20.730  0.00  0.00    +0.000 A 
ATOM      9  N   UNL     1       0.681   9.821  20.012  0.00  0.00    +0.000 NA
ATOM     10  H   UNL     1       2.354   8.315  18.951  0.00  0.00    +0.000 HD
ENDROOT
BRANCH   1  13
ATOM     11  C   UNL     1       3.136   3.793  17.804  0.00  0.00    +0.000 A 
ATOM     12  C   UNL     1       2.386   4.458  18.744  0.00  0.00    +0.000 A 
ATOM     13  C   UNL     1       2.691   5.789  18.917  0.00  0.00    +0.000 A 
ATOM     14  N   UNL     1       3.640   6.453  18.222  0.00  0.00    +0.000 NA
ATOM     15  C   UNL     1       4.344   5.721  17.336  0.00  0.00    +0.000 A 
ATOM     16  N   UNL     1       4.112   4.412  17.112  0.00  0.00    +0.000 NA
BRANCH  15  17
ATOM     17  C   UNL     1       5.461   6.397  16.583  0.00  0.00    +0.000 C 
ATOM     18  C   UNL     1       6.561   5.554  15.979  0.00  0.00    +0.000 C 
ATOM     19  C   UNL     1       6.863   6.443  17.146  0.00  0.00    +0.000 C 
ENDBRANCH  15  17
BRANCH  11  21
ATOM     20  C   UNL     1       3.500   1.425  18.489  0.00  0.00    +0.000 C 
ATOM     21  C   UNL     1       2.854   2.353  17.471  0.00  0.00    +0.000 C 
ENDBRANCH  11  21
ENDBRANCH   1  13
BRANCH   8  22
ATOM     22  C   UNL     1      -0.915  11.682  19.857  0.00  0.00    +0.000 C 
ATOM     23  C   UNL     1      -2.189  12.282  20.511  0.00  0.00    +0.000 C 
ATOM     24  O   UNL     1      -2.912  12.182  19.258  0.00  0.00    +0.000 OA
ATOM     25  C   UNL     1      -1.936  11.210  18.788  0.00  0.00    +0.000 C 
BRANCH  22  26
ATOM     26  C   UNL     1       0.050  12.769  19.347  0.00  0.00    +0.000 C 
BRANCH  26  27
ATOM     27  C   UNL     1       0.513  13.702  20.421  0.00  0.00    +0.000 A 
ATOM     28  N   UNL     1       1.422  13.431  21.338  0.00  0.00    +0.000 NA
ATOM     29  N   UNL     1       1.600  14.548  22.118  0.00  0.00    +0.000 NA
ATOM     30  C   UNL     1       0.798  15.480  21.663  0.00  0.00    +0.000 A 
ATOM     31  N   UNL     1       0.083  14.992  20.612  0.00  0.00    +0.000 N 
ATOM     32  C   UNL     1      -0.911  15.722  19.871  0.00  0.00    +0.000 C 
ENDBRANCH  26  27
ENDBRANCH  22  26
ENDBRANCH   8  22
TORSDOF 6
ENDMDL
MODEL 8
REMARK VINA RESULT:      -8.3      2.770      8.841
REMARK  Name = 
REMARK  8 active torsions:
REMARK  status: ('A' for Active; 'I' for Inactive)
REMARK    1  A    between atoms: C_1  and  C_2
REMARK    2  A    between atoms: C_2  and  C_3
REMARK    3  A    between atoms: C_5  and  C_6
REMARK    4  A    between atoms: C_13  and  C_14
REMARK    5  A    between atoms: C_14  and  C_15
REMARK    6  A    between atoms: C_15  and  C_16
REMARK    7  A    between atoms: N_20  and  C_21
REMARK    8  A    between atoms: C_27  and  C_28
REMARK                            x       y       z     vdW  Elec       q    Type
REMARK                         _______ _______ _______ _____ _____    ______ ____
ROOT
ATOM      1  C   UNL     1       1.951   7.239  20.010  0.00  0.00    +0.000 C 
ATOM      2  O   UNL     1       1.361   6.762  20.978  0.00  0.00    +0.000 OA
ATOM      3  N   UNL     1       1.837   8.546  19.574  0.00  0.00    +0.000 N 
ATOM      4  C   UNL     1       0.972   9.452  20.191  0.00  0.00    +0.000 A 
ATOM      5  C   UNL     1       0.938   9.583  21.573  0.00  0.00    +0.000 A 
ATOM      6  C   UNL     1       0.006  10.441  22.139  0.00  0.00    +0.000 A 
ATOM      7  C   UNL     1      -0.874  11.124  21.311  0.00  0.00    +0.000 A 
ATOM      8  C   UNL     1      -0.770  10.973  19.927  0.00  0.00    +0.000 A 
ATOM      9  N   UNL     1       0.175  10.163  19.369  0.00  0.00    +0.000 NA
ATOM     10  H   UNL     1       2.046   8.716  18.598  0.00  0.00    +0.000 HD
ENDROOT
BRANCH   1  13
ATOM     11  C   UNL     1       4.196   6.007  17.331  0.00  0.00    +0.000 A 
ATOM     12  C   UNL     1       3.451   6.888  18.077  0.00  0.00    +0.000 A 
ATOM     13  C   UNL     1       2.800   6.348  19.163  0.00  0.00    +0.000 A 
ATOM     14  N   UNL     1       2.871   5.049  19.529  0.00  0.00    +0.000 NA
ATOM     15  C   UNL     1       3.604   4.249  18.730  0.00  0.00    +0.000 A 
ATOM     16  N   UNL     1       4.266   4.699  17.645  0.00  0.00    +0.000 NA
BRANCH  15  17
ATOM     17  C   UNL     1       3.661   2.779  19.054  0.00  0.00    +0.000 C 
ATOM     18  C   UNL     1       3.510   1.770  17.939  0.00  0.00    +0.000 C 
ATOM     19  C   UNL     1       2.425   1.913  18.961  0.00  0.00    +0.000 C 
ENDBRANCH  15  17
BRANCH  11  21
ATOM     20  C   UNL     1       5.559   5.309  15.365  0.00  0.00    +0.000 C 
ATOM     21  C   UNL     1       5.011   6.485  16.159  0.00  0.00    +0.000 C 
ENDBRANCH  11  21
ENDBRANCH   1  13
BRANCH   8  22
ATOM     22  C   UNL     1      -1.714  11.654  18.872  0.00  0.00    +0.000 C 
ATOM     23  C   UNL     1      -3.039  12.219  19.451  0.00  0.00    +0.000 C 
ATOM     24  O   UNL     1      -3.787  11.690  18.327  0.00  0.00    +0.000 OA
ATOM     25  C   UNL     1      -2.690  10.776  18.045  0.00  0.00    +0.000 C 
BRANCH  22  26
ATOM     26  C   UNL     1      -0.952  12.691  18.026  0.00  0.00    +0.000 C 
BRANCH  26  27
ATOM     27  C   UNL     1      -0.176  13.672  18.847  0.00  0.00    +0.000 A 
ATOM     28  N   UNL     1      -0.693  14.610  19.618  0.00  0.00    +0.000 NA
ATOM     29  N   UNL     1       0.335  15.280  20.236  0.00  0.00    +0.000 NA
ATOM     30  C   UNL     1       1.460  14.739  19.833  0.00  0.00    +0.000 A 
ATOM     31  N   UNL     1       1.192  13.739  18.948  0.00  0.00    +0.000 N 
ATOM     32  C   UNL     1       2.177  12.933  18.280  0.00  0.00    +0.000 C 
ENDBRANCH  26  27
ENDBRANCH  22  26
ENDBRANCH   8  22
TORSDOF 6
ENDMDL
MODEL 9
REMARK VINA RESULT:      -8.3      2.703      8.485
REMARK  Name = 
REMARK  8 active torsions:
REMARK  status: ('A' for Active; 'I' for Inactive)
REMARK    1  A    between atoms: C_1  and  C_2
REMARK    2  A    between atoms: C_2  and  C_3
REMARK    3  A    between atoms: C_5  and  C_6
REMARK    4  A    between atoms: C_13  and  C_14
REMARK    5  A    between atoms: C_14  and  C_15
REMARK    6  A    between atoms: C_15  and  C_16
REMARK    7  A    between atoms: N_20  and  C_21
REMARK    8  A    between atoms: C_27  and  C_28
REMARK                            x       y       z     vdW  Elec       q    Type
REMARK                         _______ _______ _______ _____ _____    ______ ____
ROOT
ATOM      1  C   UNL     1       1.958   7.062  19.758  0.00  0.00    +0.000 C 
ATOM      2  O   UNL     1       1.398   6.568  20.736  0.00  0.00    +0.000 OA
ATOM      3  N   UNL     1       1.868   8.386  19.374  0.00  0.00    +0.000 N 
ATOM      4  C   UNL     1       1.062   9.296  20.062  0.00  0.00    +0.000 A 
ATOM      5  C   UNL     1       1.096   9.378  21.448  0.00  0.00    +0.000 A 
ATOM      6  C   UNL     1       0.220  10.244  22.087  0.00  0.00    +0.000 A 
ATOM      7  C   UNL     1      -0.674  10.983  21.325  0.00  0.00    +0.000 A 
ATOM      8  C   UNL     1      -0.638  10.880  19.934  0.00  0.00    +0.000 A 
ATOM      9  N   UNL     1       0.253  10.061  19.304  0.00  0.00    +0.000 NA
ATOM     10  H   UNL     1       2.037   8.585  18.396  0.00  0.00    +0.000 HD
ENDROOT
BRANCH   1  13
ATOM     11  C   UNL     1       3.161   4.086  17.905  0.00  0.00    +0.000 A 
ATOM     12  C   UNL     1       2.389   4.846  18.750  0.00  0.00    +0.000 A 
ATOM     13  C   UNL     1       2.737   6.175  18.842  0.00  0.00    +0.000 A 
ATOM     14  N   UNL     1       3.748   6.750  18.155  0.00  0.00    +0.000 NA
ATOM     15  C   UNL     1       4.469   5.929  17.366  0.00  0.00    +0.000 A 
ATOM     16  N   UNL     1       4.198   4.616  17.227  0.00  0.00    +0.000 NA
BRANCH  15  17
ATOM     17  C   UNL     1       5.651   6.505  16.630  0.00  0.00    +0.000 C 
ATOM     18  C   UNL     1       6.809   5.603  16.270  0.00  0.00    +0.000 C 
ATOM     19  C   UNL     1       6.991   6.663  17.312  0.00  0.00    +0.000 C 
ENDBRANCH  15  17
BRANCH  11  21
ATOM     20  C   UNL     1       1.672   2.187  18.528  0.00  0.00    +0.000 C 
ATOM     21  C   UNL     1       2.841   2.636  17.663  0.00  0.00    +0.000 C 
ENDBRANCH  11  21
ENDBRANCH   1  13
BRANCH   8  22
ATOM     22  C   UNL     1      -1.607  11.627  18.949  0.00  0.00    +0.000 C 
ATOM     23  C   UNL     1      -2.878  12.225  19.610  0.00  0.00    +0.000 C 
ATOM     24  O   UNL     1      -3.702  11.759  18.512  0.00  0.00    +0.000 OA
ATOM     25  C   UNL     1      -2.657  10.813  18.148  0.00  0.00    +0.000 C 
BRANCH  22  26
ATOM     26  C   UNL     1      -0.849  12.661  18.094  0.00  0.00    +0.000 C 
BRANCH  26  27
ATOM     27  C   UNL     1      -0.028  13.613  18.906  0.00  0.00    +0.000 A 
ATOM     28  N   UNL     1      -0.502  14.551  19.703  0.00  0.00    +0.000 NA
ATOM     29  N   UNL     1       0.558  15.191  20.300  0.00  0.00    +0.000 NA
ATOM     30  C   UNL     1       1.659  14.631  19.857  0.00  0.00    +0.000 A 
ATOM     31  N   UNL     1       1.343  13.649  18.967  0.00  0.00    +0.000 N 
ATOM     32  C   UNL     1       2.291  12.830  18.261  0.00  0.00    +0.000 C 
ENDBRANCH  26  27
ENDBRANCH  22  26
ENDBRANCH   8  22
TORSDOF 6
ENDMDL
