MODEL 1
REMARK VINA RESULT:      -8.7      0.000      0.000
REMARK  Name = 
REMARK  5 active torsions:
REMARK  status: ('A' for Active; 'I' for Inactive)
REMARK    1  A    between atoms: C_1  and  O_2
REMARK    2  A    between atoms: O_2  and  C_3
REMARK    3  A    between atoms: C_8  and  C_9
REMARK    4  A    between atoms: C_10  and  C_11
REMARK    5  A    between atoms: N_13  and  C_14
REMARK                            x       y       z     vdW  Elec       q    Type
REMARK                         _______ _______ _______ _____ _____    ______ ____
ROOT
ATOM      1  C   UNL     1       4.725   5.857  17.985  0.00  0.00    +0.000 C 
ATOM      2  O   UNL     1       5.183   5.478  19.055  0.00  0.00    +0.000 OA
ATOM      3  N   UNL     1       3.525   6.541  17.815  0.00  0.00    +0.000 N 
ATOM      4  H   UNL     1       3.160   6.622  16.874  0.00  0.00    +0.000 HD
ENDROOT
BRANCH   3   5
ATOM      5  C   UNL     1       2.680   7.003  18.857  0.00  0.00    +0.000 A 
ATOM      6  C   UNL     1       2.301   6.182  19.948  0.00  0.00    +0.000 A 
ATOM      7  C   UNL     1       1.444   6.634  20.959  0.00  0.00    +0.000 A 
ATOM      8  C   UNL     1       0.988   7.919  20.846  0.00  0.00    +0.000 A 
ATOM      9  N   UNL     1       0.121   8.624  21.670  0.00  0.00    +0.000 N 
ATOM     10  C   UNL     1      -0.059   9.907  21.136  0.00  0.00    +0.000 A 
ATOM     11  O   UNL     1      -0.761  10.791  21.592  0.00  0.00    +0.000 OA
ATOM     12  N   UNL     1       0.726   9.975  19.975  0.00  0.00    +0.000 N 
ATOM     13  C   UNL     1       1.366   8.752  19.794  0.00  0.00    +0.000 A 
ATOM     14  C   UNL     1       2.217   8.330  18.793  0.00  0.00    +0.000 A 
ATOM     15  H   UNL     1      -0.331   8.294  22.504  0.00  0.00    +0.000 HD
ATOM     16  H   UNL     1       0.771  10.789  19.385  0.00  0.00    +0.000 HD
ENDBRANCH   3   5
BRANCH   1  24
ATOM     17  C   UNL     1       5.821   3.400  12.379  0.00  0.00    +0.000 A 
ATOM     18  C   UNL     1       7.105   3.921  12.265  0.00  0.00    +0.000 A 
ATOM     19  C   UNL     1       7.629   4.716  13.289  0.00  0.00    +0.000 A 
ATOM     20  C   UNL     1       6.903   4.998  14.434  0.00  0.00    +0.000 A 
ATOM     21  N   UNL     1       7.461   5.767  15.375  0.00  0.00    +0.000 NA
ATOM     22  C   UNL     1       6.763   6.046  16.509  0.00  0.00    +0.000 A 
ATOM     23  C   UNL     1       7.490   6.945  17.467  0.00  0.00    +0.000 C 
ATOM     24  C   UNL     1       5.481   5.537  16.742  0.00  0.00    +0.000 A 
ATOM     25  C   UNL     1       4.895   4.755  15.738  0.00  0.00    +0.000 A 
ATOM     26  C   UNL     1       5.607   4.468  14.561  0.00  0.00    +0.000 A 
ATOM     27  C   UNL     1       5.072   3.678  13.526  0.00  0.00    +0.000 A 
BRANCH  17  29
ATOM     28  C   UNL     1       3.894   3.026  11.046  0.00  0.00    +0.000 C 
ATOM     29  O   UNL     1       5.195   2.614  11.451  0.00  0.00    +0.000 OA
ENDBRANCH  17  29
ENDBRANCH   1  24
TORSDOF 3
ENDMDL
MODEL 2
REMARK VINA RESULT:      -8.3      2.843      4.685
REMARK  Name = 
REMARK  5 active torsions:
REMARK  status: ('A' for Active; 'I' for Inactive)
REMARK    1  A    between atoms: C_1  and  O_2
REMARK    2  A    between atoms: O_2  and  C_3
REMARK    3  A    between atoms: C_8  and  C_9
REMARK    4  A    between atoms: C_10  and  C_11
REMARK    5  A    between atoms: N_13  and  C_14
REMARK                            x       y       z     vdW  Elec       q    Type
REMARK                         _______ _______ _______ _____ _____    ______ ____
ROOT
ATOM      1  C   UNL     1       1.834   8.285  19.262  0.00  0.00    +0.000 C 
ATOM      2  O   UNL     1       1.695   8.383  20.474  0.00  0.00    +0.000 OA
ATOM      3  N   UNL     1       1.285   9.142  18.312  0.00  0.00    +0.000 N 
ATOM      4  H   UNL     1       1.305   8.846  17.345  0.00  0.00    +0.000 HD
ENDROOT
BRANCH   3   5
ATOM      5  C   UNL     1       0.558  10.329  18.589  0.00  0.00    +0.000 A 
ATOM      6  C   UNL     1      -0.836  10.323  18.842  0.00  0.00    +0.000 A 
ATOM      7  C   UNL     1      -1.555  11.500  19.087  0.00  0.00    +0.000 A 
ATOM      8  C   UNL     1      -0.840  12.668  19.075  0.00  0.00    +0.000 A 
ATOM      9  N   UNL     1      -1.277  13.972  19.258  0.00  0.00    +0.000 N 
ATOM     10  C   UNL     1      -0.177  14.833  19.143  0.00  0.00    +0.000 A 
ATOM     11  O   UNL     1      -0.192  16.047  19.237  0.00  0.00    +0.000 OA
ATOM     12  N   UNL     1       0.943  14.024  18.898  0.00  0.00    +0.000 N 
ATOM     13  C   UNL     1       0.536  12.694  18.851  0.00  0.00    +0.000 A 
ATOM     14  C   UNL     1       1.264  11.546  18.618  0.00  0.00    +0.000 A 
ATOM     15  H   UNL     1      -2.218  14.282  19.428  0.00  0.00    +0.000 HD
ATOM     16  H   UNL     1       1.870  14.391  18.760  0.00  0.00    +0.000 HD
ENDBRANCH   3   5
BRANCH   1  24
ATOM     17  C   UNL     1       5.866   5.249  15.630  0.00  0.00    +0.000 A 
ATOM     18  C   UNL     1       5.693   4.019  16.256  0.00  0.00    +0.000 A 
ATOM     19  C   UNL     1       4.816   3.904  17.338  0.00  0.00    +0.000 A 
ATOM     20  C   UNL     1       4.096   4.989  17.809  0.00  0.00    +0.000 A 
ATOM     21  N   UNL     1       3.274   4.813  18.850  0.00  0.00    +0.000 NA
ATOM     22  C   UNL     1       2.554   5.868  19.318  0.00  0.00    +0.000 A 
ATOM     23  C   UNL     1       1.699   5.542  20.508  0.00  0.00    +0.000 C 
ATOM     24  C   UNL     1       2.623   7.137  18.733  0.00  0.00    +0.000 A 
ATOM     25  C   UNL     1       3.506   7.318  17.661  0.00  0.00    +0.000 A 
ATOM     26  C   UNL     1       4.258   6.234  17.176  0.00  0.00    +0.000 A 
ATOM     27  C   UNL     1       5.151   6.356  16.094  0.00  0.00    +0.000 A 
BRANCH  17  29
ATOM     28  C   UNL     1       6.820   4.448  13.610  0.00  0.00    +0.000 C 
ATOM     29  O   UNL     1       6.693   5.493  14.569  0.00  0.00    +0.000 OA
ENDBRANCH  17  29
ENDBRANCH   1  24
TORSDOF 3
ENDMDL
MODEL 3
REMARK VINA RESULT:      -8.1      2.438      4.441
REMARK  Name = 
REMARK  5 active torsions:
REMARK  status: ('A' for Active; 'I' for Inactive)
REMARK    1  A    between atoms: C_1  and  O_2
REMARK    2  A    between atoms: O_2  and  C_3
REMARK    3  A    between atoms: C_8  and  C_9
REMARK    4  A    between atoms: C_10  and  C_11
REMARK    5  A    between atoms: N_13  and  C_14
REMARK                            x       y       z     vdW  Elec       q    Type
REMARK                         _______ _______ _______ _____ _____    ______ ____
ROOT
ATOM      1  C   UNL     1       1.677   8.386  19.284  0.00  0.00    +0.000 C 
ATOM      2  O   UNL     1       1.148   9.123  18.461  0.00  0.00    +0.000 OA
ATOM      3  N   UNL     1       1.601   8.531  20.666  0.00  0.00    +0.000 N 
ATOM      4  H   UNL     1       2.237   7.984  21.232  0.00  0.00    +0.000 HD
ENDROOT
BRANCH   3   5
ATOM      5  C   UNL     1       0.818   9.492  21.357  0.00  0.00    +0.000 A 
ATOM      6  C   UNL     1      -0.018   9.147  22.448  0.00  0.00    +0.000 A 
ATOM      7  C   UNL     1      -0.810  10.094  23.109  0.00  0.00    +0.000 A 
ATOM      8  C   UNL     1      -0.737  11.382  22.650  0.00  0.00    +0.000 A 
ATOM      9  N   UNL     1      -1.414  12.513  23.083  0.00  0.00    +0.000 N 
ATOM     10  C   UNL     1      -1.016  13.601  22.295  0.00  0.00    +0.000 A 
ATOM     11  O   UNL     1      -1.413  14.749  22.387  0.00  0.00    +0.000 OA
ATOM     12  N   UNL     1      -0.073  13.112  21.378  0.00  0.00    +0.000 N 
ATOM     13  C   UNL     1       0.096  11.747  21.593  0.00  0.00    +0.000 A 
ATOM     14  C   UNL     1       0.892  10.832  20.935  0.00  0.00    +0.000 A 
ATOM     15  H   UNL     1      -2.092  12.573  23.822  0.00  0.00    +0.000 HD
ATOM     16  H   UNL     1       0.368  13.686  20.679  0.00  0.00    +0.000 HD
ENDBRANCH   3   5
BRANCH   1  24
ATOM     17  C   UNL     1       5.839   5.414  15.747  0.00  0.00    +0.000 A 
ATOM     18  C   UNL     1       5.704   4.193  16.399  0.00  0.00    +0.000 A 
ATOM     19  C   UNL     1       4.823   4.071  17.477  0.00  0.00    +0.000 A 
ATOM     20  C   UNL     1       4.063   5.140  17.919  0.00  0.00    +0.000 A 
ATOM     21  N   UNL     1       3.240   4.958  18.958  0.00  0.00    +0.000 NA
ATOM     22  C   UNL     1       2.480   5.997  19.399  0.00  0.00    +0.000 A 
ATOM     23  C   UNL     1       1.628   5.667  20.589  0.00  0.00    +0.000 C 
ATOM     24  C   UNL     1       2.508   7.255  18.786  0.00  0.00    +0.000 A 
ATOM     25  C   UNL     1       3.393   7.443  17.717  0.00  0.00    +0.000 A 
ATOM     26  C   UNL     1       4.186   6.376  17.260  0.00  0.00    +0.000 A 
ATOM     27  C   UNL     1       5.082   6.506  16.182  0.00  0.00    +0.000 A 
BRANCH  17  29
ATOM     28  C   UNL     1       6.887   4.583  13.788  0.00  0.00    +0.000 C 
ATOM     29  O   UNL     1       6.665   5.664  14.687  0.00  0.00    +0.000 OA
ENDBRANCH  17  29
ENDBRANCH   1  24
TORSDOF 3
ENDMDL
MODEL 4
REMARK VINA RESULT:      -8.1      3.559      8.770
REMARK  Name = 
REMARK  5 active torsions:
REMARK  status: ('A' for Active; 'I' for Inactive)
REMARK    1  A    between atoms: C_1  and  O_2
REMARK    2  A    between atoms: O_2  and  C_3
REMARK    3  A    between atoms: C_8  and  C_9
REMARK    4  A    between atoms: C_10  and  C_11
REMARK    5  A    between atoms: N_13  and  C_14
REMARK                            x       y       z     vdW  Elec       q    Type
REMARK                         _______ _______ _______ _____ _____    ______ ____
ROOT
ATOM      1  C   UNL     1       1.975   8.710  18.384  0.00  0.00    +0.000 C 
ATOM      2  O   UNL     1       2.979   9.335  18.065  0.00  0.00    +0.000 OA
ATOM      3  N   UNL     1       1.919   7.344  18.642  0.00  0.00    +0.000 N 
ATOM      4  H   UNL     1       1.005   6.913  18.699  0.00  0.00    +0.000 HD
ENDROOT
BRANCH   3   5
ATOM      5  C   UNL     1       3.030   6.462  18.679  0.00  0.00    +0.000 A 
ATOM      6  C   UNL     1       3.203   5.502  19.707  0.00  0.00    +0.000 A 
ATOM      7  C   UNL     1       4.315   4.652  19.755  0.00  0.00    +0.000 A 
ATOM      8  C   UNL     1       5.235   4.791  18.751  0.00  0.00    +0.000 A 
ATOM      9  N   UNL     1       6.432   4.116  18.551  0.00  0.00    +0.000 N 
ATOM     10  C   UNL     1       7.037   4.615  17.390  0.00  0.00    +0.000 A 
ATOM     11  O   UNL     1       8.103   4.262  16.918  0.00  0.00    +0.000 OA
ATOM     12  N   UNL     1       6.179   5.602  16.879  0.00  0.00    +0.000 N 
ATOM     13  C   UNL     1       5.074   5.713  17.718  0.00  0.00    +0.000 A 
ATOM     14  C   UNL     1       3.981   6.552  17.646  0.00  0.00    +0.000 A 
ATOM     15  H   UNL     1       6.832   3.399  19.130  0.00  0.00    +0.000 HD
ATOM     16  H   UNL     1       6.382   6.135  16.050  0.00  0.00    +0.000 HD
ENDBRANCH   3   5
BRANCH   1  24
ATOM     17  C   UNL     1      -3.553  10.892  16.552  0.00  0.00    +0.000 A 
ATOM     18  C   UNL     1      -3.825  11.552  17.746  0.00  0.00    +0.000 A 
ATOM     19  C   UNL     1      -2.910  11.494  18.801  0.00  0.00    +0.000 A 
ATOM     20  C   UNL     1      -1.718  10.799  18.691  0.00  0.00    +0.000 A 
ATOM     21  N   UNL     1      -0.885  10.782  19.738  0.00  0.00    +0.000 NA
ATOM     22  C   UNL     1       0.294  10.110  19.642  0.00  0.00    +0.000 A 
ATOM     23  C   UNL     1       1.117  10.141  20.897  0.00  0.00    +0.000 C 
ATOM     24  C   UNL     1       0.684   9.449  18.472  0.00  0.00    +0.000 A 
ATOM     25  C   UNL     1      -0.207   9.451  17.391  0.00  0.00    +0.000 A 
ATOM     26  C   UNL     1      -1.429  10.138  17.485  0.00  0.00    +0.000 A 
ATOM     27  C   UNL     1      -2.355  10.182  16.425  0.00  0.00    +0.000 A 
BRANCH  17  29
ATOM     28  C   UNL     1      -3.861  10.185  14.309  0.00  0.00    +0.000 C 
ATOM     29  O   UNL     1      -4.363  10.869  15.452  0.00  0.00    +0.000 OA
ENDBRANCH  17  29
ENDBRANCH   1  24
TORSDOF 3
ENDMDL
MODEL 5
REMARK VINA RESULT:      -8.0      2.616      4.124
REMARK  Name = 
REMARK  5 active torsions:
REMARK  status: ('A' for Active; 'I' for Inactive)
REMARK    1  A    between atoms: C_1  and  O_2
REMARK    2  A    between atoms: O_2  and  C_3
REMARK    3  A    between atoms: C_8  and  C_9
REMARK    4  A    between atoms: C_10  and  C_11
REMARK    5  A    between atoms: N_13  and  C_14
REMARK                            x       y       z     vdW  Elec       q    Type
REMARK                         _______ _______ _______ _____ _____    ______ ____
ROOT
ATOM      1  C   UNL     1       2.299   7.846  18.786  0.00  0.00    +0.000 C 
ATOM      2  O   UNL     1       2.122   7.786  19.996  0.00  0.00    +0.000 OA
ATOM      3  N   UNL     1       1.838   8.858  17.950  0.00  0.00    +0.000 N 
ATOM      4  H   UNL     1       1.873   8.696  16.952  0.00  0.00    +0.000 HD
ENDROOT
BRANCH   3   5
ATOM      5  C   UNL     1       1.175  10.041  18.368  0.00  0.00    +0.000 A 
ATOM      6  C   UNL     1       1.854  11.274  18.532  0.00  0.00    +0.000 A 
ATOM      7  C   UNL     1       1.202  12.433  18.973  0.00  0.00    +0.000 A 
ATOM      8  C   UNL     1      -0.136  12.318  19.237  0.00  0.00    +0.000 A 
ATOM      9  N   UNL     1      -1.029  13.274  19.703  0.00  0.00    +0.000 N 
ATOM     10  C   UNL     1      -2.292  12.681  19.832  0.00  0.00    +0.000 A 
ATOM     11  O   UNL     1      -3.311  13.221  20.223  0.00  0.00    +0.000 OA
ATOM     12  N   UNL     1      -2.155  11.346  19.422  0.00  0.00    +0.000 N 
ATOM     13  C   UNL     1      -0.829  11.121  19.061  0.00  0.00    +0.000 A 
ATOM     14  C   UNL     1      -0.208   9.972  18.619  0.00  0.00    +0.000 A 
ATOM     15  H   UNL     1      -0.831  14.232  19.935  0.00  0.00    +0.000 HD
ATOM     16  H   UNL     1      -2.914  10.685  19.427  0.00  0.00    +0.000 HD
ENDBRANCH   3   5
BRANCH   1  24
ATOM     17  C   UNL     1       6.601   5.075  15.253  0.00  0.00    +0.000 A 
ATOM     18  C   UNL     1       6.150   3.783  15.502  0.00  0.00    +0.000 A 
ATOM     19  C   UNL     1       5.058   3.576  16.349  0.00  0.00    +0.000 A 
ATOM     20  C   UNL     1       4.394   4.632  16.951  0.00  0.00    +0.000 A 
ATOM     21  N   UNL     1       3.357   4.365  17.752  0.00  0.00    +0.000 NA
ATOM     22  C   UNL     1       2.689   5.393  18.344  0.00  0.00    +0.000 A 
ATOM     23  C   UNL     1       1.569   4.955  19.242  0.00  0.00    +0.000 C 
ATOM     24  C   UNL     1       3.034   6.731  18.125  0.00  0.00    +0.000 A 
ATOM     25  C   UNL     1       4.138   6.998  17.306  0.00  0.00    +0.000 A 
ATOM     26  C   UNL     1       4.836   5.942  16.697  0.00  0.00    +0.000 A 
ATOM     27  C   UNL     1       5.945   6.153  15.855  0.00  0.00    +0.000 A 
BRANCH  17  29
ATOM     28  C   UNL     1       7.567   5.010  13.087  0.00  0.00    +0.000 C 
ATOM     29  O   UNL     1       7.655   5.410  14.451  0.00  0.00    +0.000 OA
ENDBRANCH  17  29
ENDBRANCH   1  24
TORSDOF 3
ENDMDL
MODEL 6
REMARK VINA RESULT:      -8.0      0.951      1.474
REMARK  Name = 
REMARK  5 active torsions:
REMARK  status: ('A' for Active; 'I' for Inactive)
REMARK    1  A    between atoms: C_1  and  O_2
REMARK    2  A    between atoms: O_2  and  C_3
REMARK    3  A    between atoms: C_8  and  C_9
REMARK    4  A    between atoms: C_10  and  C_11
REMARK    5  A    between atoms: N_13  and  C_14
REMARK                            x       y       z     vdW  Elec       q    Type
REMARK                         _______ _______ _______ _____ _____    ______ ____
ROOT
ATOM      1  C   UNL     1       4.302   6.406  17.695  0.00  0.00    +0.000 C 
ATOM      2  O   UNL     1       4.383   5.876  18.796  0.00  0.00    +0.000 OA
ATOM      3  N   UNL     1       3.415   7.421  17.348  0.00  0.00    +0.000 N 
ATOM      4  H   UNL     1       3.307   7.636  16.365  0.00  0.00    +0.000 HD
ENDROOT
BRANCH   3   5
ATOM      5  C   UNL     1       2.527   8.083  18.235  0.00  0.00    +0.000 A 
ATOM      6  C   UNL     1       1.708   9.164  17.822  0.00  0.00    +0.000 A 
ATOM      7  C   UNL     1       0.854   9.834  18.707  0.00  0.00    +0.000 A 
ATOM      8  C   UNL     1       0.843   9.389  20.001  0.00  0.00    +0.000 A 
ATOM      9  N   UNL     1       0.127   9.863  21.091  0.00  0.00    +0.000 N 
ATOM     10  C   UNL     1       0.457   9.092  22.214  0.00  0.00    +0.000 A 
ATOM     11  O   UNL     1       0.026   9.232  23.344  0.00  0.00    +0.000 OA
ATOM     12  N   UNL     1       1.382   8.128  21.782  0.00  0.00    +0.000 N 
ATOM     13  C   UNL     1       1.623   8.313  20.424  0.00  0.00    +0.000 A 
ATOM     14  C   UNL     1       2.463   7.634  19.566  0.00  0.00    +0.000 A 
ATOM     15  H   UNL     1      -0.514  10.637  21.110  0.00  0.00    +0.000 HD
ATOM     16  H   UNL     1       1.797   7.447  22.396  0.00  0.00    +0.000 HD
ENDBRANCH   3   5
BRANCH   1  24
ATOM     17  C   UNL     1       5.931   3.412  12.494  0.00  0.00    +0.000 A 
ATOM     18  C   UNL     1       7.269   3.787  12.551  0.00  0.00    +0.000 A 
ATOM     19  C   UNL     1       7.722   4.602  13.592  0.00  0.00    +0.000 A 
ATOM     20  C   UNL     1       6.871   5.048  14.589  0.00  0.00    +0.000 A 
ATOM     21  N   UNL     1       7.367   5.827  15.557  0.00  0.00    +0.000 NA
ATOM     22  C   UNL     1       6.545   6.266  16.548  0.00  0.00    +0.000 A 
ATOM     23  C   UNL     1       7.219   7.157  17.549  0.00  0.00    +0.000 C 
ATOM     24  C   UNL     1       5.193   5.911  16.608  0.00  0.00    +0.000 A 
ATOM     25  C   UNL     1       4.677   5.118  15.576  0.00  0.00    +0.000 A 
ATOM     26  C   UNL     1       5.519   4.666  14.545  0.00  0.00    +0.000 A 
ATOM     27  C   UNL     1       5.056   3.856  13.490  0.00  0.00    +0.000 A 
BRANCH  17  29
ATOM     28  C   UNL     1       4.038   2.960  11.136  0.00  0.00    +0.000 C 
ATOM     29  O   UNL     1       5.364   2.625  11.531  0.00  0.00    +0.000 OA
ENDBRANCH  17  29
ENDBRANCH   1  24
TORSDOF 3
ENDMDL
MODEL 7
REMARK VINA RESULT:      -7.8      3.506      9.560
REMARK  Name = 
REMARK  5 active torsions:
REMARK  status: ('A' for Active; 'I' for Inactive)
REMARK    1  A    between atoms: C_1  and  O_2
REMARK    2  A    between atoms: O_2  and  C_3
REMARK    3  A    between atoms: C_8  and  C_9
REMARK    4  A    between atoms: C_10  and  C_11
REMARK    5  A    between atoms: N_13  and  C_14
REMARK                            x       y       z     vdW  Elec       q    Type
REMARK                         _______ _______ _______ _____ _____    ______ ____
ROOT
ATOM      1  C   UNL     1       1.445   9.521  18.245  0.00  0.00    +0.000 C 
ATOM      2  O   UNL     1       2.225  10.044  17.459  0.00  0.00    +0.000 OA
ATOM      3  N   UNL     1       1.569   8.242  18.778  0.00  0.00    +0.000 N 
ATOM      4  H   UNL     1       0.766   7.851  19.254  0.00  0.00    +0.000 HD
ENDROOT
BRANCH   3   5
ATOM      5  C   UNL     1       2.669   7.366  18.582  0.00  0.00    +0.000 A 
ATOM      6  C   UNL     1       2.951   6.294  19.465  0.00  0.00    +0.000 A 
ATOM      7  C   UNL     1       4.054   5.450  19.284  0.00  0.00    +0.000 A 
ATOM      8  C   UNL     1       4.852   5.709  18.202  0.00  0.00    +0.000 A 
ATOM      9  N   UNL     1       6.011   5.067  17.787  0.00  0.00    +0.000 N 
ATOM     10  C   UNL     1       6.482   5.700  16.629  0.00  0.00    +0.000 A 
ATOM     11  O   UNL     1       7.481   5.409  15.997  0.00  0.00    +0.000 OA
ATOM     12  N   UNL     1       5.579   6.735  16.339  0.00  0.00    +0.000 N 
ATOM     13  C   UNL     1       4.580   6.743  17.309  0.00  0.00    +0.000 A 
ATOM     14  C   UNL     1       3.494   7.580  17.463  0.00  0.00    +0.000 A 
ATOM     15  H   UNL     1       6.469   4.289  18.228  0.00  0.00    +0.000 HD
ATOM     16  H   UNL     1       5.688   7.362  15.560  0.00  0.00    +0.000 HD
ENDBRANCH   3   5
BRANCH   1  24
ATOM     17  C   UNL     1      -4.490  11.376  18.169  0.00  0.00    +0.000 A 
ATOM     18  C   UNL     1      -4.350  12.276  19.220  0.00  0.00    +0.000 A 
ATOM     19  C   UNL     1      -3.113  12.423  19.853  0.00  0.00    +0.000 A 
ATOM     20  C   UNL     1      -2.003  11.698  19.456  0.00  0.00    +0.000 A 
ATOM     21  N   UNL     1      -0.848  11.885  20.105  0.00  0.00    +0.000 NA
ATOM     22  C   UNL     1       0.254  11.185  19.721  0.00  0.00    +0.000 A 
ATOM     23  C   UNL     1       1.473  11.464  20.552  0.00  0.00    +0.000 C 
ATOM     24  C   UNL     1       0.232  10.287  18.649  0.00  0.00    +0.000 A 
ATOM     25  C   UNL     1      -0.988  10.078  17.994  0.00  0.00    +0.000 A 
ATOM     26  C   UNL     1      -2.132  10.793  18.389  0.00  0.00    +0.000 A 
ATOM     27  C   UNL     1      -3.380  10.632  17.758  0.00  0.00    +0.000 A 
BRANCH  17  29
ATOM     28  C   UNL     1      -6.862  11.334  18.177  0.00  0.00    +0.000 C 
ATOM     29  O   UNL     1      -5.641  11.137  17.472  0.00  0.00    +0.000 OA
ENDBRANCH  17  29
ENDBRANCH   1  24
TORSDOF 3
ENDMDL
MODEL 8
REMARK VINA RESULT:      -7.8      2.309      3.713
REMARK  Name = 
REMARK  5 active torsions:
REMARK  status: ('A' for Active; 'I' for Inactive)
REMARK    1  A    between atoms: C_1  and  O_2
REMARK    2  A    between atoms: O_2  and  C_3
REMARK    3  A    between atoms: C_8  and  C_9
REMARK    4  A    between atoms: C_10  and  C_11
REMARK    5  A    between atoms: N_13  and  C_14
REMARK                            x       y       z     vdW  Elec       q    Type
REMARK                         _______ _______ _______ _____ _____    ______ ____
ROOT
ATOM      1  C   UNL     1       2.460   7.217  19.032  0.00  0.00    +0.000 C 
ATOM      2  O   UNL     1       2.317   6.933  20.215  0.00  0.00    +0.000 OA
ATOM      3  N   UNL     1       1.984   8.368  18.413  0.00  0.00    +0.000 N 
ATOM      4  H   UNL     1       1.990   8.395  17.401  0.00  0.00    +0.000 HD
ENDROOT
BRANCH   3   5
ATOM      5  C   UNL     1       1.342   9.454  19.063  0.00  0.00    +0.000 A 
ATOM      6  C   UNL     1       1.202  10.727  18.456  0.00  0.00    +0.000 A 
ATOM      7  C   UNL     1       0.593  11.804  19.113  0.00  0.00    +0.000 A 
ATOM      8  C   UNL     1       0.131  11.566  20.379  0.00  0.00    +0.000 A 
ATOM      9  N   UNL     1      -0.486  12.433  21.271  0.00  0.00    +0.000 N 
ATOM     10  C   UNL     1      -0.767  11.734  22.452  0.00  0.00    +0.000 A 
ATOM     11  O   UNL     1      -1.297  12.182  23.453  0.00  0.00    +0.000 OA
ATOM     12  N   UNL     1      -0.319  10.418  22.258  0.00  0.00    +0.000 N 
ATOM     13  C   UNL     1       0.237  10.316  20.986  0.00  0.00    +0.000 A 
ATOM     14  C   UNL     1       0.824   9.239  20.354  0.00  0.00    +0.000 A 
ATOM     15  H   UNL     1      -0.695  13.406  21.130  0.00  0.00    +0.000 HD
ATOM     16  H   UNL     1      -0.387   9.702  22.962  0.00  0.00    +0.000 HD
ENDBRANCH   3   5
BRANCH   1  24
ATOM     17  C   UNL     1       6.756   5.096  15.068  0.00  0.00    +0.000 A 
ATOM     18  C   UNL     1       6.242   3.805  15.009  0.00  0.00    +0.000 A 
ATOM     19  C   UNL     1       5.113   3.469  15.762  0.00  0.00    +0.000 A 
ATOM     20  C   UNL     1       4.476   4.395  16.569  0.00  0.00    +0.000 A 
ATOM     21  N   UNL     1       3.401   4.008  17.266  0.00  0.00    +0.000 NA
ATOM     22  C   UNL     1       2.758   4.909  18.058  0.00  0.00    +0.000 A 
ATOM     23  C   UNL     1       1.591   4.338  18.808  0.00  0.00    +0.000 C 
ATOM     24  C   UNL     1       3.168   6.243  18.155  0.00  0.00    +0.000 A 
ATOM     25  C   UNL     1       4.311   6.631  17.443  0.00  0.00    +0.000 A 
ATOM     26  C   UNL     1       4.983   5.704  16.628  0.00  0.00    +0.000 A 
ATOM     27  C   UNL     1       6.128   6.043  15.881  0.00  0.00    +0.000 A 
BRANCH  17  29
ATOM     28  C   UNL     1       7.901   5.252  12.995  0.00  0.00    +0.000 C 
ATOM     29  O   UNL     1       7.851   5.549  14.387  0.00  0.00    +0.000 OA
ENDBRANCH  17  29
ENDBRANCH   1  24
TORSDOF 3
ENDMDL
MODEL 9
REMARK VINA RESULT:      -7.8      2.511      4.655
REMARK  Name = 
REMARK  5 active torsions:
REMARK  status: ('A' for Active; 'I' for Inactive)
REMARK    1  A    between atoms: C_1  and  O_2
REMARK    2  A    between atoms: O_2  and  C_3
REMARK    3  A    between atoms: C_8  and  C_9
REMARK    4  A    between atoms: C_10  and  C_11
REMARK    5  A    between atoms: N_13  and  C_14
REMARK                            x       y       z     vdW  Elec       q    Type
REMARK                         _______ _______ _______ _____ _____    ______ ____
ROOT
ATOM      1  C   UNL     1       1.672   8.482  18.731  0.00  0.00    +0.000 C 
ATOM      2  O   UNL     1       0.997   8.793  17.757  0.00  0.00    +0.000 OA
ATOM      3  N   UNL     1       1.607   9.081  19.985  0.00  0.00    +0.000 N 
ATOM      4  H   UNL     1       2.347   8.873  20.644  0.00  0.00    +0.000 HD
ENDROOT
BRANCH   3   5
ATOM      5  C   UNL     1       0.682  10.082  20.379  0.00  0.00    +0.000 A 
ATOM      6  C   UNL     1       0.399  11.213  19.573  0.00  0.00    +0.000 A 
ATOM      7  C   UNL     1      -0.494  12.213  19.979  0.00  0.00    +0.000 A 
ATOM      8  C   UNL     1      -1.090  12.043  21.199  0.00  0.00    +0.000 A 
ATOM      9  N   UNL     1      -1.987  12.867  21.865  0.00  0.00    +0.000 N 
ATOM     10  C   UNL     1      -2.308  12.276  23.095  0.00  0.00    +0.000 A 
ATOM     11  O   UNL     1      -3.059  12.725  23.942  0.00  0.00    +0.000 OA
ATOM     12  N   UNL     1      -1.597  11.068  23.160  0.00  0.00    +0.000 N 
ATOM     13  C   UNL     1      -0.845  10.927  21.997  0.00  0.00    +0.000 A 
ATOM     14  C   UNL     1       0.024   9.926  21.612  0.00  0.00    +0.000 A 
ATOM     15  H   UNL     1      -2.352  13.750  21.554  0.00  0.00    +0.000 HD
ATOM     16  H   UNL     1      -1.635  10.446  23.950  0.00  0.00    +0.000 HD
ENDBRANCH   3   5
BRANCH   1  24
ATOM     17  C   UNL     1       6.526   5.438  16.312  0.00  0.00    +0.000 A 
ATOM     18  C   UNL     1       6.462   4.376  17.208  0.00  0.00    +0.000 A 
ATOM     19  C   UNL     1       5.487   4.364  18.209  0.00  0.00    +0.000 A 
ATOM     20  C   UNL     1       4.561   5.385  18.334  0.00  0.00    +0.000 A 
ATOM     21  N   UNL     1       3.654   5.314  19.315  0.00  0.00    +0.000 NA
ATOM     22  C   UNL     1       2.732   6.307  19.446  0.00  0.00    +0.000 A 
ATOM     23  C   UNL     1       1.797   6.121  20.604  0.00  0.00    +0.000 C 
ATOM     24  C   UNL     1       2.681   7.398  18.571  0.00  0.00    +0.000 A 
ATOM     25  C   UNL     1       3.652   7.477  17.564  0.00  0.00    +0.000 A 
ATOM     26  C   UNL     1       4.611   6.458  17.427  0.00  0.00    +0.000 A 
ATOM     27  C   UNL     1       5.601   6.480  16.427  0.00  0.00    +0.000 A 
BRANCH  17  29
ATOM     28  C   UNL     1       7.132   4.877  14.088  0.00  0.00    +0.000 C 
ATOM     29  O   UNL     1       7.429   5.570  15.296  0.00  0.00    +0.000 OA
ENDBRANCH  17  29
ENDBRANCH   1  24
TORSDOF 3
ENDMDL
