MODEL 1
REMARK VINA RESULT:      -8.7      0.000      0.000
REMARK  Name = 
REMARK  5 active torsions:
REMARK  status: ('A' for Active; 'I' for Inactive)
REMARK    1  A    between atoms: C_1  and  N_2
REMARK    2  A    between atoms: C_6  and  C_7
REMARK    3  A    between atoms: C_7  and  C_8
REMARK    4  A    between atoms: C_8  and  C_9
REMARK    5  A    between atoms: C_13  and  N_14
REMARK                            x       y       z     vdW  Elec       q    Type
REMARK                         _______ _______ _______ _____ _____    ______ ____
ROOT
ATOM      1  C   UNL     1       4.489   5.235  17.289  0.00  0.00    +0.000 A 
ATOM      2  C   UNL     1       3.549   4.187  17.221  0.00  0.00    +0.000 A 
ATOM      3  C   UNL     1       2.256   4.325  17.721  0.00  0.00    +0.000 A 
ATOM      4  C   UNL     1       1.856   5.530  18.290  0.00  0.00    +0.000 A 
ATOM      5  C   UNL     1       2.723   6.623  18.323  0.00  0.00    +0.000 A 
ATOM      6  C   UNL     1       4.024   6.459  17.824  0.00  0.00    +0.000 A 
ENDROOT
BRANCH   5   7
ATOM      7  N   UNL     1       2.268   7.892  18.768  0.00  0.00    +0.000 N 
ATOM      8  C   UNL     1       2.105   9.020  17.767  0.00  0.00    +0.000 C 
ATOM      9  C   UNL     1       1.085   9.783  18.465  0.00  0.00    +0.000 C 
ATOM     10  N   UNL     1       0.220  10.706  18.626  0.00  0.00    +0.000 NA
ATOM     11  N   UNL     1      -0.044  10.156  19.985  0.00  0.00    +0.000 NA
ATOM     12  C   UNL     1       0.841   9.273  19.747  0.00  0.00    +0.000 C 
ATOM     13  C   UNL     1       1.629   8.095  20.013  0.00  0.00    +0.000 C 
ATOM     14  O   UNL     1       1.615   7.485  21.056  0.00  0.00    +0.000 OA
ENDBRANCH   5   7
BRANCH   1  15
ATOM     15  C   UNL     1       6.022   5.027  16.826  0.00  0.00    +0.000 C 
ATOM     16  C   UNL     1       6.923   6.291  16.734  0.00  0.00    +0.000 C 
ATOM     17  O   UNL     1       7.833   5.791  17.736  0.00  0.00    +0.000 OA
ATOM     18  C   UNL     1       7.001   4.642  17.974  0.00  0.00    +0.000 C 
BRANCH  15  19
ATOM     19  C   UNL     1       6.145   4.062  15.625  0.00  0.00    +0.000 C 
BRANCH  19  25
ATOM     20  C   UNL     1       5.715   3.345  12.590  0.00  0.00    +0.000 C 
ATOM     21  N   UNL     1       6.668   4.281  13.135  0.00  0.00    +0.000 N 
ATOM     22  C   UNL     1       7.566   4.997  12.402  0.00  0.00    +0.000 A 
ATOM     23  N   UNL     1       8.282   5.755  13.200  0.00  0.00    +0.000 NA
ATOM     24  N   UNL     1       7.858   5.506  14.485  0.00  0.00    +0.000 NA
ATOM     25  C   UNL     1       6.874   4.629  14.448  0.00  0.00    +0.000 A 
ENDBRANCH  19  25
ENDBRANCH  15  19
ENDBRANCH   1  15
TORSDOF 4
ENDMDL
MODEL 2
REMARK VINA RESULT:      -8.6      3.128      4.852
REMARK  Name = 
REMARK  5 active torsions:
REMARK  status: ('A' for Active; 'I' for Inactive)
REMARK    1  A    between atoms: C_1  and  N_2
REMARK    2  A    between atoms: C_6  and  C_7
REMARK    3  A    between atoms: C_7  and  C_8
REMARK    4  A    between atoms: C_8  and  C_9
REMARK    5  A    between atoms: C_13  and  N_14
REMARK                            x       y       z     vdW  Elec       q    Type
REMARK                         _______ _______ _______ _____ _____    ______ ____
ROOT
ATOM      1  C   UNL     1       4.745   5.655  16.645  0.00  0.00    +0.000 A 
ATOM      2  C   UNL     1       4.437   7.029  16.629  0.00  0.00    +0.000 A 
ATOM      3  C   UNL     1       3.385   7.557  17.373  0.00  0.00    +0.000 A 
ATOM      4  C   UNL     1       2.614   6.723  18.177  0.00  0.00    +0.000 A 
ATOM      5  C   UNL     1       2.915   5.364  18.284  0.00  0.00    +0.000 A 
ATOM      6  C   UNL     1       3.974   4.852  17.518  0.00  0.00    +0.000 A 
ENDROOT
BRANCH   5   7
ATOM      7  N   UNL     1       2.225   4.543  19.215  0.00  0.00    +0.000 N 
ATOM      8  C   UNL     1       2.213   3.040  19.019  0.00  0.00    +0.000 C 
ATOM      9  C   UNL     1       2.026   2.643  20.404  0.00  0.00    +0.000 C 
ATOM     10  N   UNL     1       1.939   1.837  21.388  0.00  0.00    +0.000 NA
ATOM     11  N   UNL     1       1.689   3.012  22.267  0.00  0.00    +0.000 NA
ATOM     12  C   UNL     1       1.780   3.746  21.232  0.00  0.00    +0.000 C 
ATOM     13  C   UNL     1       1.832   4.986  20.499  0.00  0.00    +0.000 C 
ATOM     14  O   UNL     1       1.631   6.076  20.983  0.00  0.00    +0.000 OA
ENDBRANCH   5   7
BRANCH   1  15
ATOM     15  C   UNL     1       5.881   5.031  15.683  0.00  0.00    +0.000 C 
ATOM     16  C   UNL     1       5.828   3.501  15.406  0.00  0.00    +0.000 C 
ATOM     17  O   UNL     1       5.650   3.702  13.989  0.00  0.00    +0.000 OA
ATOM     18  C   UNL     1       5.569   5.127  14.161  0.00  0.00    +0.000 C 
BRANCH  15  19
ATOM     19  C   UNL     1       7.290   5.574  16.012  0.00  0.00    +0.000 C 
BRANCH  19  25
ATOM     20  C   UNL     1       7.838   8.173  17.703  0.00  0.00    +0.000 C 
ATOM     21  N   UNL     1       7.844   6.811  18.177  0.00  0.00    +0.000 N 
ATOM     22  C   UNL     1       8.117   6.431  19.457  0.00  0.00    +0.000 A 
ATOM     23  N   UNL     1       8.036   5.124  19.556  0.00  0.00    +0.000 NA
ATOM     24  N   UNL     1       7.728   4.640  18.305  0.00  0.00    +0.000 NA
ATOM     25  C   UNL     1       7.596   5.657  17.474  0.00  0.00    +0.000 A 
ENDBRANCH  19  25
ENDBRANCH  15  19
ENDBRANCH   1  15
TORSDOF 4
ENDMDL
MODEL 3
REMARK VINA RESULT:      -8.6      2.631      3.931
REMARK  Name = 
REMARK  5 active torsions:
REMARK  status: ('A' for Active; 'I' for Inactive)
REMARK    1  A    between atoms: C_1  and  N_2
REMARK    2  A    between atoms: C_6  and  C_7
REMARK    3  A    between atoms: C_7  and  C_8
REMARK    4  A    between atoms: C_8  and  C_9
REMARK    5  A    between atoms: C_13  and  N_14
REMARK                            x       y       z     vdW  Elec       q    Type
REMARK                         _______ _______ _______ _____ _____    ______ ____
ROOT
ATOM      1  C   UNL     1       5.423   6.219  17.966  0.00  0.00    +0.000 A 
ATOM      2  C   UNL     1       4.739   7.240  17.278  0.00  0.00    +0.000 A 
ATOM      3  C   UNL     1       3.348   7.293  17.233  0.00  0.00    +0.000 A 
ATOM      4  C   UNL     1       2.593   6.331  17.896  0.00  0.00    +0.000 A 
ATOM      5  C   UNL     1       3.216   5.335  18.650  0.00  0.00    +0.000 A 
ATOM      6  C   UNL     1       4.619   5.294  18.673  0.00  0.00    +0.000 A 
ENDROOT
BRANCH   5   7
ATOM      7  N   UNL     1       2.448   4.444  19.444  0.00  0.00    +0.000 N 
ATOM      8  C   UNL     1       2.626   2.948  19.274  0.00  0.00    +0.000 C 
ATOM      9  C   UNL     1       2.219   2.529  20.604  0.00  0.00    +0.000 C 
ATOM     10  N   UNL     1       2.028   1.715  21.566  0.00  0.00    +0.000 NA
ATOM     11  N   UNL     1       1.495   2.855  22.363  0.00  0.00    +0.000 NA
ATOM     12  C   UNL     1       1.709   3.599  21.352  0.00  0.00    +0.000 C 
ATOM     13  C   UNL     1       1.773   4.840  20.622  0.00  0.00    +0.000 C 
ATOM     14  O   UNL     1       1.374   5.901  21.042  0.00  0.00    +0.000 OA
ENDBRANCH   5   7
BRANCH   1  15
ATOM     15  C   UNL     1       7.031   6.089  17.907  0.00  0.00    +0.000 C 
ATOM     16  C   UNL     1       7.843   7.366  17.551  0.00  0.00    +0.000 C 
ATOM     17  O   UNL     1       8.533   7.355  18.818  0.00  0.00    +0.000 OA
ATOM     18  C   UNL     1       7.747   6.243  19.280  0.00  0.00    +0.000 C 
BRANCH  15  19
ATOM     19  C   UNL     1       7.488   4.812  17.166  0.00  0.00    +0.000 C 
BRANCH  19  25
ATOM     20  C   UNL     1       5.091   3.241  15.860  0.00  0.00    +0.000 C 
ATOM     21  N   UNL     1       6.066   4.059  15.182  0.00  0.00    +0.000 N 
ATOM     22  C   UNL     1       6.113   4.263  13.835  0.00  0.00    +0.000 A 
ATOM     23  N   UNL     1       7.117   5.058  13.543  0.00  0.00    +0.000 NA
ATOM     24  N   UNL     1       7.754   5.357  14.726  0.00  0.00    +0.000 NA
ATOM     25  C   UNL     1       7.114   4.769  15.718  0.00  0.00    +0.000 A 
ENDBRANCH  19  25
ENDBRANCH  15  19
ENDBRANCH   1  15
TORSDOF 4
ENDMDL
MODEL 4
REMARK VINA RESULT:      -8.6      2.765      4.097
REMARK  Name = 
REMARK  5 active torsions:
REMARK  status: ('A' for Active; 'I' for Inactive)
REMARK    1  A    between atoms: C_1  and  N_2
REMARK    2  A    between atoms: C_6  and  C_7
REMARK    3  A    between atoms: C_7  and  C_8
REMARK    4  A    between atoms: C_8  and  C_9
REMARK    5  A    between atoms: C_13  and  N_14
REMARK                            x       y       z     vdW  Elec       q    Type
REMARK                         _______ _______ _______ _____ _____    ______ ____
ROOT
ATOM      1  C   UNL     1       3.138   5.758  18.313  0.00  0.00    +0.000 A 
ATOM      2  C   UNL     1       3.775   6.550  17.338  0.00  0.00    +0.000 A 
ATOM      3  C   UNL     1       3.511   7.912  17.209  0.00  0.00    +0.000 A 
ATOM      4  C   UNL     1       2.610   8.530  18.069  0.00  0.00    +0.000 A 
ATOM      5  C   UNL     1       2.000   7.809  19.097  0.00  0.00    +0.000 A 
ATOM      6  C   UNL     1       2.272   6.437  19.202  0.00  0.00    +0.000 A 
ENDROOT
BRANCH   5   7
ATOM      7  N   UNL     1       1.197   8.469  20.064  0.00  0.00    +0.000 N 
ATOM      8  C   UNL     1       1.156   7.944  21.485  0.00  0.00    +0.000 C 
ATOM      9  C   UNL     1       0.822   9.183  22.165  0.00  0.00    +0.000 C 
ATOM     10  N   UNL     1       0.615   9.951  23.161  0.00  0.00    +0.000 NA
ATOM     11  N   UNL     1       0.318  11.046  22.195  0.00  0.00    +0.000 NA
ATOM     12  C   UNL     1       0.533  10.211  21.258  0.00  0.00    +0.000 C 
ATOM     13  C   UNL     1       0.695   9.780  19.892  0.00  0.00    +0.000 C 
ATOM     14  O   UNL     1       0.483  10.476  18.926  0.00  0.00    +0.000 OA
ENDBRANCH   5   7
BRANCH   1  15
ATOM     15  C   UNL     1       3.351   4.159  18.374  0.00  0.00    +0.000 C 
ATOM     16  C   UNL     1       2.877   3.419  19.657  0.00  0.00    +0.000 C 
ATOM     17  O   UNL     1       1.930   2.617  18.920  0.00  0.00    +0.000 OA
ATOM     18  C   UNL     1       2.220   3.326  17.703  0.00  0.00    +0.000 C 
BRANCH  15  19
ATOM     19  C   UNL     1       4.748   3.734  17.868  0.00  0.00    +0.000 C 
BRANCH  19  25
ATOM     20  C   UNL     1       7.118   5.125  16.333  0.00  0.00    +0.000 C 
ATOM     21  N   UNL     1       6.909   5.090  17.759  0.00  0.00    +0.000 N 
ATOM     22  C   UNL     1       7.740   5.648  18.684  0.00  0.00    +0.000 A 
ATOM     23  N   UNL     1       7.262   5.441  19.889  0.00  0.00    +0.000 NA
ATOM     24  N   UNL     1       6.106   4.707  19.747  0.00  0.00    +0.000 NA
ATOM     25  C   UNL     1       5.882   4.507  18.462  0.00  0.00    +0.000 A 
ENDBRANCH  19  25
ENDBRANCH  15  19
ENDBRANCH   1  15
TORSDOF 4
ENDMDL
MODEL 5
REMARK VINA RESULT:      -8.5      3.889      5.505
REMARK  Name = 
REMARK  5 active torsions:
REMARK  status: ('A' for Active; 'I' for Inactive)
REMARK    1  A    between atoms: C_1  and  N_2
REMARK    2  A    between atoms: C_6  and  C_7
REMARK    3  A    between atoms: C_7  and  C_8
REMARK    4  A    between atoms: C_8  and  C_9
REMARK    5  A    between atoms: C_13  and  N_14
REMARK                            x       y       z     vdW  Elec       q    Type
REMARK                         _______ _______ _______ _____ _____    ______ ____
ROOT
ATOM      1  C   UNL     1       2.474   7.321  18.635  0.00  0.00    +0.000 A 
ATOM      2  C   UNL     1       2.478   8.157  17.501  0.00  0.00    +0.000 A 
ATOM      3  C   UNL     1       1.880   9.415  17.512  0.00  0.00    +0.000 A 
ATOM      4  C   UNL     1       1.272   9.886  18.671  0.00  0.00    +0.000 A 
ATOM      5  C   UNL     1       1.295   9.129  19.844  0.00  0.00    +0.000 A 
ATOM      6  C   UNL     1       1.894   7.860  19.807  0.00  0.00    +0.000 A 
ENDROOT
BRANCH   5   7
ATOM      7  N   UNL     1       0.806   9.670  21.061  0.00  0.00    +0.000 N 
ATOM      8  C   UNL     1       1.125  11.108  21.420  0.00  0.00    +0.000 C 
ATOM      9  C   UNL     1      -0.020  11.377  22.273  0.00  0.00    +0.000 C 
ATOM     10  N   UNL     1      -0.806  12.082  22.987  0.00  0.00    +0.000 NA
ATOM     11  N   UNL     1      -1.609  10.852  23.234  0.00  0.00    +0.000 NA
ATOM     12  C   UNL     1      -0.772  10.219  22.513  0.00  0.00    +0.000 C 
ATOM     13  C   UNL     1      -0.239   9.080  21.809  0.00  0.00    +0.000 C 
ATOM     14  O   UNL     1      -0.696   7.963  21.872  0.00  0.00    +0.000 OA
ENDBRANCH   5   7
BRANCH   1  15
ATOM     15  C   UNL     1       3.053   5.815  18.578  0.00  0.00    +0.000 C 
ATOM     16  C   UNL     1       4.015   5.458  17.409  0.00  0.00    +0.000 C 
ATOM     17  O   UNL     1       5.099   5.154  18.312  0.00  0.00    +0.000 OA
ATOM     18  C   UNL     1       4.322   5.573  19.447  0.00  0.00    +0.000 C 
BRANCH  15  19
ATOM     19  C   UNL     1       1.962   4.757  18.856  0.00  0.00    +0.000 C 
BRANCH  19  25
ATOM     20  C   UNL     1       3.433   1.977  18.999  0.00  0.00    +0.000 C 
ATOM     21  N   UNL     1       2.841   2.703  20.095  0.00  0.00    +0.000 N 
ATOM     22  C   UNL     1       2.807   2.275  21.388  0.00  0.00    +0.000 A 
ATOM     23  N   UNL     1       2.200   3.169  22.134  0.00  0.00    +0.000 NA
ATOM     24  N   UNL     1       1.807   4.192  21.301  0.00  0.00    +0.000 NA
ATOM     25  C   UNL     1       2.205   3.922  20.073  0.00  0.00    +0.000 A 
ENDBRANCH  19  25
ENDBRANCH  15  19
ENDBRANCH   1  15
TORSDOF 4
ENDMDL
MODEL 6
REMARK VINA RESULT:      -8.5      1.820      3.063
REMARK  Name = 
REMARK  5 active torsions:
REMARK  status: ('A' for Active; 'I' for Inactive)
REMARK    1  A    between atoms: C_1  and  N_2
REMARK    2  A    between atoms: C_6  and  C_7
REMARK    3  A    between atoms: C_7  and  C_8
REMARK    4  A    between atoms: C_8  and  C_9
REMARK    5  A    between atoms: C_13  and  N_14
REMARK                            x       y       z     vdW  Elec       q    Type
REMARK                         _______ _______ _______ _____ _____    ______ ____
ROOT
ATOM      1  C   UNL     1       4.357   4.702  16.912  0.00  0.00    +0.000 A 
ATOM      2  C   UNL     1       3.426   3.662  17.105  0.00  0.00    +0.000 A 
ATOM      3  C   UNL     1       2.273   3.838  17.867  0.00  0.00    +0.000 A 
ATOM      4  C   UNL     1       2.006   5.074  18.448  0.00  0.00    +0.000 A 
ATOM      5  C   UNL     1       2.858   6.159  18.235  0.00  0.00    +0.000 A 
ATOM      6  C   UNL     1       4.019   5.956  17.472  0.00  0.00    +0.000 A 
ENDROOT
BRANCH   5   7
ATOM      7  N   UNL     1       2.510   7.453  18.702  0.00  0.00    +0.000 N 
ATOM      8  C   UNL     1       2.473   8.614  17.728  0.00  0.00    +0.000 C 
ATOM      9  C   UNL     1       1.510   9.450  18.424  0.00  0.00    +0.000 C 
ATOM     10  N   UNL     1       0.730  10.444  18.590  0.00  0.00    +0.000 NA
ATOM     11  N   UNL     1       0.385   9.889  19.929  0.00  0.00    +0.000 NA
ATOM     12  C   UNL     1       1.192   8.934  19.687  0.00  0.00    +0.000 C 
ATOM     13  C   UNL     1       1.864   7.684  19.939  0.00  0.00    +0.000 C 
ATOM     14  O   UNL     1       1.771   7.053  20.966  0.00  0.00    +0.000 OA
ENDBRANCH   5   7
BRANCH   1  15
ATOM     15  C   UNL     1       5.752   4.455  16.138  0.00  0.00    +0.000 C 
ATOM     16  C   UNL     1       5.804   3.297  15.102  0.00  0.00    +0.000 C 
ATOM     17  O   UNL     1       6.104   4.199  14.016  0.00  0.00    +0.000 OA
ATOM     18  C   UNL     1       5.961   5.343  14.877  0.00  0.00    +0.000 C 
BRANCH  15  19
ATOM     19  C   UNL     1       6.968   4.520  17.089  0.00  0.00    +0.000 C 
BRANCH  19  25
ATOM     20  C   UNL     1       7.937   5.606  19.881  0.00  0.00    +0.000 C 
ATOM     21  N   UNL     1       7.831   6.349  18.649  0.00  0.00    +0.000 N 
ATOM     22  C   UNL     1       8.120   7.673  18.509  0.00  0.00    +0.000 A 
ATOM     23  N   UNL     1       7.922   8.039  17.264  0.00  0.00    +0.000 NA
ATOM     24  N   UNL     1       7.468   6.932  16.583  0.00  0.00    +0.000 NA
ATOM     25  C   UNL     1       7.428   5.907  17.412  0.00  0.00    +0.000 A 
ENDBRANCH  19  25
ENDBRANCH  15  19
ENDBRANCH   1  15
TORSDOF 4
ENDMDL
MODEL 7
REMARK VINA RESULT:      -8.4      3.774      5.377
REMARK  Name = 
REMARK  5 active torsions:
REMARK  status: ('A' for Active; 'I' for Inactive)
REMARK    1  A    between atoms: C_1  and  N_2
REMARK    2  A    between atoms: C_6  and  C_7
REMARK    3  A    between atoms: C_7  and  C_8
REMARK    4  A    between atoms: C_8  and  C_9
REMARK    5  A    between atoms: C_13  and  N_14
REMARK                            x       y       z     vdW  Elec       q    Type
REMARK                         _______ _______ _______ _____ _____    ______ ____
ROOT
ATOM      1  C   UNL     1       2.897   7.046  18.396  0.00  0.00    +0.000 A 
ATOM      2  C   UNL     1       3.194   8.022  17.425  0.00  0.00    +0.000 A 
ATOM      3  C   UNL     1       2.579   9.272  17.425  0.00  0.00    +0.000 A 
ATOM      4  C   UNL     1       1.656   9.592  18.414  0.00  0.00    +0.000 A 
ATOM      5  C   UNL     1       1.373   8.690  19.441  0.00  0.00    +0.000 A 
ATOM      6  C   UNL     1       1.996   7.433  19.415  0.00  0.00    +0.000 A 
ENDROOT
BRANCH   5   7
ATOM      7  N   UNL     1       0.545   9.071  20.530  0.00  0.00    +0.000 N 
ATOM      8  C   UNL     1       0.679   8.351  21.857  0.00  0.00    +0.000 C 
ATOM      9  C   UNL     1       0.208   9.414  22.729  0.00  0.00    +0.000 C 
ATOM     10  N   UNL     1      -0.045   9.992  23.836  0.00  0.00    +0.000 NA
ATOM     11  N   UNL     1      -0.568  11.150  23.058  0.00  0.00    +0.000 NA
ATOM     12  C   UNL     1      -0.292  10.500  21.998  0.00  0.00    +0.000 C 
ATOM     13  C   UNL     1      -0.159  10.297  20.578  0.00  0.00    +0.000 C 
ATOM     14  O   UNL     1      -0.537  11.079  19.737  0.00  0.00    +0.000 OA
ENDBRANCH   5   7
BRANCH   1  15
ATOM     15  C   UNL     1       3.515   5.557  18.315  0.00  0.00    +0.000 C 
ATOM     16  C   UNL     1       4.526   5.258  17.172  0.00  0.00    +0.000 C 
ATOM     17  O   UNL     1       5.584   4.951  18.104  0.00  0.00    +0.000 OA
ATOM     18  C   UNL     1       4.757   5.318  19.222  0.00  0.00    +0.000 C 
BRANCH  15  19
ATOM     19  C   UNL     1       2.440   4.466  18.522  0.00  0.00    +0.000 C 
BRANCH  19  25
ATOM     20  C   UNL     1       3.796   1.710  19.217  0.00  0.00    +0.000 C 
ATOM     21  N   UNL     1       3.081   2.579  20.120  0.00  0.00    +0.000 N 
ATOM     22  C   UNL     1       2.859   2.321  21.439  0.00  0.00    +0.000 A 
ATOM     23  N   UNL     1       2.183   3.311  21.974  0.00  0.00    +0.000 NA
ATOM     24  N   UNL     1       1.936   4.223  20.973  0.00  0.00    +0.000 NA
ATOM     25  C   UNL     1       2.491   3.791  19.856  0.00  0.00    +0.000 A 
ENDBRANCH  19  25
ENDBRANCH  15  19
ENDBRANCH   1  15
TORSDOF 4
ENDMDL
MODEL 8
REMARK VINA RESULT:      -8.3      1.624      2.089
REMARK  Name = 
REMARK  5 active torsions:
REMARK  status: ('A' for Active; 'I' for Inactive)
REMARK    1  A    between atoms: C_1  and  N_2
REMARK    2  A    between atoms: C_6  and  C_7
REMARK    3  A    between atoms: C_7  and  C_8
REMARK    4  A    between atoms: C_8  and  C_9
REMARK    5  A    between atoms: C_13  and  N_14
REMARK                            x       y       z     vdW  Elec       q    Type
REMARK                         _______ _______ _______ _____ _____    ______ ____
ROOT
ATOM      1  C   UNL     1       5.396   5.380  18.754  0.00  0.00    +0.000 A 
ATOM      2  C   UNL     1       4.987   4.113  19.213  0.00  0.00    +0.000 A 
ATOM      3  C   UNL     1       3.735   3.908  19.790  0.00  0.00    +0.000 A 
ATOM      4  C   UNL     1       2.842   4.967  19.908  0.00  0.00    +0.000 A 
ATOM      5  C   UNL     1       3.167   6.230  19.410  0.00  0.00    +0.000 A 
ATOM      6  C   UNL     1       4.437   6.417  18.842  0.00  0.00    +0.000 A 
ENDROOT
BRANCH   5   7
ATOM      7  N   UNL     1       2.203   7.271  19.396  0.00  0.00    +0.000 N 
ATOM      8  C   UNL     1       1.446   7.604  20.668  0.00  0.00    +0.000 C 
ATOM      9  C   UNL     1       1.145   8.996  20.383  0.00  0.00    +0.000 C 
ATOM     10  N   UNL     1       0.715  10.172  20.622  0.00  0.00    +0.000 NA
ATOM     11  N   UNL     1       1.111  10.548  19.236  0.00  0.00    +0.000 NA
ATOM     12  C   UNL     1       1.508   9.349  19.076  0.00  0.00    +0.000 C 
ATOM     13  C   UNL     1       2.131   8.251  18.379  0.00  0.00    +0.000 C 
ATOM     14  O   UNL     1       2.512   8.297  17.233  0.00  0.00    +0.000 OA
ENDBRANCH   5   7
BRANCH   1  15
ATOM     15  C   UNL     1       6.892   5.639  18.207  0.00  0.00    +0.000 C 
ATOM     16  C   UNL     1       7.232   7.065  17.688  0.00  0.00    +0.000 C 
ATOM     17  O   UNL     1       8.257   7.251  18.686  0.00  0.00    +0.000 OA
ATOM     18  C   UNL     1       7.935   5.994  19.307  0.00  0.00    +0.000 C 
BRANCH  15  19
ATOM     19  C   UNL     1       7.390   4.491  17.300  0.00  0.00    +0.000 C 
BRANCH  19  25
ATOM     20  C   UNL     1       4.769   3.418  15.924  0.00  0.00    +0.000 C 
ATOM     21  N   UNL     1       5.852   4.131  15.293  0.00  0.00    +0.000 N 
ATOM     22  C   UNL     1       5.917   4.436  13.966  0.00  0.00    +0.000 A 
ATOM     23  N   UNL     1       7.028   5.089  13.718  0.00  0.00    +0.000 NA
ATOM     24  N   UNL     1       7.715   5.189  14.906  0.00  0.00    +0.000 NA
ATOM     25  C   UNL     1       7.001   4.626  15.861  0.00  0.00    +0.000 A 
ENDBRANCH  19  25
ENDBRANCH  15  19
ENDBRANCH   1  15
TORSDOF 4
ENDMDL
MODEL 9
REMARK VINA RESULT:      -8.3      4.053      5.492
REMARK  Name = 
REMARK  5 active torsions:
REMARK  status: ('A' for Active; 'I' for Inactive)
REMARK    1  A    between atoms: C_1  and  N_2
REMARK    2  A    between atoms: C_6  and  C_7
REMARK    3  A    between atoms: C_7  and  C_8
REMARK    4  A    between atoms: C_8  and  C_9
REMARK    5  A    between atoms: C_13  and  N_14
REMARK                            x       y       z     vdW  Elec       q    Type
REMARK                         _______ _______ _______ _____ _____    ______ ____
ROOT
ATOM      1  C   UNL     1       2.321   7.507  19.000  0.00  0.00    +0.000 A 
ATOM      2  C   UNL     1       2.290   8.220  17.785  0.00  0.00    +0.000 A 
ATOM      3  C   UNL     1       1.650   9.452  17.670  0.00  0.00    +0.000 A 
ATOM      4  C   UNL     1       1.033  10.021  18.780  0.00  0.00    +0.000 A 
ATOM      5  C   UNL     1       1.090   9.392  20.025  0.00  0.00    +0.000 A 
ATOM      6  C   UNL     1       1.731   8.147  20.115  0.00  0.00    +0.000 A 
ENDROOT
BRANCH   5   7
ATOM      7  N   UNL     1       0.591  10.042  21.184  0.00  0.00    +0.000 N 
ATOM      8  C   UNL     1       0.768  11.540  21.335  0.00  0.00    +0.000 C 
ATOM      9  C   UNL     1      -0.368  11.806  22.201  0.00  0.00    +0.000 C 
ATOM     10  N   UNL     1      -1.197  12.518  22.857  0.00  0.00    +0.000 NA
ATOM     11  N   UNL     1      -1.855  11.258  23.302  0.00  0.00    +0.000 NA
ATOM     12  C   UNL     1      -0.983  10.621  22.630  0.00  0.00    +0.000 C 
ATOM     13  C   UNL     1      -0.358   9.456  22.055  0.00  0.00    +0.000 C 
ATOM     14  O   UNL     1      -0.690   8.318  22.287  0.00  0.00    +0.000 OA
ENDBRANCH   5   7
BRANCH   1  15
ATOM     15  C   UNL     1       2.951   6.024  19.095  0.00  0.00    +0.000 C 
ATOM     16  C   UNL     1       3.331   5.318  17.763  0.00  0.00    +0.000 C 
ATOM     17  O   UNL     1       4.724   5.234  18.133  0.00  0.00    +0.000 OA
ATOM     18  C   UNL     1       4.488   5.985  19.337  0.00  0.00    +0.000 C 
BRANCH  15  19
ATOM     19  C   UNL     1       2.192   5.130  20.101  0.00  0.00    +0.000 C 
BRANCH  19  25
ATOM     20  C   UNL     1       3.867   2.466  20.217  0.00  0.00    +0.000 C 
ATOM     21  N   UNL     1       2.566   2.649  19.622  0.00  0.00    +0.000 N 
ATOM     22  C   UNL     1       1.856   1.677  18.983  0.00  0.00    +0.000 A 
ATOM     23  N   UNL     1       0.714   2.169  18.561  0.00  0.00    +0.000 NA
ATOM     24  N   UNL     1       0.692   3.501  18.911  0.00  0.00    +0.000 NA
ATOM     25  C   UNL     1       1.801   3.789  19.565  0.00  0.00    +0.000 A 
ENDBRANCH  19  25
ENDBRANCH  15  19
ENDBRANCH   1  15
TORSDOF 4
ENDMDL
