MODEL 1
REMARK VINA RESULT:      -9.6      0.000      0.000
REMARK  Name = 
REMARK  6 active torsions:
REMARK  status: ('A' for Active; 'I' for Inactive)
REMARK    1  A    between atoms: C_1  and  C_2
REMARK    2  A    between atoms: C_6  and  C_8
REMARK    3  A    between atoms: C_8  and  N_9
REMARK    4  A    between atoms: C_8  and  C_20
REMARK    5  A    between atoms: N_9  and  C_10
REMARK    6  A    between atoms: C_15  and  C_16
REMARK                            x       y       z     vdW  Elec       q    Type
REMARK                         _______ _______ _______ _____ _____    ______ ____
ROOT
ATOM      1  C   UNL     1       2.886   5.929  18.744  0.00  0.00    +0.000 C 
ENDROOT
BRANCH   1   7
ATOM      2  C   UNL     1      -0.805  10.841  22.994  0.00  0.00    +0.000 C 
ATOM      3  C   UNL     1       0.004  10.013  22.080  0.00  0.00    +0.000 A 
ATOM      4  C   UNL     1       0.472   8.719  22.072  0.00  0.00    +0.000 A 
ATOM      5  C   UNL     1       1.130   8.577  20.819  0.00  0.00    +0.000 A 
ATOM      6  N   UNL     1       1.727   7.417  20.349  0.00  0.00    +0.000 N 
ATOM      7  C   UNL     1       2.207   7.286  19.055  0.00  0.00    +0.000 C 
ATOM      8  O   UNL     1       2.104   8.131  18.164  0.00  0.00    +0.000 OA
ATOM      9  N   UNL     1       1.092   9.737  20.155  0.00  0.00    +0.000 NA
ATOM     10  O   UNL     1       0.397  10.627  20.936  0.00  0.00    +0.000 OA
ATOM     11  H   UNL     1       1.814   6.611  20.959  0.00  0.00    +0.000 HD
ENDBRANCH   1   7
BRANCH   1  12
ATOM     12  C   UNL     1       2.282   4.809  19.595  0.00  0.00    +0.000 A 
ATOM     13  C   UNL     1       1.304   3.960  19.051  0.00  0.00    +0.000 A 
ATOM     14  C   UNL     1       0.767   2.915  19.805  0.00  0.00    +0.000 A 
ATOM     15  C   UNL     1       1.201   2.703  21.113  0.00  0.00    +0.000 A 
ATOM     16  C   UNL     1       2.167   3.538  21.668  0.00  0.00    +0.000 A 
ATOM     17  C   UNL     1       2.704   4.585  20.917  0.00  0.00    +0.000 A 
ENDBRANCH   1  12
BRANCH   1  18
ATOM     18  N   UNL     1       4.361   5.925  18.964  0.00  0.00    +0.000 N 
ATOM     19  H   UNL     1       4.569   5.237  19.691  0.00  0.00    +0.000 HD
BRANCH  18  20
ATOM     20  C   UNL     1       5.195   5.652  17.854  0.00  0.00    +0.000 A 
ATOM     21  C   UNL     1       6.499   6.200  17.863  0.00  0.00    +0.000 A 
ATOM     22  C   UNL     1       7.381   6.087  16.778  0.00  0.00    +0.000 A 
ATOM     23  C   UNL     1       6.878   5.412  15.678  0.00  0.00    +0.000 A 
ATOM     24  O   UNL     1       7.526   5.157  14.503  0.00  0.00    +0.000 OA
ATOM     25  C   UNL     1       6.604   4.457  13.771  0.00  0.00    +0.000 A 
ATOM     26  C   UNL     1       7.049   3.978  12.446  0.00  0.00    +0.000 C 
ATOM     27  N   UNL     1       5.441   4.273  14.369  0.00  0.00    +0.000 NA
ATOM     28  C   UNL     1       5.610   4.870  15.596  0.00  0.00    +0.000 A 
ATOM     29  C   UNL     1       4.740   5.000  16.693  0.00  0.00    +0.000 A 
ENDBRANCH  18  20
ENDBRANCH   1  18
TORSDOF 4
ENDMDL
MODEL 2
REMARK VINA RESULT:      -9.4      3.381      7.525
REMARK  Name = 
REMARK  6 active torsions:
REMARK  status: ('A' for Active; 'I' for Inactive)
REMARK    1  A    between atoms: C_1  and  C_2
REMARK    2  A    between atoms: C_6  and  C_8
REMARK    3  A    between atoms: C_8  and  N_9
REMARK    4  A    between atoms: C_8  and  C_20
REMARK    5  A    between atoms: N_9  and  C_10
REMARK    6  A    between atoms: C_15  and  C_16
REMARK                            x       y       z     vdW  Elec       q    Type
REMARK                         _______ _______ _______ _____ _____    ______ ____
ROOT
ATOM      1  C   UNL     1       6.021   4.364  15.986  0.00  0.00    +0.000 C 
ENDROOT
BRANCH   1   7
ATOM      2  C   UNL     1       9.105  10.576  18.763  0.00  0.00    +0.000 C 
ATOM      3  C   UNL     1       8.520   9.278  18.378  0.00  0.00    +0.000 A 
ATOM      4  C   UNL     1       7.631   8.840  17.423  0.00  0.00    +0.000 A 
ATOM      5  C   UNL     1       7.588   7.427  17.586  0.00  0.00    +0.000 A 
ATOM      6  N   UNL     1       6.850   6.548  16.810  0.00  0.00    +0.000 N 
ATOM      7  C   UNL     1       6.973   5.170  16.904  0.00  0.00    +0.000 C 
ATOM      8  O   UNL     1       7.780   4.571  17.617  0.00  0.00    +0.000 OA
ATOM      9  N   UNL     1       8.369   7.068  18.611  0.00  0.00    +0.000 NA
ATOM     10  O   UNL     1       8.944   8.213  19.102  0.00  0.00    +0.000 OA
ATOM     11  H   UNL     1       6.193   6.908  16.125  0.00  0.00    +0.000 HD
ENDBRANCH   1   7
BRANCH   1  12
ATOM     12  C   UNL     1       6.514   4.382  14.538  0.00  0.00    +0.000 A 
ATOM     13  C   UNL     1       5.952   3.511  13.591  0.00  0.00    +0.000 A 
ATOM     14  C   UNL     1       6.370   3.537  12.259  0.00  0.00    +0.000 A 
ATOM     15  C   UNL     1       7.356   4.437  11.855  0.00  0.00    +0.000 A 
ATOM     16  C   UNL     1       7.926   5.305  12.782  0.00  0.00    +0.000 A 
ATOM     17  C   UNL     1       7.511   5.278  14.115  0.00  0.00    +0.000 A 
ENDBRANCH   1  12
BRANCH   1  18
ATOM     18  N   UNL     1       4.612   4.854  15.996  0.00  0.00    +0.000 N 
ATOM     19  H   UNL     1       4.101   4.356  15.263  0.00  0.00    +0.000 HD
BRANCH  18  20
ATOM     20  C   UNL     1       3.876   4.732  17.198  0.00  0.00    +0.000 A 
ATOM     21  C   UNL     1       3.479   5.923  17.848  0.00  0.00    +0.000 A 
ATOM     22  C   UNL     1       2.837   5.934  19.096  0.00  0.00    +0.000 A 
ATOM     23  C   UNL     1       2.635   4.687  19.665  0.00  0.00    +0.000 A 
ATOM     24  O   UNL     1       2.032   4.418  20.860  0.00  0.00    +0.000 OA
ATOM     25  C   UNL     1       2.074   3.051  20.942  0.00  0.00    +0.000 A 
ATOM     26  C   UNL     1       1.425   2.447  22.124  0.00  0.00    +0.000 C 
ATOM     27  N   UNL     1       2.663   2.451  19.924  0.00  0.00    +0.000 NA
ATOM     28  C   UNL     1       3.016   3.488  19.095  0.00  0.00    +0.000 A 
ATOM     29  C   UNL     1       3.663   3.501  17.846  0.00  0.00    +0.000 A 
ENDBRANCH  18  20
ENDBRANCH   1  18
TORSDOF 4
ENDMDL
MODEL 3
REMARK VINA RESULT:      -9.2      1.627      7.863
REMARK  Name = 
REMARK  6 active torsions:
REMARK  status: ('A' for Active; 'I' for Inactive)
REMARK    1  A    between atoms: C_1  and  C_2
REMARK    2  A    between atoms: C_6  and  C_8
REMARK    3  A    between atoms: C_8  and  N_9
REMARK    4  A    between atoms: C_8  and  C_20
REMARK    5  A    between atoms: N_9  and  C_10
REMARK    6  A    between atoms: C_15  and  C_16
REMARK                            x       y       z     vdW  Elec       q    Type
REMARK                         _______ _______ _______ _____ _____    ______ ____
ROOT
ATOM      1  C   UNL     1       3.363   6.283  18.992  0.00  0.00    +0.000 C 
ENDROOT
BRANCH   1   7
ATOM      2  C   UNL     1       7.570   4.476  13.089  0.00  0.00    +0.000 C 
ATOM      3  C   UNL     1       6.892   4.884  14.333  0.00  0.00    +0.000 A 
ATOM      4  C   UNL     1       5.623   5.288  14.680  0.00  0.00    +0.000 A 
ATOM      5  C   UNL     1       5.665   5.450  16.093  0.00  0.00    +0.000 A 
ATOM      6  N   UNL     1       4.595   5.812  16.895  0.00  0.00    +0.000 N 
ATOM      7  C   UNL     1       4.648   5.792  18.281  0.00  0.00    +0.000 C 
ATOM      8  O   UNL     1       5.601   5.396  18.954  0.00  0.00    +0.000 OA
ATOM      9  N   UNL     1       6.902   5.202  16.538  0.00  0.00    +0.000 NA
ATOM     10  O   UNL     1       7.662   4.854  15.450  0.00  0.00    +0.000 OA
ATOM     11  H   UNL     1       3.717   6.094  16.470  0.00  0.00    +0.000 HD
ENDBRANCH   1   7
BRANCH   1  12
ATOM     12  C   UNL     1       2.507   5.100  19.451  0.00  0.00    +0.000 A 
ATOM     13  C   UNL     1       1.790   4.342  18.512  0.00  0.00    +0.000 A 
ATOM     14  C   UNL     1       1.031   3.241  18.914  0.00  0.00    +0.000 A 
ATOM     15  C   UNL     1       0.979   2.882  20.260  0.00  0.00    +0.000 A 
ATOM     16  C   UNL     1       1.681   3.626  21.204  0.00  0.00    +0.000 A 
ATOM     17  C   UNL     1       2.439   4.729  20.806  0.00  0.00    +0.000 A 
ENDBRANCH   1  12
BRANCH   1  18
ATOM     18  N   UNL     1       2.505   7.168  18.150  0.00  0.00    +0.000 N 
ATOM     19  H   UNL     1       1.861   6.573  17.624  0.00  0.00    +0.000 HD
BRANCH  18  20
ATOM     20  C   UNL     1       1.743   8.166  18.801  0.00  0.00    +0.000 A 
ATOM     21  C   UNL     1       1.455   9.347  18.078  0.00  0.00    +0.000 A 
ATOM     22  C   UNL     1       0.799  10.449  18.648  0.00  0.00    +0.000 A 
ATOM     23  C   UNL     1       0.466  10.309  19.985  0.00  0.00    +0.000 A 
ATOM     24  O   UNL     1      -0.178  11.221  20.770  0.00  0.00    +0.000 OA
ATOM     25  C   UNL     1      -0.273  10.593  21.984  0.00  0.00    +0.000 A 
ATOM     26  C   UNL     1      -0.996  11.325  23.044  0.00  0.00    +0.000 C 
ATOM     27  N   UNL     1       0.270   9.390  22.031  0.00  0.00    +0.000 NA
ATOM     28  C   UNL     1       0.736   9.194  20.754  0.00  0.00    +0.000 A 
ATOM     29  C   UNL     1       1.400   8.103  20.164  0.00  0.00    +0.000 A 
ENDBRANCH  18  20
ENDBRANCH   1  18
TORSDOF 4
ENDMDL
MODEL 4
REMARK VINA RESULT:      -9.2      1.649      1.768
REMARK  Name = 
REMARK  6 active torsions:
REMARK  status: ('A' for Active; 'I' for Inactive)
REMARK    1  A    between atoms: C_1  and  C_2
REMARK    2  A    between atoms: C_6  and  C_8
REMARK    3  A    between atoms: C_8  and  N_9
REMARK    4  A    between atoms: C_8  and  C_20
REMARK    5  A    between atoms: N_9  and  C_10
REMARK    6  A    between atoms: C_15  and  C_16
REMARK                            x       y       z     vdW  Elec       q    Type
REMARK                         _______ _______ _______ _____ _____    ______ ____
ROOT
ATOM      1  C   UNL     1       2.765   6.129  19.209  0.00  0.00    +0.000 C 
ENDROOT
BRANCH   1   7
ATOM      2  C   UNL     1       0.081  13.097  18.972  0.00  0.00    +0.000 C 
ATOM      3  C   UNL     1       0.469  11.682  19.121  0.00  0.00    +0.000 A 
ATOM      4  C   UNL     1       1.227  10.784  18.403  0.00  0.00    +0.000 A 
ATOM      5  C   UNL     1       1.231   9.600  19.190  0.00  0.00    +0.000 A 
ATOM      6  N   UNL     1       1.907   8.429  18.883  0.00  0.00    +0.000 N 
ATOM      7  C   UNL     1       2.014   7.364  19.764  0.00  0.00    +0.000 C 
ATOM      8  O   UNL     1       1.595   7.350  20.923  0.00  0.00    +0.000 OA
ATOM      9  N   UNL     1       0.477   9.780  20.281  0.00  0.00    +0.000 NA
ATOM     10  O   UNL     1       0.003  11.067  20.237  0.00  0.00    +0.000 OA
ATOM     11  H   UNL     1       2.364   8.332  17.982  0.00  0.00    +0.000 HD
ENDBRANCH   1   7
BRANCH   1  12
ATOM     12  C   UNL     1       2.181   4.834  19.777  0.00  0.00    +0.000 A 
ATOM     13  C   UNL     1       1.389   4.003  18.968  0.00  0.00    +0.000 A 
ATOM     14  C   UNL     1       0.875   2.803  19.464  0.00  0.00    +0.000 A 
ATOM     15  C   UNL     1       1.148   2.416  20.775  0.00  0.00    +0.000 A 
ATOM     16  C   UNL     1       1.929   3.230  21.592  0.00  0.00    +0.000 A 
ATOM     17  C   UNL     1       2.442   4.432  21.099  0.00  0.00    +0.000 A 
ENDBRANCH   1  12
BRANCH   1  18
ATOM     18  N   UNL     1       4.230   6.134  19.492  0.00  0.00    +0.000 N 
ATOM     19  H   UNL     1       4.392   5.553  20.318  0.00  0.00    +0.000 HD
BRANCH  18  20
ATOM     20  C   UNL     1       5.104   5.693  18.471  0.00  0.00    +0.000 A 
ATOM     21  C   UNL     1       6.364   5.184  18.861  0.00  0.00    +0.000 A 
ATOM     22  C   UNL     1       7.355   4.814  17.939  0.00  0.00    +0.000 A 
ATOM     23  C   UNL     1       7.020   4.998  16.608  0.00  0.00    +0.000 A 
ATOM     24  O   UNL     1       7.793   4.714  15.519  0.00  0.00    +0.000 OA
ATOM     25  C   UNL     1       6.999   5.062  14.459  0.00  0.00    +0.000 A 
ATOM     26  C   UNL     1       7.553   4.803  13.114  0.00  0.00    +0.000 C 
ATOM     27  N   UNL     1       5.819   5.555  14.786  0.00  0.00    +0.000 NA
ATOM     28  C   UNL     1       5.817   5.508  16.160  0.00  0.00    +0.000 A 
ATOM     29  C   UNL     1       4.840   5.879  17.101  0.00  0.00    +0.000 A 
ENDBRANCH  18  20
ENDBRANCH   1  18
TORSDOF 4
ENDMDL
MODEL 5
REMARK VINA RESULT:      -9.2      1.742      7.910
REMARK  Name = 
REMARK  6 active torsions:
REMARK  status: ('A' for Active; 'I' for Inactive)
REMARK    1  A    between atoms: C_1  and  C_2
REMARK    2  A    between atoms: C_6  and  C_8
REMARK    3  A    between atoms: C_8  and  N_9
REMARK    4  A    between atoms: C_8  and  C_20
REMARK    5  A    between atoms: N_9  and  C_10
REMARK    6  A    between atoms: C_15  and  C_16
REMARK                            x       y       z     vdW  Elec       q    Type
REMARK                         _______ _______ _______ _____ _____    ______ ____
ROOT
ATOM      1  C   UNL     1       3.725   6.059  18.540  0.00  0.00    +0.000 C 
ENDROOT
BRANCH   1   7
ATOM      2  C   UNL     1       7.407   4.053  12.357  0.00  0.00    +0.000 C 
ATOM      3  C   UNL     1       6.800   4.583  13.592  0.00  0.00    +0.000 A 
ATOM      4  C   UNL     1       5.554   4.541  14.176  0.00  0.00    +0.000 A 
ATOM      5  C   UNL     1       5.713   5.214  15.419  0.00  0.00    +0.000 A 
ATOM      6  N   UNL     1       4.724   5.385  16.376  0.00  0.00    +0.000 N 
ATOM      7  C   UNL     1       4.974   5.900  17.638  0.00  0.00    +0.000 C 
ATOM      8  O   UNL     1       6.085   6.197  18.083  0.00  0.00    +0.000 OA
ATOM      9  N   UNL     1       6.967   5.666  15.531  0.00  0.00    +0.000 NA
ATOM     10  O   UNL     1       7.639   5.277  14.400  0.00  0.00    +0.000 OA
ATOM     11  H   UNL     1       3.768   5.113  16.169  0.00  0.00    +0.000 HD
ENDBRANCH   1   7
BRANCH   1  12
ATOM     12  C   UNL     1       3.062   4.704  18.797  0.00  0.00    +0.000 A 
ATOM     13  C   UNL     1       3.648   3.791  19.689  0.00  0.00    +0.000 A 
ATOM     14  C   UNL     1       3.038   2.564  19.957  0.00  0.00    +0.000 A 
ATOM     15  C   UNL     1       1.833   2.233  19.339  0.00  0.00    +0.000 A 
ATOM     16  C   UNL     1       1.241   3.126  18.450  0.00  0.00    +0.000 A 
ATOM     17  C   UNL     1       1.850   4.352  18.178  0.00  0.00    +0.000 A 
ENDBRANCH   1  12
BRANCH   1  18
ATOM     18  N   UNL     1       2.689   6.977  17.982  0.00  0.00    +0.000 N 
ATOM     19  H   UNL     1       1.929   6.403  17.608  0.00  0.00    +0.000 HD
BRANCH  18  20
ATOM     20  C   UNL     1       2.121   7.939  18.849  0.00  0.00    +0.000 A 
ATOM     21  C   UNL     1       1.926   7.570  20.200  0.00  0.00    +0.000 A 
ATOM     22  C   UNL     1       1.279   8.397  21.131  0.00  0.00    +0.000 A 
ATOM     23  C   UNL     1       0.820   9.604  20.628  0.00  0.00    +0.000 A 
ATOM     24  O   UNL     1       0.169  10.586  21.316  0.00  0.00    +0.000 OA
ATOM     25  C   UNL     1      -0.044  11.556  20.373  0.00  0.00    +0.000 A 
ATOM     26  C   UNL     1      -0.689  12.798  20.846  0.00  0.00    +0.000 C 
ATOM     27  N   UNL     1       0.393  11.259  19.163  0.00  0.00    +0.000 NA
ATOM     28  C   UNL     1       0.958  10.016  19.317  0.00  0.00    +0.000 A 
ATOM     29  C   UNL     1       1.606   9.169  18.399  0.00  0.00    +0.000 A 
ENDBRANCH  18  20
ENDBRANCH   1  18
TORSDOF 4
ENDMDL
MODEL 6
REMARK VINA RESULT:      -9.2      1.801      7.700
REMARK  Name = 
REMARK  6 active torsions:
REMARK  status: ('A' for Active; 'I' for Inactive)
REMARK    1  A    between atoms: C_1  and  C_2
REMARK    2  A    between atoms: C_6  and  C_8
REMARK    3  A    between atoms: C_8  and  N_9
REMARK    4  A    between atoms: C_8  and  C_20
REMARK    5  A    between atoms: N_9  and  C_10
REMARK    6  A    between atoms: C_15  and  C_16
REMARK                            x       y       z     vdW  Elec       q    Type
REMARK                         _______ _______ _______ _____ _____    ______ ____
ROOT
ATOM      1  C   UNL     1       3.299   5.999  19.203  0.00  0.00    +0.000 C 
ENDROOT
BRANCH   1   7
ATOM      2  C   UNL     1       7.535   4.650  13.199  0.00  0.00    +0.000 C 
ATOM      3  C   UNL     1       6.851   4.963  14.467  0.00  0.00    +0.000 A 
ATOM      4  C   UNL     1       5.578   5.334  14.838  0.00  0.00    +0.000 A 
ATOM      5  C   UNL     1       5.616   5.392  16.259  0.00  0.00    +0.000 A 
ATOM      6  N   UNL     1       4.541   5.689  17.082  0.00  0.00    +0.000 N 
ATOM      7  C   UNL     1       4.590   5.568  18.462  0.00  0.00    +0.000 C 
ATOM      8  O   UNL     1       5.542   5.128  19.109  0.00  0.00    +0.000 OA
ATOM      9  N   UNL     1       6.852   5.119  16.690  0.00  0.00    +0.000 NA
ATOM     10  O   UNL     1       7.617   4.855  15.581  0.00  0.00    +0.000 OA
ATOM     11  H   UNL     1       3.663   5.996  16.676  0.00  0.00    +0.000 HD
ENDBRANCH   1   7
BRANCH   1  12
ATOM     12  C   UNL     1       2.426   4.785  19.530  0.00  0.00    +0.000 A 
ATOM     13  C   UNL     1       1.808   4.063  18.496  0.00  0.00    +0.000 A 
ATOM     14  C   UNL     1       1.034   2.936  18.777  0.00  0.00    +0.000 A 
ATOM     15  C   UNL     1       0.869   2.513  20.096  0.00  0.00    +0.000 A 
ATOM     16  C   UNL     1       1.472   3.220  21.132  0.00  0.00    +0.000 A 
ATOM     17  C   UNL     1       2.244   4.350  20.854  0.00  0.00    +0.000 A 
ENDBRANCH   1  12
BRANCH   1  18
ATOM     18  N   UNL     1       2.463   6.974  18.444  0.00  0.00    +0.000 N 
ATOM     19  H   UNL     1       1.677   6.462  18.035  0.00  0.00    +0.000 HD
BRANCH  18  20
ATOM     20  C   UNL     1       1.939   8.085  19.146  0.00  0.00    +0.000 A 
ATOM     21  C   UNL     1       1.700   7.931  20.531  0.00  0.00    +0.000 A 
ATOM     22  C   UNL     1       1.088   8.923  21.313  0.00  0.00    +0.000 A 
ATOM     23  C   UNL     1       0.712  10.066  20.628  0.00  0.00    +0.000 A 
ATOM     24  O   UNL     1       0.110  11.175  21.148  0.00  0.00    +0.000 OA
ATOM     25  C   UNL     1      -0.028  12.005  20.067  0.00  0.00    +0.000 A 
ATOM     26  C   UNL     1      -0.604  13.338  20.336  0.00  0.00    +0.000 C 
ATOM     27  N   UNL     1       0.410  11.508  18.925  0.00  0.00    +0.000 NA
ATOM     28  C   UNL     1       0.897  10.271  19.274  0.00  0.00    +0.000 A 
ATOM     29  C   UNL     1       1.507   9.262  18.508  0.00  0.00    +0.000 A 
ENDBRANCH  18  20
ENDBRANCH   1  18
TORSDOF 4
ENDMDL
MODEL 7
REMARK VINA RESULT:      -8.9      1.608      7.946
REMARK  Name = 
REMARK  6 active torsions:
REMARK  status: ('A' for Active; 'I' for Inactive)
REMARK    1  A    between atoms: C_1  and  C_2
REMARK    2  A    between atoms: C_6  and  C_8
REMARK    3  A    between atoms: C_8  and  N_9
REMARK    4  A    between atoms: C_8  and  C_20
REMARK    5  A    between atoms: N_9  and  C_10
REMARK    6  A    between atoms: C_15  and  C_16
REMARK                            x       y       z     vdW  Elec       q    Type
REMARK                         _______ _______ _______ _____ _____    ______ ____
ROOT
ATOM      1  C   UNL     1       3.862   6.211  18.282  0.00  0.00    +0.000 C 
ENDROOT
BRANCH   1   7
ATOM      2  C   UNL     1       7.535   4.008  12.161  0.00  0.00    +0.000 C 
ATOM      3  C   UNL     1       6.938   4.568  13.387  0.00  0.00    +0.000 A 
ATOM      4  C   UNL     1       5.679   4.609  13.944  0.00  0.00    +0.000 A 
ATOM      5  C   UNL     1       5.856   5.257  15.197  0.00  0.00    +0.000 A 
ATOM      6  N   UNL     1       4.860   5.488  16.133  0.00  0.00    +0.000 N 
ATOM      7  C   UNL     1       5.117   5.973  17.407  0.00  0.00    +0.000 C 
ATOM      8  O   UNL     1       6.236   6.187  17.879  0.00  0.00    +0.000 OA
ATOM      9  N   UNL     1       7.136   5.619  15.342  0.00  0.00    +0.000 NA
ATOM     10  O   UNL     1       7.805   5.194  14.221  0.00  0.00    +0.000 OA
ATOM     11  H   UNL     1       3.893   5.287  15.902  0.00  0.00    +0.000 HD
ENDBRANCH   1   7
BRANCH   1  12
ATOM     12  C   UNL     1       3.184   4.886  18.636  0.00  0.00    +0.000 A 
ATOM     13  C   UNL     1       2.046   4.464  17.929  0.00  0.00    +0.000 A 
ATOM     14  C   UNL     1       1.436   3.243  18.222  0.00  0.00    +0.000 A 
ATOM     15  C   UNL     1       1.956   2.425  19.224  0.00  0.00    +0.000 A 
ATOM     16  C   UNL     1       3.081   2.829  19.936  0.00  0.00    +0.000 A 
ATOM     17  C   UNL     1       3.692   4.052  19.648  0.00  0.00    +0.000 A 
ENDBRANCH   1  12
BRANCH   1  18
ATOM     18  N   UNL     1       2.839   7.092  17.646  0.00  0.00    +0.000 N 
ATOM     19  H   UNL     1       2.192   6.496  17.124  0.00  0.00    +0.000 HD
BRANCH  18  20
ATOM     20  C   UNL     1       2.074   7.933  18.488  0.00  0.00    +0.000 A 
ATOM     21  C   UNL     1       1.665   9.183  17.969  0.00  0.00    +0.000 A 
ATOM     22  C   UNL     1       0.993  10.145  18.738  0.00  0.00    +0.000 A 
ATOM     23  C   UNL     1       0.772   9.793  20.060  0.00  0.00    +0.000 A 
ATOM     24  O   UNL     1       0.140  10.538  21.013  0.00  0.00    +0.000 OA
ATOM     25  C   UNL     1       0.175   9.737  22.124  0.00  0.00    +0.000 A 
ATOM     26  C   UNL     1      -0.505  10.259  23.328  0.00  0.00    +0.000 C 
ATOM     27  N   UNL     1       0.787   8.579  21.956  0.00  0.00    +0.000 NA
ATOM     28  C   UNL     1       1.163   8.600  20.635  0.00  0.00    +0.000 A 
ATOM     29  C   UNL     1       1.841   7.652  19.847  0.00  0.00    +0.000 A 
ENDBRANCH  18  20
ENDBRANCH   1  18
TORSDOF 4
ENDMDL
MODEL 8
REMARK VINA RESULT:      -8.9      1.736      7.736
REMARK  Name = 
REMARK  6 active torsions:
REMARK  status: ('A' for Active; 'I' for Inactive)
REMARK    1  A    between atoms: C_1  and  C_2
REMARK    2  A    between atoms: C_6  and  C_8
REMARK    3  A    between atoms: C_8  and  N_9
REMARK    4  A    between atoms: C_8  and  C_20
REMARK    5  A    between atoms: N_9  and  C_10
REMARK    6  A    between atoms: C_15  and  C_16
REMARK                            x       y       z     vdW  Elec       q    Type
REMARK                         _______ _______ _______ _____ _____    ______ ____
ROOT
ATOM      1  C   UNL     1       3.908   6.010  18.979  0.00  0.00    +0.000 C 
ENDROOT
BRANCH   1   7
ATOM      2  C   UNL     1       7.337   4.265  12.576  0.00  0.00    +0.000 C 
ATOM      3  C   UNL     1       6.790   4.731  13.863  0.00  0.00    +0.000 A 
ATOM      4  C   UNL     1       5.553   4.739  14.466  0.00  0.00    +0.000 A 
ATOM      5  C   UNL     1       5.782   5.285  15.760  0.00  0.00    +0.000 A 
ATOM      6  N   UNL     1       4.822   5.450  16.746  0.00  0.00    +0.000 N 
ATOM      7  C   UNL     1       5.129   5.830  18.044  0.00  0.00    +0.000 C 
ATOM      8  O   UNL     1       6.266   5.995  18.490  0.00  0.00    +0.000 OA
ATOM      9  N   UNL     1       7.070   5.622  15.886  0.00  0.00    +0.000 NA
ATOM     10  O   UNL     1       7.694   5.281  14.712  0.00  0.00    +0.000 OA
ATOM     11  H   UNL     1       3.845   5.277  16.535  0.00  0.00    +0.000 HD
ENDBRANCH   1   7
BRANCH   1  12
ATOM     12  C   UNL     1       3.608   4.716  19.739  0.00  0.00    +0.000 A 
ATOM     13  C   UNL     1       2.565   4.677  20.680  0.00  0.00    +0.000 A 
ATOM     14  C   UNL     1       2.260   3.495  21.358  0.00  0.00    +0.000 A 
ATOM     15  C   UNL     1       2.991   2.335  21.104  0.00  0.00    +0.000 A 
ATOM     16  C   UNL     1       4.030   2.358  20.177  0.00  0.00    +0.000 A 
ATOM     17  C   UNL     1       4.339   3.540  19.500  0.00  0.00    +0.000 A 
ENDBRANCH   1  12
BRANCH   1  18
ATOM     18  N   UNL     1       2.661   6.427  18.274  0.00  0.00    +0.000 N 
ATOM     19  H   UNL     1       1.974   5.677  18.382  0.00  0.00    +0.000 HD
BRANCH  18  20
ATOM     20  C   UNL     1       2.050   7.639  18.671  0.00  0.00    +0.000 A 
ATOM     21  C   UNL     1       1.994   8.687  17.723  0.00  0.00    +0.000 A 
ATOM     22  C   UNL     1       1.507   9.967  18.030  0.00  0.00    +0.000 A 
ATOM     23  C   UNL     1       1.098  10.143  19.341  0.00  0.00    +0.000 A 
ATOM     24  O   UNL     1       0.582  11.279  19.895  0.00  0.00    +0.000 OA
ATOM     25  C   UNL     1       0.332  10.921  21.193  0.00  0.00    +0.000 A 
ATOM     26  C   UNL     1      -0.303  11.949  22.044  0.00  0.00    +0.000 C 
ATOM     27  N   UNL     1       0.664   9.681  21.502  0.00  0.00    +0.000 NA
ATOM     28  C   UNL     1       1.145   9.170  20.321  0.00  0.00    +0.000 A 
ATOM     29  C   UNL     1       1.642   7.896  19.994  0.00  0.00    +0.000 A 
ENDBRANCH  18  20
ENDBRANCH   1  18
TORSDOF 4
ENDMDL
MODEL 9
REMARK VINA RESULT:      -8.9      2.400      7.527
REMARK  Name = 
REMARK  6 active torsions:
REMARK  status: ('A' for Active; 'I' for Inactive)
REMARK    1  A    between atoms: C_1  and  C_2
REMARK    2  A    between atoms: C_6  and  C_8
REMARK    3  A    between atoms: C_8  and  N_9
REMARK    4  A    between atoms: C_8  and  C_20
REMARK    5  A    between atoms: N_9  and  C_10
REMARK    6  A    between atoms: C_15  and  C_16
REMARK                            x       y       z     vdW  Elec       q    Type
REMARK                         _______ _______ _______ _____ _____    ______ ____
ROOT
ATOM      1  C   UNL     1       5.987   4.123  16.049  0.00  0.00    +0.000 C 
ENDROOT
BRANCH   1   7
ATOM      2  C   UNL     1       9.074  10.420  18.623  0.00  0.00    +0.000 C 
ATOM      3  C   UNL     1       8.466   9.120  18.286  0.00  0.00    +0.000 A 
ATOM      4  C   UNL     1       7.667   8.636  17.275  0.00  0.00    +0.000 A 
ATOM      5  C   UNL     1       7.530   7.248  17.553  0.00  0.00    +0.000 A 
ATOM      6  N   UNL     1       6.836   6.334  16.774  0.00  0.00    +0.000 N 
ATOM      7  C   UNL     1       6.873   4.967  16.999  0.00  0.00    +0.000 C 
ATOM      8  O   UNL     1       7.561   4.400  17.850  0.00  0.00    +0.000 OA
ATOM      9  N   UNL     1       8.170   6.949  18.688  0.00  0.00    +0.000 NA
ATOM     10  O   UNL     1       8.748   8.107  19.143  0.00  0.00    +0.000 OA
ATOM     11  H   UNL     1       6.281   6.659  15.989  0.00  0.00    +0.000 HD
ENDBRANCH   1   7
BRANCH   1  12
ATOM     12  C   UNL     1       6.490   4.217  14.607  0.00  0.00    +0.000 A 
ATOM     13  C   UNL     1       5.881   3.454  13.597  0.00  0.00    +0.000 A 
ATOM     14  C   UNL     1       6.309   3.553  12.272  0.00  0.00    +0.000 A 
ATOM     15  C   UNL     1       7.351   4.417  11.937  0.00  0.00    +0.000 A 
ATOM     16  C   UNL     1       7.968   5.177  12.927  0.00  0.00    +0.000 A 
ATOM     17  C   UNL     1       7.543   5.078  14.254  0.00  0.00    +0.000 A 
ENDBRANCH   1  12
BRANCH   1  18
ATOM     18  N   UNL     1       4.547   4.514  16.058  0.00  0.00    +0.000 N 
ATOM     19  H   UNL     1       4.005   3.724  15.699  0.00  0.00    +0.000 HD
BRANCH  18  20
ATOM     20  C   UNL     1       3.976   4.908  17.291  0.00  0.00    +0.000 A 
ATOM     21  C   UNL     1       3.736   3.901  18.254  0.00  0.00    +0.000 A 
ATOM     22  C   UNL     1       3.081   4.150  19.470  0.00  0.00    +0.000 A 
ATOM     23  C   UNL     1       2.662   5.457  19.657  0.00  0.00    +0.000 A 
ATOM     24  O   UNL     1       2.013   5.963  20.746  0.00  0.00    +0.000 OA
ATOM     25  C   UNL     1       1.847   7.287  20.436  0.00  0.00    +0.000 A 
ATOM     26  C   UNL     1       1.216   8.127  21.475  0.00  0.00    +0.000 C 
ATOM     27  N   UNL     1       2.310   7.644  19.253  0.00  0.00    +0.000 NA
ATOM     28  C   UNL     1       2.845   6.482  18.750  0.00  0.00    +0.000 A 
ATOM     29  C   UNL     1       3.500   6.210  17.535  0.00  0.00    +0.000 A 
ENDBRANCH  18  20
ENDBRANCH   1  18
TORSDOF 4
ENDMDL
