MODEL 1
REMARK VINA RESULT:      -8.4      0.000      0.000
REMARK  Name = 
REMARK  3 active torsions:
REMARK  status: ('A' for Active; 'I' for Inactive)
REMARK    1  A    between atoms: C_1  and  C_2
REMARK    2  A    between atoms: C_6  and  N_7
REMARK    3  A    between atoms: C_8  and  C_10
REMARK                            x       y       z     vdW  Elec       q    Type
REMARK                         _______ _______ _______ _____ _____    ______ ____
ROOT
ATOM      1  N   UNL     1       2.305   7.603  18.852  0.00  0.00    +0.000 N 
ATOM      2  C   UNL     1       1.811   8.822  18.419  0.00  0.00    +0.000 C 
ATOM      3  O   UNL     1       2.038   9.341  17.333  0.00  0.00    +0.000 OA
ATOM      4  H   UNL     1       2.035   7.308  19.778  0.00  0.00    +0.000 HD
ENDROOT
BRANCH   2   5
ATOM      5  C   UNL     1       0.947   9.490  19.371  0.00  0.00    +0.000 A 
ATOM      6  C   UNL     1       0.164  10.627  19.282  0.00  0.00    +0.000 A 
ATOM      7  C   UNL     1      -0.416  10.877  20.561  0.00  0.00    +0.000 A 
ATOM      8  C   UNL     1      -1.248  11.870  21.109  0.00  0.00    +0.000 A 
ATOM      9 CL   UNL     1      -1.735  13.127  20.058  0.00  0.00    +0.000 Cl
ATOM     10  C   UNL     1      -1.634  11.832  22.447  0.00  0.00    +0.000 A 
ATOM     11  C   UNL     1      -1.197  10.788  23.259  0.00  0.00    +0.000 A 
ATOM     12  C   UNL     1      -0.371   9.776  22.754  0.00  0.00    +0.000 A 
ATOM     13  C   UNL     1       0.009   9.852  21.407  0.00  0.00    +0.000 A 
ATOM     14  N   UNL     1       0.828   9.033  20.667  0.00  0.00    +0.000 N 
ATOM     15  H   UNL     1       1.311   8.214  21.015  0.00  0.00    +0.000 HD
ENDBRANCH   2   5
BRANCH   1  21
ATOM     16  C   UNL     1       7.155   4.572  14.335  0.00  0.00    +0.000 C 
ATOM     17  C   UNL     1       6.147   5.050  15.299  0.00  0.00    +0.000 A 
ATOM     18  N   UNL     1       5.918   6.286  15.694  0.00  0.00    +0.000 NA
ATOM     19  C   UNL     1       4.869   6.155  16.564  0.00  0.00    +0.000 A 
ATOM     20  C   UNL     1       4.163   7.117  17.296  0.00  0.00    +0.000 A 
ATOM     21  C   UNL     1       3.104   6.701  18.117  0.00  0.00    +0.000 A 
ATOM     22  C   UNL     1       2.790   5.332  18.216  0.00  0.00    +0.000 A 
ATOM     23  C   UNL     1       3.484   4.352  17.485  0.00  0.00    +0.000 A 
ATOM     24  C   UNL     1       4.507   4.823  16.674  0.00  0.00    +0.000 A 
ATOM     25  O   UNL     1       5.327   4.101  15.855  0.00  0.00    +0.000 OA
ENDBRANCH   1  21
TORSDOF 2
ENDMDL
MODEL 2
REMARK VINA RESULT:      -8.2      1.316      1.700
REMARK  Name = 
REMARK  3 active torsions:
REMARK  status: ('A' for Active; 'I' for Inactive)
REMARK    1  A    between atoms: C_1  and  C_2
REMARK    2  A    between atoms: C_6  and  N_7
REMARK    3  A    between atoms: C_8  and  C_10
REMARK                            x       y       z     vdW  Elec       q    Type
REMARK                         _______ _______ _______ _____ _____    ______ ____
ROOT
ATOM      1  N   UNL     1       2.468   7.598  18.868  0.00  0.00    +0.000 N 
ATOM      2  C   UNL     1       1.855   8.758  18.427  0.00  0.00    +0.000 C 
ATOM      3  O   UNL     1       1.899   9.203  17.286  0.00  0.00    +0.000 OA
ATOM      4  H   UNL     1       2.346   7.363  19.841  0.00  0.00    +0.000 HD
ENDROOT
BRANCH   2   5
ATOM      5  C   UNL     1       1.101   9.461  19.446  0.00  0.00    +0.000 A 
ATOM      6  C   UNL     1       0.959   9.260  20.807  0.00  0.00    +0.000 A 
ATOM      7  C   UNL     1       0.020  10.207  21.309  0.00  0.00    +0.000 A 
ATOM      8  C   UNL     1      -0.560  10.480  22.561  0.00  0.00    +0.000 A 
ATOM      9 CL   UNL     1      -0.080   9.481  23.862  0.00  0.00    +0.000 Cl
ATOM     10  C   UNL     1      -1.493  11.504  22.718  0.00  0.00    +0.000 A 
ATOM     11  C   UNL     1      -1.854  12.280  21.620  0.00  0.00    +0.000 A 
ATOM     12  C   UNL     1      -1.298  12.045  20.355  0.00  0.00    +0.000 A 
ATOM     13  C   UNL     1      -0.373  11.000  20.229  0.00  0.00    +0.000 A 
ATOM     14  N   UNL     1       0.290  10.530  19.122  0.00  0.00    +0.000 N 
ATOM     15  H   UNL     1       0.190  10.887  18.179  0.00  0.00    +0.000 HD
ENDBRANCH   2   5
BRANCH   1  21
ATOM     16  C   UNL     1       7.026   4.445  14.135  0.00  0.00    +0.000 C 
ATOM     17  C   UNL     1       6.072   4.948  15.141  0.00  0.00    +0.000 A 
ATOM     18  N   UNL     1       5.913   6.184  15.567  0.00  0.00    +0.000 NA
ATOM     19  C   UNL     1       4.888   6.083  16.469  0.00  0.00    +0.000 A 
ATOM     20  C   UNL     1       4.251   7.061  17.242  0.00  0.00    +0.000 A 
ATOM     21  C   UNL     1       3.200   6.675  18.089  0.00  0.00    +0.000 A 
ATOM     22  C   UNL     1       2.826   5.321  18.171  0.00  0.00    +0.000 A 
ATOM     23  C   UNL     1       3.450   4.326  17.398  0.00  0.00    +0.000 A 
ATOM     24  C   UNL     1       4.468   4.767  16.564  0.00  0.00    +0.000 A 
ATOM     25  O   UNL     1       5.227   4.026  15.704  0.00  0.00    +0.000 OA
ENDBRANCH   1  21
TORSDOF 2
ENDMDL
MODEL 3
REMARK VINA RESULT:      -7.9      7.781     10.226
REMARK  Name = 
REMARK  3 active torsions:
REMARK  status: ('A' for Active; 'I' for Inactive)
REMARK    1  A    between atoms: C_1  and  C_2
REMARK    2  A    between atoms: C_6  and  N_7
REMARK    3  A    between atoms: C_8  and  C_10
REMARK                            x       y       z     vdW  Elec       q    Type
REMARK                         _______ _______ _______ _____ _____    ______ ____
ROOT
ATOM      1  N   UNL     1       9.551  10.792  17.698  0.00  0.00    +0.000 N 
ATOM      2  C   UNL     1       9.082  10.038  18.760  0.00  0.00    +0.000 C 
ATOM      3  O   UNL     1       9.199  10.322  19.946  0.00  0.00    +0.000 OA
ATOM      4  H   UNL     1       9.384  10.424  16.773  0.00  0.00    +0.000 HD
ENDROOT
BRANCH   2   5
ATOM      5  C   UNL     1       8.393   8.824  18.374  0.00  0.00    +0.000 A 
ATOM      6  C   UNL     1       7.407   8.567  17.438  0.00  0.00    +0.000 A 
ATOM      7  C   UNL     1       7.032   7.195  17.540  0.00  0.00    +0.000 A 
ATOM      8  C   UNL     1       6.089   6.363  16.912  0.00  0.00    +0.000 A 
ATOM      9 CL   UNL     1       5.103   7.087  15.717  0.00  0.00    +0.000 Cl
ATOM     10  C   UNL     1       5.958   5.022  17.266  0.00  0.00    +0.000 A 
ATOM     11  C   UNL     1       6.782   4.488  18.254  0.00  0.00    +0.000 A 
ATOM     12  C   UNL     1       7.738   5.280  18.903  0.00  0.00    +0.000 A 
ATOM     13  C   UNL     1       7.834   6.628  18.532  0.00  0.00    +0.000 A 
ATOM     14  N   UNL     1       8.641   7.628  19.018  0.00  0.00    +0.000 N 
ATOM     15  H   UNL     1       9.315   7.529  19.767  0.00  0.00    +0.000 HD
ENDBRANCH   2   5
BRANCH   1  21
ATOM     16  C   UNL     1      11.076  17.918  17.627  0.00  0.00    +0.000 C 
ATOM     17  C   UNL     1      10.905  16.454  17.688  0.00  0.00    +0.000 A 
ATOM     18  N   UNL     1       9.785  15.762  17.642  0.00  0.00    +0.000 NA
ATOM     19  C   UNL     1      10.210  14.462  17.712  0.00  0.00    +0.000 A 
ATOM     20  C   UNL     1       9.488  13.263  17.689  0.00  0.00    +0.000 A 
ATOM     21  C   UNL     1      10.189  12.049  17.764  0.00  0.00    +0.000 A 
ATOM     22  C   UNL     1      11.591  12.057  17.891  0.00  0.00    +0.000 A 
ATOM     23  C   UNL     1      12.333  13.250  17.911  0.00  0.00    +0.000 A 
ATOM     24  C   UNL     1      11.589  14.419  17.812  0.00  0.00    +0.000 A 
ATOM     25  O   UNL     1      12.048  15.704  17.794  0.00  0.00    +0.000 OA
ENDBRANCH   1  21
TORSDOF 2
ENDMDL
MODEL 4
REMARK VINA RESULT:      -7.8      3.167      8.788
REMARK  Name = 
REMARK  3 active torsions:
REMARK  status: ('A' for Active; 'I' for Inactive)
REMARK    1  A    between atoms: C_1  and  C_2
REMARK    2  A    between atoms: C_6  and  N_7
REMARK    3  A    between atoms: C_8  and  C_10
REMARK                            x       y       z     vdW  Elec       q    Type
REMARK                         _______ _______ _______ _____ _____    ______ ____
ROOT
ATOM      1  N   UNL     1       1.521   8.226  19.994  0.00  0.00    +0.000 N 
ATOM      2  C   UNL     1       1.842   8.389  18.657  0.00  0.00    +0.000 C 
ATOM      3  O   UNL     1       1.517   9.339  17.954  0.00  0.00    +0.000 OA
ATOM      4  H   UNL     1       1.856   7.385  20.440  0.00  0.00    +0.000 HD
ENDROOT
BRANCH   2   5
ATOM      5  C   UNL     1       2.641   7.318  18.098  0.00  0.00    +0.000 A 
ATOM      6  C   UNL     1       2.507   5.942  18.124  0.00  0.00    +0.000 A 
ATOM      7  C   UNL     1       3.638   5.364  17.477  0.00  0.00    +0.000 A 
ATOM      8  C   UNL     1       4.091   4.057  17.224  0.00  0.00    +0.000 A 
ATOM      9 CL   UNL     1       3.108   2.781  17.796  0.00  0.00    +0.000 Cl
ATOM     10  C   UNL     1       5.293   3.824  16.558  0.00  0.00    +0.000 A 
ATOM     11  C   UNL     1       6.058   4.904  16.123  0.00  0.00    +0.000 A 
ATOM     12  C   UNL     1       5.643   6.222  16.350  0.00  0.00    +0.000 A 
ATOM     13  C   UNL     1       4.436   6.420  17.035  0.00  0.00    +0.000 A 
ATOM     14  N   UNL     1       3.815   7.584  17.422  0.00  0.00    +0.000 N 
ATOM     15  H   UNL     1       4.169   8.520  17.267  0.00  0.00    +0.000 HD
ENDBRANCH   2   5
BRANCH   1  21
ATOM     16  C   UNL     1      -1.173  14.215  23.153  0.00  0.00    +0.000 C 
ATOM     17  C   UNL     1      -0.719  12.926  22.599  0.00  0.00    +0.000 A 
ATOM     18  N   UNL     1      -0.003  12.712  21.514  0.00  0.00    +0.000 NA
ATOM     19  C   UNL     1       0.144  11.351  21.491  0.00  0.00    +0.000 A 
ATOM     20  C   UNL     1       0.823  10.520  20.592  0.00  0.00    +0.000 A 
ATOM     21  C   UNL     1       0.823   9.135  20.818  0.00  0.00    +0.000 A 
ATOM     22  C   UNL     1       0.122   8.604  21.917  0.00  0.00    +0.000 A 
ATOM     23  C   UNL     1      -0.560   9.422  22.834  0.00  0.00    +0.000 A 
ATOM     24  C   UNL     1      -0.510  10.785  22.572  0.00  0.00    +0.000 A 
ATOM     25  O   UNL     1      -1.068  11.798  23.297  0.00  0.00    +0.000 OA
ENDBRANCH   1  21
TORSDOF 2
ENDMDL
MODEL 5
REMARK VINA RESULT:      -7.7      3.300      8.923
REMARK  Name = 
REMARK  3 active torsions:
REMARK  status: ('A' for Active; 'I' for Inactive)
REMARK    1  A    between atoms: C_1  and  C_2
REMARK    2  A    between atoms: C_6  and  N_7
REMARK    3  A    between atoms: C_8  and  C_10
REMARK                            x       y       z     vdW  Elec       q    Type
REMARK                         _______ _______ _______ _____ _____    ______ ____
ROOT
ATOM      1  N   UNL     1       1.455   8.933  18.939  0.00  0.00    +0.000 N 
ATOM      2  C   UNL     1       1.904   7.762  19.526  0.00  0.00    +0.000 C 
ATOM      3  O   UNL     1       1.694   7.414  20.681  0.00  0.00    +0.000 OA
ATOM      4  H   UNL     1       1.715   9.086  17.976  0.00  0.00    +0.000 HD
ENDROOT
BRANCH   2   5
ATOM      5  C   UNL     1       2.678   6.910  18.646  0.00  0.00    +0.000 A 
ATOM      6  C   UNL     1       2.788   5.535  18.538  0.00  0.00    +0.000 A 
ATOM      7  C   UNL     1       3.768   5.237  17.546  0.00  0.00    +0.000 A 
ATOM      8  C   UNL     1       4.342   4.064  17.022  0.00  0.00    +0.000 A 
ATOM      9 CL   UNL     1       3.791   2.583  17.675  0.00  0.00    +0.000 Cl
ATOM     10  C   UNL     1       5.325   4.118  16.035  0.00  0.00    +0.000 A 
ATOM     11  C   UNL     1       5.742   5.355  15.548  0.00  0.00    +0.000 A 
ATOM     12  C   UNL     1       5.194   6.547  16.038  0.00  0.00    +0.000 A 
ATOM     13  C   UNL     1       4.218   6.457  17.040  0.00  0.00    +0.000 A 
ATOM     14  N   UNL     1       3.548   7.446  17.719  0.00  0.00    +0.000 N 
ATOM     15  H   UNL     1       3.681   8.442  17.591  0.00  0.00    +0.000 HD
ENDBRANCH   2   5
BRANCH   1  21
ATOM     16  C   UNL     1      -1.765  13.607  23.510  0.00  0.00    +0.000 C 
ATOM     17  C   UNL     1      -1.197  12.719  22.479  0.00  0.00    +0.000 A 
ATOM     18  N   UNL     1      -0.113  11.974  22.552  0.00  0.00    +0.000 NA
ATOM     19  C   UNL     1      -0.074  11.345  21.336  0.00  0.00    +0.000 A 
ATOM     20  C   UNL     1       0.832  10.412  20.818  0.00  0.00    +0.000 A 
ATOM     21  C   UNL     1       0.623   9.912  19.523  0.00  0.00    +0.000 A 
ATOM     22  C   UNL     1      -0.466  10.374  18.761  0.00  0.00    +0.000 A 
ATOM     23  C   UNL     1      -1.389  11.306  19.266  0.00  0.00    +0.000 A 
ATOM     24  C   UNL     1      -1.145  11.751  20.558  0.00  0.00    +0.000 A 
ATOM     25  O   UNL     1      -1.879  12.637  21.292  0.00  0.00    +0.000 OA
ENDBRANCH   1  21
TORSDOF 2
ENDMDL
MODEL 6
REMARK VINA RESULT:      -7.7      1.403      1.542
REMARK  Name = 
REMARK  3 active torsions:
REMARK  status: ('A' for Active; 'I' for Inactive)
REMARK    1  A    between atoms: C_1  and  C_2
REMARK    2  A    between atoms: C_6  and  N_7
REMARK    3  A    between atoms: C_8  and  C_10
REMARK                            x       y       z     vdW  Elec       q    Type
REMARK                         _______ _______ _______ _____ _____    ______ ____
ROOT
ATOM      1  N   UNL     1       2.675   7.002  18.387  0.00  0.00    +0.000 N 
ATOM      2  C   UNL     1       2.386   6.869  19.735  0.00  0.00    +0.000 C 
ATOM      3  O   UNL     1       2.762   5.957  20.461  0.00  0.00    +0.000 OA
ATOM      4  H   UNL     1       2.287   7.806  17.918  0.00  0.00    +0.000 HD
ENDROOT
BRANCH   2   5
ATOM      5  C   UNL     1       1.572   7.936  20.281  0.00  0.00    +0.000 A 
ATOM      6  C   UNL     1       1.120   9.130  19.749  0.00  0.00    +0.000 A 
ATOM      7  C   UNL     1       0.421   9.843  20.767  0.00  0.00    +0.000 A 
ATOM      8  C   UNL     1      -0.216  11.093  20.860  0.00  0.00    +0.000 A 
ATOM      9 CL   UNL     1      -0.200  12.068  19.456  0.00  0.00    +0.000 Cl
ATOM     10  C   UNL     1      -0.811  11.515  22.048  0.00  0.00    +0.000 A 
ATOM     11  C   UNL     1      -0.785  10.681  23.164  0.00  0.00    +0.000 A 
ATOM     12  C   UNL     1      -0.164   9.426  23.114  0.00  0.00    +0.000 A 
ATOM     13  C   UNL     1       0.436   9.039  21.908  0.00  0.00    +0.000 A 
ATOM     14  N   UNL     1       1.135   7.900  21.589  0.00  0.00    +0.000 N 
ATOM     15  H   UNL     1       1.338   7.137  22.223  0.00  0.00    +0.000 HD
ENDBRANCH   2   5
BRANCH   1  21
ATOM     16  C   UNL     1       7.459   4.347  13.572  0.00  0.00    +0.000 C 
ATOM     17  C   UNL     1       6.480   4.748  14.601  0.00  0.00    +0.000 A 
ATOM     18  N   UNL     1       6.166   5.965  14.996  0.00  0.00    +0.000 NA
ATOM     19  C   UNL     1       5.197   5.754  15.940  0.00  0.00    +0.000 A 
ATOM     20  C   UNL     1       4.457   6.660  16.709  0.00  0.00    +0.000 A 
ATOM     21  C   UNL     1       3.501   6.163  17.608  0.00  0.00    +0.000 A 
ATOM     22  C   UNL     1       3.323   4.774  17.744  0.00  0.00    +0.000 A 
ATOM     23  C   UNL     1       4.051   3.848  16.977  0.00  0.00    +0.000 A 
ATOM     24  C   UNL     1       4.968   4.397  16.090  0.00  0.00    +0.000 A 
ATOM     25  O   UNL     1       5.792   3.739  15.223  0.00  0.00    +0.000 OA
ENDBRANCH   1  21
TORSDOF 2
ENDMDL
MODEL 7
REMARK VINA RESULT:      -7.7      1.269      1.305
REMARK  Name = 
REMARK  3 active torsions:
REMARK  status: ('A' for Active; 'I' for Inactive)
REMARK    1  A    between atoms: C_1  and  C_2
REMARK    2  A    between atoms: C_6  and  N_7
REMARK    3  A    between atoms: C_8  and  C_10
REMARK                            x       y       z     vdW  Elec       q    Type
REMARK                         _______ _______ _______ _____ _____    ______ ____
ROOT
ATOM      1  N   UNL     1       2.163   7.805  18.852  0.00  0.00    +0.000 N 
ATOM      2  C   UNL     1       1.675   7.703  20.144  0.00  0.00    +0.000 C 
ATOM      3  O   UNL     1       1.806   6.735  20.884  0.00  0.00    +0.000 OA
ATOM      4  H   UNL     1       1.970   8.666  18.362  0.00  0.00    +0.000 HD
ENDROOT
BRANCH   2   5
ATOM      5  C   UNL     1       0.966   8.877  20.611  0.00  0.00    +0.000 A 
ATOM      6  C   UNL     1       0.883  10.170  20.128  0.00  0.00    +0.000 A 
ATOM      7  C   UNL     1       0.104  10.944  21.038  0.00  0.00    +0.000 A 
ATOM      8  C   UNL     1      -0.295  12.290  21.126  0.00  0.00    +0.000 A 
ATOM      9 CL   UNL     1       0.238  13.330  19.879  0.00  0.00    +0.000 Cl
ATOM     10  C   UNL     1      -1.069  12.746  22.191  0.00  0.00    +0.000 A 
ATOM     11  C   UNL     1      -1.466  11.854  23.185  0.00  0.00    +0.000 A 
ATOM     12  C   UNL     1      -1.094  10.504  23.135  0.00  0.00    +0.000 A 
ATOM     13  C   UNL     1      -0.304  10.082  22.057  0.00  0.00    +0.000 A 
ATOM     14  N   UNL     1       0.228   8.846  21.777  0.00  0.00    +0.000 N 
ATOM     15  H   UNL     1       0.128   8.018  22.350  0.00  0.00    +0.000 HD
ENDBRANCH   2   5
BRANCH   1  21
ATOM     16  C   UNL     1       7.108   4.498  14.642  0.00  0.00    +0.000 C 
ATOM     17  C   UNL     1       6.069   5.034  15.541  0.00  0.00    +0.000 A 
ATOM     18  N   UNL     1       5.893   6.279  15.933  0.00  0.00    +0.000 NA
ATOM     19  C   UNL     1       4.780   6.210  16.729  0.00  0.00    +0.000 A 
ATOM     20  C   UNL     1       4.089   7.211  17.421  0.00  0.00    +0.000 A 
ATOM     21  C   UNL     1       2.951   6.858  18.164  0.00  0.00    +0.000 A 
ATOM     22  C   UNL     1       2.544   5.512  18.225  0.00  0.00    +0.000 A 
ATOM     23  C   UNL     1       3.222   4.494  17.532  0.00  0.00    +0.000 A 
ATOM     24  C   UNL     1       4.328   4.904  16.798  0.00  0.00    +0.000 A 
ATOM     25  O   UNL     1       5.154   4.136  16.029  0.00  0.00    +0.000 OA
ENDBRANCH   1  21
TORSDOF 2
ENDMDL
MODEL 8
REMARK VINA RESULT:      -7.6      3.198      8.725
REMARK  Name = 
REMARK  3 active torsions:
REMARK  status: ('A' for Active; 'I' for Inactive)
REMARK    1  A    between atoms: C_1  and  C_2
REMARK    2  A    between atoms: C_6  and  N_7
REMARK    3  A    between atoms: C_8  and  C_10
REMARK                            x       y       z     vdW  Elec       q    Type
REMARK                         _______ _______ _______ _____ _____    ______ ____
ROOT
ATOM      1  N   UNL     1       1.338   8.444  20.324  0.00  0.00    +0.000 N 
ATOM      2  C   UNL     1       1.804   8.555  19.025  0.00  0.00    +0.000 C 
ATOM      3  O   UNL     1       1.649   9.522  18.290  0.00  0.00    +0.000 OA
ATOM      4  H   UNL     1       1.539   7.580  20.805  0.00  0.00    +0.000 HD
ENDROOT
BRANCH   2   5
ATOM      5  C   UNL     1       2.541   7.401  18.553  0.00  0.00    +0.000 A 
ATOM      6  C   UNL     1       3.515   7.248  17.583  0.00  0.00    +0.000 A 
ATOM      7  C   UNL     1       3.832   5.862  17.473  0.00  0.00    +0.000 A 
ATOM      8  C   UNL     1       4.686   5.088  16.668  0.00  0.00    +0.000 A 
ATOM      9 CL   UNL     1       5.612   5.930  15.503  0.00  0.00    +0.000 Cl
ATOM     10  C   UNL     1       4.752   3.703  16.806  0.00  0.00    +0.000 A 
ATOM     11  C   UNL     1       3.966   3.070  17.767  0.00  0.00    +0.000 A 
ATOM     12  C   UNL     1       3.105   3.803  18.593  0.00  0.00    +0.000 A 
ATOM     13  C   UNL     1       3.053   5.193  18.418  0.00  0.00    +0.000 A 
ATOM     14  N   UNL     1       2.285   6.140  19.052  0.00  0.00    +0.000 N 
ATOM     15  H   UNL     1       1.598   5.955  19.772  0.00  0.00    +0.000 HD
ENDBRANCH   2   5
BRANCH   1  21
ATOM     16  C   UNL     1      -1.190  14.726  23.020  0.00  0.00    +0.000 C 
ATOM     17  C   UNL     1      -0.774  13.387  22.562  0.00  0.00    +0.000 A 
ATOM     18  N   UNL     1      -0.047  13.074  21.509  0.00  0.00    +0.000 NA
ATOM     19  C   UNL     1       0.050  11.710  21.581  0.00  0.00    +0.000 A 
ATOM     20  C   UNL     1       0.714  10.797  20.753  0.00  0.00    +0.000 A 
ATOM     21  C   UNL     1       0.659   9.431  21.071  0.00  0.00    +0.000 A 
ATOM     22  C   UNL     1      -0.081   9.001  22.189  0.00  0.00    +0.000 A 
ATOM     23  C   UNL     1      -0.749   9.903  23.034  0.00  0.00    +0.000 A 
ATOM     24  C   UNL     1      -0.643  11.243  22.683  0.00  0.00    +0.000 A 
ATOM     25  O   UNL     1      -1.177  12.322  23.327  0.00  0.00    +0.000 OA
ENDBRANCH   1  21
TORSDOF 2
ENDMDL
MODEL 9
REMARK VINA RESULT:      -7.6      4.097      8.193
REMARK  Name = 
REMARK  3 active torsions:
REMARK  status: ('A' for Active; 'I' for Inactive)
REMARK    1  A    between atoms: C_1  and  C_2
REMARK    2  A    between atoms: C_6  and  N_7
REMARK    3  A    between atoms: C_8  and  C_10
REMARK                            x       y       z     vdW  Elec       q    Type
REMARK                         _______ _______ _______ _____ _____    ______ ____
ROOT
ATOM      1  N   UNL     1       1.320   8.928  19.269  0.00  0.00    +0.000 N 
ATOM      2  C   UNL     1       1.464   8.244  20.464  0.00  0.00    +0.000 C 
ATOM      3  O   UNL     1       1.191   8.679  21.576  0.00  0.00    +0.000 OA
ATOM      4  H   UNL     1       1.594   8.438  18.431  0.00  0.00    +0.000 HD
ENDROOT
BRANCH   2   5
ATOM      5  C   UNL     1       1.976   6.896  20.324  0.00  0.00    +0.000 A 
ATOM      6  C   UNL     1       1.555   5.680  20.832  0.00  0.00    +0.000 A 
ATOM      7  C   UNL     1       2.489   4.677  20.439  0.00  0.00    +0.000 A 
ATOM      8  C   UNL     1       2.636   3.297  20.666  0.00  0.00    +0.000 A 
ATOM      9 CL   UNL     1       1.447   2.550  21.642  0.00  0.00    +0.000 Cl
ATOM     10  C   UNL     1       3.711   2.587  20.134  0.00  0.00    +0.000 A 
ATOM     11  C   UNL     1       4.655   3.251  19.354  0.00  0.00    +0.000 A 
ATOM     12  C   UNL     1       4.546   4.624  19.099  0.00  0.00    +0.000 A 
ATOM     13  C   UNL     1       3.460   5.310  19.661  0.00  0.00    +0.000 A 
ATOM     14  N   UNL     1       3.129   6.643  19.608  0.00  0.00    +0.000 N 
ATOM     15  H   UNL     1       3.661   7.364  19.137  0.00  0.00    +0.000 HD
ENDBRANCH   2   5
BRANCH   1  21
ATOM     16  C   UNL     1       0.336  16.129  18.725  0.00  0.00    +0.000 C 
ATOM     17  C   UNL     1       0.397  14.656  18.788  0.00  0.00    +0.000 A 
ATOM     18  N   UNL     1       1.460  13.889  18.910  0.00  0.00    +0.000 NA
ATOM     19  C   UNL     1       0.940  12.623  18.941  0.00  0.00    +0.000 A 
ATOM     20  C   UNL     1       1.569  11.380  19.074  0.00  0.00    +0.000 A 
ATOM     21  C   UNL     1       0.779  10.219  19.089  0.00  0.00    +0.000 A 
ATOM     22  C   UNL     1      -0.617  10.320  18.940  0.00  0.00    +0.000 A 
ATOM     23  C   UNL     1      -1.267  11.560  18.810  0.00  0.00    +0.000 A 
ATOM     24  C   UNL     1      -0.438  12.674  18.823  0.00  0.00    +0.000 A 
ATOM     25  O   UNL     1      -0.799  13.987  18.728  0.00  0.00    +0.000 OA
ENDBRANCH   1  21
TORSDOF 2
ENDMDL
