MODEL 1
REMARK VINA RESULT:      -8.8      0.000      0.000
REMARK  Name = 
REMARK  5 active torsions:
REMARK  status: ('A' for Active; 'I' for Inactive)
REMARK    1  A    between atoms: N_3  and  C_4
REMARK    2  A    between atoms: C_4  and  C_5
REMARK    3  A    between atoms: N_11  and  C_12
REMARK    4  A    between atoms: C_16  and  C_17
REMARK    5  A    between atoms: C_17  and  N_18
REMARK                            x       y       z     vdW  Elec       q    Type
REMARK                         _______ _______ _______ _____ _____    ______ ____
ROOT
ATOM      1  C   UNL     1       4.543   6.447  18.328  0.00  0.00    +0.000 A 
ATOM      2  C   UNL     1       3.881   7.445  17.603  0.00  0.00    +0.000 A 
ATOM      3  C   UNL     1       2.580   7.837  17.942  0.00  0.00    +0.000 A 
ATOM      4  C   UNL     1       1.889   7.198  18.963  0.00  0.00    +0.000 A 
ATOM      5  C   UNL     1       2.499   6.163  19.658  0.00  0.00    +0.000 A 
ATOM      6  C   UNL     1       3.820   5.795  19.345  0.00  0.00    +0.000 A 
ENDROOT
BRANCH   1  10
ATOM      7  O   UNL     1       7.613   4.770  17.470  0.00  0.00    +0.000 OA
ATOM      8  C   UNL     1       6.442   5.089  17.288  0.00  0.00    +0.000 C 
ATOM      9  N   UNL     1       5.688   4.571  16.290  0.00  0.00    +0.000 N 
ATOM     10  N   UNL     1       5.866   6.017  18.109  0.00  0.00    +0.000 N 
ATOM     11  H   UNL     1       4.979   5.175  15.907  0.00  0.00    +0.000 HD
ATOM     12  H   UNL     1       6.573   6.416  18.718  0.00  0.00    +0.000 HD
BRANCH   9  13
ATOM     13  C   UNL     1       6.143   3.512  15.419  0.00  0.00    +0.000 C 
BRANCH  13  14
ATOM     14  C   UNL     1       6.655   4.049  14.099  0.00  0.00    +0.000 A 
ATOM     15  C   UNL     1       6.231   3.486  12.899  0.00  0.00    +0.000 A 
ATOM     16  C   UNL     1       6.729   3.991  11.703  0.00  0.00    +0.000 A 
ATOM     17  C   UNL     1       7.628   5.052  11.731  0.00  0.00    +0.000 A 
ATOM     18  C   UNL     1       7.987   5.569  12.967  0.00  0.00    +0.000 A 
ATOM     19  N   UNL     1       7.522   5.097  14.145  0.00  0.00    +0.000 NA
ENDBRANCH  13  14
ENDBRANCH   9  13
ENDBRANCH   1  10
BRANCH   5  20
ATOM     20  C   UNL     1       1.769   5.505  20.799  0.00  0.00    +0.000 C 
BRANCH  20  21
ATOM     21  N   UNL     1       1.056   4.248  20.533  0.00  0.00    +0.000 N 
ATOM     22  N   UNL     1       0.975   3.867  19.171  0.00  0.00    +0.000 NA
ATOM     23  C   UNL     1       1.818   2.896  19.056  0.00  0.00    +0.000 A 
ATOM     24  C   UNL     1       2.308   2.257  17.823  0.00  0.00    +0.000 A 
ATOM     25  C   UNL     1       3.616   1.939  17.838  0.00  0.00    +0.000 A 
ATOM     26  C   UNL     1       4.416   2.138  19.035  0.00  0.00    +0.000 A 
ATOM     27  C   UNL     1       3.793   2.308  20.215  0.00  0.00    +0.000 A 
ATOM     28  N   UNL     1       2.431   2.530  20.213  0.00  0.00    +0.000 N 
ATOM     29  C   UNL     1       1.794   3.221  21.217  0.00  0.00    +0.000 A 
ATOM     30  O   UNL     1       2.034   3.182  22.418  0.00  0.00    +0.000 OA
ENDBRANCH  20  21
ENDBRANCH   5  20
TORSDOF 5
ENDMDL
MODEL 2
REMARK VINA RESULT:      -8.7      0.867      1.208
REMARK  Name = 
REMARK  5 active torsions:
REMARK  status: ('A' for Active; 'I' for Inactive)
REMARK    1  A    between atoms: N_3  and  C_4
REMARK    2  A    between atoms: C_4  and  C_5
REMARK    3  A    between atoms: N_11  and  C_12
REMARK    4  A    between atoms: C_16  and  C_17
REMARK    5  A    between atoms: C_17  and  N_18
REMARK                            x       y       z     vdW  Elec       q    Type
REMARK                         _______ _______ _______ _____ _____    ______ ____
ROOT
ATOM      1  C   UNL     1       5.068   5.927  18.321  0.00  0.00    +0.000 A 
ATOM      2  C   UNL     1       4.588   6.926  17.467  0.00  0.00    +0.000 A 
ATOM      3  C   UNL     1       3.337   7.516  17.682  0.00  0.00    +0.000 A 
ATOM      4  C   UNL     1       2.511   7.075  18.709  0.00  0.00    +0.000 A 
ATOM      5  C   UNL     1       2.936   6.042  19.532  0.00  0.00    +0.000 A 
ATOM      6  C   UNL     1       4.210   5.477  19.342  0.00  0.00    +0.000 A 
ENDROOT
BRANCH   1  10
ATOM      7  O   UNL     1       8.132   4.277  17.387  0.00  0.00    +0.000 OA
ATOM      8  C   UNL     1       7.182   5.033  17.197  0.00  0.00    +0.000 C 
ATOM      9  N   UNL     1       6.946   5.626  16.003  0.00  0.00    +0.000 N 
ATOM     10  N   UNL     1       6.331   5.309  18.229  0.00  0.00    +0.000 N 
ATOM     11  H   UNL     1       6.510   6.534  16.035  0.00  0.00    +0.000 HD
ATOM     12  H   UNL     1       6.697   4.911  19.087  0.00  0.00    +0.000 HD
BRANCH   9  13
ATOM     13  C   UNL     1       7.709   5.342  14.810  0.00  0.00    +0.000 C 
BRANCH  13  14
ATOM     14  C   UNL     1       6.894   4.581  13.787  0.00  0.00    +0.000 A 
ATOM     15  C   UNL     1       5.591   4.185  14.079  0.00  0.00    +0.000 A 
ATOM     16  C   UNL     1       4.872   3.476  13.124  0.00  0.00    +0.000 A 
ATOM     17  C   UNL     1       5.462   3.187  11.898  0.00  0.00    +0.000 A 
ATOM     18  C   UNL     1       6.757   3.632  11.678  0.00  0.00    +0.000 A 
ATOM     19  N   UNL     1       7.482   4.321  12.587  0.00  0.00    +0.000 NA
ENDBRANCH  13  14
ENDBRANCH   9  13
ENDBRANCH   1  10
BRANCH   5  20
ATOM     20  C   UNL     1       2.063   5.600  20.677  0.00  0.00    +0.000 C 
BRANCH  20  21
ATOM     21  N   UNL     1       1.221   4.411  20.487  0.00  0.00    +0.000 N 
ATOM     22  N   UNL     1       1.089   3.962  19.149  0.00  0.00    +0.000 NA
ATOM     23  C   UNL     1       1.827   2.903  19.090  0.00  0.00    +0.000 A 
ATOM     24  C   UNL     1       2.237   2.145  17.896  0.00  0.00    +0.000 A 
ATOM     25  C   UNL     1       3.505   1.694  17.927  0.00  0.00    +0.000 A 
ATOM     26  C   UNL     1       4.330   1.877  19.109  0.00  0.00    +0.000 A 
ATOM     27  C   UNL     1       3.739   2.180  20.278  0.00  0.00    +0.000 A 
ATOM     28  N   UNL     1       2.407   2.543  20.265  0.00  0.00    +0.000 N 
ATOM     29  C   UNL     1       1.853   3.354  21.229  0.00  0.00    +0.000 A 
ATOM     30  O   UNL     1       2.097   3.360  22.429  0.00  0.00    +0.000 OA
ENDBRANCH  20  21
ENDBRANCH   5  20
TORSDOF 5
ENDMDL
MODEL 3
REMARK VINA RESULT:      -8.1      2.631      4.758
REMARK  Name = 
REMARK  5 active torsions:
REMARK  status: ('A' for Active; 'I' for Inactive)
REMARK    1  A    between atoms: N_3  and  C_4
REMARK    2  A    between atoms: C_4  and  C_5
REMARK    3  A    between atoms: N_11  and  C_12
REMARK    4  A    between atoms: C_16  and  C_17
REMARK    5  A    between atoms: C_17  and  N_18
REMARK                            x       y       z     vdW  Elec       q    Type
REMARK                         _______ _______ _______ _____ _____    ______ ____
ROOT
ATOM      1  C   UNL     1       3.943   3.934  19.634  0.00  0.00    +0.000 A 
ATOM      2  C   UNL     1       3.118   2.813  19.485  0.00  0.00    +0.000 A 
ATOM      3  C   UNL     1       1.733   2.911  19.662  0.00  0.00    +0.000 A 
ATOM      4  C   UNL     1       1.151   4.109  20.058  0.00  0.00    +0.000 A 
ATOM      5  C   UNL     1       1.953   5.221  20.273  0.00  0.00    +0.000 A 
ATOM      6  C   UNL     1       3.339   5.134  20.056  0.00  0.00    +0.000 A 
ENDROOT
BRANCH   1  10
ATOM      7  O   UNL     1       7.329   4.245  18.443  0.00  0.00    +0.000 OA
ATOM      8  C   UNL     1       6.152   4.585  18.526  0.00  0.00    +0.000 C 
ATOM      9  N   UNL     1       5.621   5.575  17.769  0.00  0.00    +0.000 N 
ATOM     10  N   UNL     1       5.336   3.959  19.425  0.00  0.00    +0.000 N 
ATOM     11  H   UNL     1       4.874   6.106  18.189  0.00  0.00    +0.000 HD
ATOM     12  H   UNL     1       5.887   3.342  20.010  0.00  0.00    +0.000 HD
BRANCH   9  13
ATOM     13  C   UNL     1       6.347   6.246  16.716  0.00  0.00    +0.000 C 
BRANCH  13  14
ATOM     14  C   UNL     1       6.370   5.431  15.440  0.00  0.00    +0.000 A 
ATOM     15  C   UNL     1       5.279   4.640  15.091  0.00  0.00    +0.000 A 
ATOM     16  C   UNL     1       5.335   3.893  13.920  0.00  0.00    +0.000 A 
ATOM     17  C   UNL     1       6.470   3.959  13.119  0.00  0.00    +0.000 A 
ATOM     18  C   UNL     1       7.507   4.786  13.528  0.00  0.00    +0.000 A 
ATOM     19  N   UNL     1       7.483   5.521  14.661  0.00  0.00    +0.000 NA
ENDBRANCH  13  14
ENDBRANCH   9  13
ENDBRANCH   1  10
BRANCH   5  20
ATOM     20  C   UNL     1       1.315   6.532  20.651  0.00  0.00    +0.000 C 
BRANCH  20  21
ATOM     21  N   UNL     1       2.065   7.768  20.389  0.00  0.00    +0.000 N 
ATOM     22  N   UNL     1       2.055   8.215  19.044  0.00  0.00    +0.000 NA
ATOM     23  C   UNL     1       1.252   9.227  19.046  0.00  0.00    +0.000 A 
ATOM     24  C   UNL     1       0.696   9.950  17.889  0.00  0.00    +0.000 A 
ATOM     25  C   UNL     1      -0.589  10.323  18.027  0.00  0.00    +0.000 A 
ATOM     26  C   UNL     1      -1.299  10.098  19.275  0.00  0.00    +0.000 A 
ATOM     27  C   UNL     1      -0.594   9.840  20.390  0.00  0.00    +0.000 A 
ATOM     28  N   UNL     1       0.751   9.559  20.265  0.00  0.00    +0.000 N 
ATOM     29  C   UNL     1       1.433   8.790  21.180  0.00  0.00    +0.000 A 
ATOM     30  O   UNL     1       1.292   8.777  22.396  0.00  0.00    +0.000 OA
ENDBRANCH  20  21
ENDBRANCH   5  20
TORSDOF 5
ENDMDL
MODEL 4
REMARK VINA RESULT:      -7.9      4.507      7.404
REMARK  Name = 
REMARK  5 active torsions:
REMARK  status: ('A' for Active; 'I' for Inactive)
REMARK    1  A    between atoms: N_3  and  C_4
REMARK    2  A    between atoms: C_4  and  C_5
REMARK    3  A    between atoms: N_11  and  C_12
REMARK    4  A    between atoms: C_16  and  C_17
REMARK    5  A    between atoms: C_17  and  N_18
REMARK                            x       y       z     vdW  Elec       q    Type
REMARK                         _______ _______ _______ _____ _____    ______ ____
ROOT
ATOM      1  C   UNL     1       1.295   9.305  19.811  0.00  0.00    +0.000 A 
ATOM      2  C   UNL     1       1.759   9.418  18.495  0.00  0.00    +0.000 A 
ATOM      3  C   UNL     1       2.379   8.336  17.857  0.00  0.00    +0.000 A 
ATOM      4  C   UNL     1       2.609   7.147  18.537  0.00  0.00    +0.000 A 
ATOM      5  C   UNL     1       2.214   7.030  19.862  0.00  0.00    +0.000 A 
ATOM      6  C   UNL     1       1.556   8.102  20.492  0.00  0.00    +0.000 A 
ENDROOT
BRANCH   1  10
ATOM      7  O   UNL     1      -0.752  12.022  20.997  0.00  0.00    +0.000 OA
ATOM      8  C   UNL     1      -0.509  11.053  20.284  0.00  0.00    +0.000 C 
ATOM      9  N   UNL     1      -1.317  10.672  19.266  0.00  0.00    +0.000 N 
ATOM     10  N   UNL     1       0.610  10.308  20.525  0.00  0.00    +0.000 N 
ATOM     11  H   UNL     1      -1.345   9.685  19.064  0.00  0.00    +0.000 HD
ATOM     12  H   UNL     1       1.045  10.619  21.387  0.00  0.00    +0.000 HD
BRANCH   9  13
ATOM     13  C   UNL     1      -2.473  11.429  18.844  0.00  0.00    +0.000 C 
BRANCH  13  14
ATOM     14  C   UNL     1      -2.933  11.030  17.459  0.00  0.00    +0.000 A 
ATOM     15  C   UNL     1      -2.253  10.046  16.747  0.00  0.00    +0.000 A 
ATOM     16  C   UNL     1      -2.691   9.710  15.471  0.00  0.00    +0.000 A 
ATOM     17  C   UNL     1      -3.803  10.354  14.939  0.00  0.00    +0.000 A 
ATOM     18  C   UNL     1      -4.437  11.310  15.719  0.00  0.00    +0.000 A 
ATOM     19  N   UNL     1      -4.033  11.659  16.960  0.00  0.00    +0.000 NA
ENDBRANCH  13  14
ENDBRANCH   9  13
ENDBRANCH   1  10
BRANCH   5  20
ATOM     20  C   UNL     1       2.417   5.723  20.583  0.00  0.00    +0.000 C 
BRANCH  20  21
ATOM     21  N   UNL     1       1.457   4.638  20.335  0.00  0.00    +0.000 N 
ATOM     22  N   UNL     1       1.342   4.221  18.986  0.00  0.00    +0.000 NA
ATOM     23  C   UNL     1       1.958   3.087  18.945  0.00  0.00    +0.000 A 
ATOM     24  C   UNL     1       2.340   2.300  17.760  0.00  0.00    +0.000 A 
ATOM     25  C   UNL     1       3.546   1.709  17.844  0.00  0.00    +0.000 A 
ATOM     26  C   UNL     1       4.329   1.787  19.067  0.00  0.00    +0.000 A 
ATOM     27  C   UNL     1       3.718   2.142  20.211  0.00  0.00    +0.000 A 
ATOM     28  N   UNL     1       2.438   2.652  20.141  0.00  0.00    +0.000 N 
ATOM     29  C   UNL     1       1.931   3.510  21.090  0.00  0.00    +0.000 A 
ATOM     30  O   UNL     1       2.115   3.476  22.300  0.00  0.00    +0.000 OA
ENDBRANCH  20  21
ENDBRANCH   5  20
TORSDOF 5
ENDMDL
MODEL 5
REMARK VINA RESULT:      -7.8      5.028      9.139
REMARK  Name = 
REMARK  5 active torsions:
REMARK  status: ('A' for Active; 'I' for Inactive)
REMARK    1  A    between atoms: N_3  and  C_4
REMARK    2  A    between atoms: C_4  and  C_5
REMARK    3  A    between atoms: N_11  and  C_12
REMARK    4  A    between atoms: C_16  and  C_17
REMARK    5  A    between atoms: C_17  and  N_18
REMARK                            x       y       z     vdW  Elec       q    Type
REMARK                         _______ _______ _______ _____ _____    ______ ____
ROOT
ATOM      1  C   UNL     1       1.019   8.983  20.514  0.00  0.00    +0.000 A 
ATOM      2  C   UNL     1       0.604   9.886  19.529  0.00  0.00    +0.000 A 
ATOM      3  C   UNL     1       0.977   9.712  18.191  0.00  0.00    +0.000 A 
ATOM      4  C   UNL     1       1.825   8.676  17.819  0.00  0.00    +0.000 A 
ATOM      5  C   UNL     1       2.302   7.803  18.786  0.00  0.00    +0.000 A 
ATOM      6  C   UNL     1       1.896   7.953  20.124  0.00  0.00    +0.000 A 
ENDROOT
BRANCH   1  10
ATOM      7  O   UNL     1       0.033   9.820  23.877  0.00  0.00    +0.000 OA
ATOM      8  C   UNL     1       0.017   9.952  22.656  0.00  0.00    +0.000 C 
ATOM      9  N   UNL     1      -0.627  10.971  22.039  0.00  0.00    +0.000 N 
ATOM     10  N   UNL     1       0.657   9.033  21.875  0.00  0.00    +0.000 N 
ATOM     11  H   UNL     1      -1.005  10.772  21.126  0.00  0.00    +0.000 HD
ATOM     12  H   UNL     1       0.977   8.262  22.451  0.00  0.00    +0.000 HD
BRANCH   9  13
ATOM     13  C   UNL     1      -1.255  12.061  22.750  0.00  0.00    +0.000 C 
BRANCH  13  14
ATOM     14  C   UNL     1      -2.617  12.395  22.181  0.00  0.00    +0.000 A 
ATOM     15  C   UNL     1      -2.765  12.670  20.824  0.00  0.00    +0.000 A 
ATOM     16  C   UNL     1      -4.027  12.987  20.334  0.00  0.00    +0.000 A 
ATOM     17  C   UNL     1      -5.112  13.012  21.203  0.00  0.00    +0.000 A 
ATOM     18  C   UNL     1      -4.885  12.708  22.537  0.00  0.00    +0.000 A 
ATOM     19  N   UNL     1      -3.671  12.399  23.043  0.00  0.00    +0.000 NA
ENDBRANCH  13  14
ENDBRANCH   9  13
ENDBRANCH   1  10
BRANCH   5  20
ATOM     20  C   UNL     1       3.179   6.650  18.376  0.00  0.00    +0.000 C 
BRANCH  20  21
ATOM     21  N   UNL     1       3.746   5.799  19.431  0.00  0.00    +0.000 N 
ATOM     22  N   UNL     1       2.803   5.079  20.207  0.00  0.00    +0.000 NA
ATOM     23  C   UNL     1       2.902   3.861  19.787  0.00  0.00    +0.000 A 
ATOM     24  C   UNL     1       2.016   2.722  20.084  0.00  0.00    +0.000 A 
ATOM     25  C   UNL     1       1.786   1.906  19.039  0.00  0.00    +0.000 A 
ATOM     26  C   UNL     1       2.460   2.115  17.769  0.00  0.00    +0.000 A 
ATOM     27  C   UNL     1       3.555   2.894  17.731  0.00  0.00    +0.000 A 
ATOM     28  N   UNL     1       3.856   3.657  18.841  0.00  0.00    +0.000 N 
ATOM     29  C   UNL     1       4.570   4.830  18.760  0.00  0.00    +0.000 A 
ATOM     30  O   UNL     1       5.522   5.075  18.030  0.00  0.00    +0.000 OA
ENDBRANCH  20  21
ENDBRANCH   5  20
TORSDOF 5
ENDMDL
MODEL 6
REMARK VINA RESULT:      -7.8      0.742      1.033
REMARK  Name = 
REMARK  5 active torsions:
REMARK  status: ('A' for Active; 'I' for Inactive)
REMARK    1  A    between atoms: N_3  and  C_4
REMARK    2  A    between atoms: C_4  and  C_5
REMARK    3  A    between atoms: N_11  and  C_12
REMARK    4  A    between atoms: C_16  and  C_17
REMARK    5  A    between atoms: C_17  and  N_18
REMARK                            x       y       z     vdW  Elec       q    Type
REMARK                         _______ _______ _______ _____ _____    ______ ____
ROOT
ATOM      1  C   UNL     1       4.252   7.089  17.980  0.00  0.00    +0.000 A 
ATOM      2  C   UNL     1       3.371   7.998  17.383  0.00  0.00    +0.000 A 
ATOM      3  C   UNL     1       2.071   8.168  17.876  0.00  0.00    +0.000 A 
ATOM      4  C   UNL     1       1.603   7.390  18.927  0.00  0.00    +0.000 A 
ATOM      5  C   UNL     1       2.436   6.438  19.497  0.00  0.00    +0.000 A 
ATOM      6  C   UNL     1       3.754   6.294  19.029  0.00  0.00    +0.000 A 
ENDROOT
BRANCH   1  10
ATOM      7  O   UNL     1       7.482   5.864  16.956  0.00  0.00    +0.000 OA
ATOM      8  C   UNL     1       6.254   5.875  16.955  0.00  0.00    +0.000 C 
ATOM      9  N   UNL     1       5.514   4.933  16.323  0.00  0.00    +0.000 N 
ATOM     10  N   UNL     1       5.593   6.881  17.601  0.00  0.00    +0.000 N 
ATOM     11  H   UNL     1       4.626   5.237  15.955  0.00  0.00    +0.000 HD
ATOM     12  H   UNL     1       6.259   7.579  17.911  0.00  0.00    +0.000 HD
BRANCH   9  13
ATOM     13  C   UNL     1       6.085   3.767  15.691  0.00  0.00    +0.000 C 
BRANCH  13  14
ATOM     14  C   UNL     1       6.482   4.040  14.256  0.00  0.00    +0.000 A 
ATOM     15  C   UNL     1       7.455   4.992  13.965  0.00  0.00    +0.000 A 
ATOM     16  C   UNL     1       7.789   5.231  12.636  0.00  0.00    +0.000 A 
ATOM     17  C   UNL     1       7.155   4.509  11.631  0.00  0.00    +0.000 A 
ATOM     18  C   UNL     1       6.210   3.565  12.005  0.00  0.00    +0.000 A 
ATOM     19  N   UNL     1       5.862   3.313  13.286  0.00  0.00    +0.000 NA
ENDBRANCH  13  14
ENDBRANCH   9  13
ENDBRANCH   1  10
BRANCH   5  20
ATOM     20  C   UNL     1       1.945   5.630  20.670  0.00  0.00    +0.000 C 
BRANCH  20  21
ATOM     21  N   UNL     1       1.163   4.417  20.398  0.00  0.00    +0.000 N 
ATOM     22  N   UNL     1       1.099   4.022  19.039  0.00  0.00    +0.000 NA
ATOM     23  C   UNL     1       1.884   2.999  18.962  0.00  0.00    +0.000 A 
ATOM     24  C   UNL     1       2.370   2.312  17.753  0.00  0.00    +0.000 A 
ATOM     25  C   UNL     1       3.654   1.914  17.814  0.00  0.00    +0.000 A 
ATOM     26  C   UNL     1       4.428   2.080  19.033  0.00  0.00    +0.000 A 
ATOM     27  C   UNL     1       3.782   2.305  20.190  0.00  0.00    +0.000 A 
ATOM     28  N   UNL     1       2.437   2.612  20.142  0.00  0.00    +0.000 N 
ATOM     29  C   UNL     1       1.814   3.356  21.118  0.00  0.00    +0.000 A 
ATOM     30  O   UNL     1       2.014   3.319  22.325  0.00  0.00    +0.000 OA
ENDBRANCH  20  21
ENDBRANCH   5  20
TORSDOF 5
ENDMDL
MODEL 7
REMARK VINA RESULT:      -7.7      5.034      8.901
REMARK  Name = 
REMARK  5 active torsions:
REMARK  status: ('A' for Active; 'I' for Inactive)
REMARK    1  A    between atoms: N_3  and  C_4
REMARK    2  A    between atoms: C_4  and  C_5
REMARK    3  A    between atoms: N_11  and  C_12
REMARK    4  A    between atoms: C_16  and  C_17
REMARK    5  A    between atoms: C_17  and  N_18
REMARK                            x       y       z     vdW  Elec       q    Type
REMARK                         _______ _______ _______ _____ _____    ______ ____
ROOT
ATOM      1  C   UNL     1       7.094   6.355  17.089  0.00  0.00    +0.000 A 
ATOM      2  C   UNL     1       7.557   5.587  18.162  0.00  0.00    +0.000 A 
ATOM      3  C   UNL     1       8.229   6.184  19.236  0.00  0.00    +0.000 A 
ATOM      4  C   UNL     1       8.512   7.544  19.229  0.00  0.00    +0.000 A 
ATOM      5  C   UNL     1       8.118   8.319  18.147  0.00  0.00    +0.000 A 
ATOM      6  C   UNL     1       7.408   7.727  17.087  0.00  0.00    +0.000 A 
ENDROOT
BRANCH   1  10
ATOM      7  O   UNL     1       5.006   4.593  14.740  0.00  0.00    +0.000 OA
ATOM      8  C   UNL     1       5.303   5.013  15.855  0.00  0.00    +0.000 C 
ATOM      9  N   UNL     1       4.611   4.679  16.970  0.00  0.00    +0.000 N 
ATOM     10  N   UNL     1       6.360   5.866  15.989  0.00  0.00    +0.000 N 
ATOM     11  H   UNL     1       4.576   5.374  17.699  0.00  0.00    +0.000 HD
ATOM     12  H   UNL     1       6.698   6.135  15.072  0.00  0.00    +0.000 HD
BRANCH   9  13
ATOM     13  C   UNL     1       3.539   3.711  16.980  0.00  0.00    +0.000 C 
BRANCH  13  14
ATOM     14  C   UNL     1       2.913   3.577  18.351  0.00  0.00    +0.000 A 
ATOM     15  C   UNL     1       1.659   4.124  18.609  0.00  0.00    +0.000 A 
ATOM     16  C   UNL     1       1.116   3.996  19.882  0.00  0.00    +0.000 A 
ATOM     17  C   UNL     1       1.828   3.318  20.865  0.00  0.00    +0.000 A 
ATOM     18  C   UNL     1       3.063   2.786  20.523  0.00  0.00    +0.000 A 
ATOM     19  N   UNL     1       3.618   2.896  19.297  0.00  0.00    +0.000 NA
ENDBRANCH  13  14
ENDBRANCH   9  13
ENDBRANCH   1  10
BRANCH   5  20
ATOM     20  C   UNL     1       8.379   9.802  18.163  0.00  0.00    +0.000 C 
BRANCH  20  21
ATOM     21  N   UNL     1       9.719  10.266  18.546  0.00  0.00    +0.000 N 
ATOM     22  N   UNL     1      10.368  11.103  17.604  0.00  0.00    +0.000 NA
ATOM     23  C   UNL     1      10.295  12.285  18.119  0.00  0.00    +0.000 A 
ATOM     24  C   UNL     1      10.612  13.576  17.483  0.00  0.00    +0.000 A 
ATOM     25  C   UNL     1       9.773  14.578  17.802  0.00  0.00    +0.000 A 
ATOM     26  C   UNL     1       8.714  14.380  18.778  0.00  0.00    +0.000 A 
ATOM     27  C   UNL     1       8.781  13.325  19.608  0.00  0.00    +0.000 A 
ATOM     28  N   UNL     1       9.713  12.341  19.346  0.00  0.00    +0.000 N 
ATOM     29  C   UNL     1       9.544  11.037  19.747  0.00  0.00    +0.000 A 
ATOM     30  O   UNL     1       9.055  10.637  20.796  0.00  0.00    +0.000 OA
ENDBRANCH  20  21
ENDBRANCH   5  20
TORSDOF 5
ENDMDL
MODEL 8
REMARK VINA RESULT:      -7.7      4.146      7.780
REMARK  Name = 
REMARK  5 active torsions:
REMARK  status: ('A' for Active; 'I' for Inactive)
REMARK    1  A    between atoms: N_3  and  C_4
REMARK    2  A    between atoms: C_4  and  C_5
REMARK    3  A    between atoms: N_11  and  C_12
REMARK    4  A    between atoms: C_16  and  C_17
REMARK    5  A    between atoms: C_17  and  N_18
REMARK                            x       y       z     vdW  Elec       q    Type
REMARK                         _______ _______ _______ _____ _____    ______ ____
ROOT
ATOM      1  C   UNL     1       1.855   8.460  18.222  0.00  0.00    +0.000 A 
ATOM      2  C   UNL     1       2.984   8.136  17.461  0.00  0.00    +0.000 A 
ATOM      3  C   UNL     1       3.753   7.005  17.761  0.00  0.00    +0.000 A 
ATOM      4  C   UNL     1       3.454   6.215  18.863  0.00  0.00    +0.000 A 
ATOM      5  C   UNL     1       2.377   6.549  19.672  0.00  0.00    +0.000 A 
ATOM      6  C   UNL     1       1.580   7.661  19.348  0.00  0.00    +0.000 A 
ENDROOT
BRANCH   1  10
ATOM      7  O   UNL     1      -0.294  11.350  18.294  0.00  0.00    +0.000 OA
ATOM      8  C   UNL     1       0.682  10.691  18.641  0.00  0.00    +0.000 C 
ATOM      9  N   UNL     1       1.495  11.067  19.657  0.00  0.00    +0.000 N 
ATOM     10  N   UNL     1       0.982   9.537  17.975  0.00  0.00    +0.000 N 
ATOM     11  H   UNL     1       2.463  10.798  19.576  0.00  0.00    +0.000 HD
ATOM     12  H   UNL     1       0.380   9.448  17.164  0.00  0.00    +0.000 HD
BRANCH   9  13
ATOM     13  C   UNL     1       1.234  12.208  20.503  0.00  0.00    +0.000 C 
BRANCH  13  14
ATOM     14  C   UNL     1       0.097  11.945  21.468  0.00  0.00    +0.000 A 
ATOM     15  C   UNL     1      -0.971  12.833  21.556  0.00  0.00    +0.000 A 
ATOM     16  C   UNL     1      -1.993  12.572  22.461  0.00  0.00    +0.000 A 
ATOM     17  C   UNL     1      -1.933  11.428  23.249  0.00  0.00    +0.000 A 
ATOM     18  C   UNL     1      -0.844  10.584  23.089  0.00  0.00    +0.000 A 
ATOM     19  N   UNL     1       0.166  10.812  22.220  0.00  0.00    +0.000 NA
ENDBRANCH  13  14
ENDBRANCH   9  13
ENDBRANCH   1  10
BRANCH   5  20
ATOM     20  C   UNL     1       2.022   5.662  20.837  0.00  0.00    +0.000 C 
BRANCH  20  21
ATOM     21  N   UNL     1       1.205   4.469  20.576  0.00  0.00    +0.000 N 
ATOM     22  N   UNL     1       1.059   4.115  19.212  0.00  0.00    +0.000 NA
ATOM     23  C   UNL     1       1.820   3.082  19.063  0.00  0.00    +0.000 A 
ATOM     24  C   UNL     1       2.226   2.423  17.809  0.00  0.00    +0.000 A 
ATOM     25  C   UNL     1       3.505   2.004  17.786  0.00  0.00    +0.000 A 
ATOM     26  C   UNL     1       4.348   2.123  18.963  0.00  0.00    +0.000 A 
ATOM     27  C   UNL     1       3.773   2.325  20.161  0.00  0.00    +0.000 A 
ATOM     28  N   UNL     1       2.433   2.654  20.198  0.00  0.00    +0.000 N 
ATOM     29  C   UNL     1       1.878   3.378  21.228  0.00  0.00    +0.000 A 
ATOM     30  O   UNL     1       2.145   3.304  22.420  0.00  0.00    +0.000 OA
ENDBRANCH  20  21
ENDBRANCH   5  20
TORSDOF 5
ENDMDL
MODEL 9
REMARK VINA RESULT:      -7.6      3.792      7.379
REMARK  Name = 
REMARK  5 active torsions:
REMARK  status: ('A' for Active; 'I' for Inactive)
REMARK    1  A    between atoms: N_3  and  C_4
REMARK    2  A    between atoms: C_4  and  C_5
REMARK    3  A    between atoms: N_11  and  C_12
REMARK    4  A    between atoms: C_16  and  C_17
REMARK    5  A    between atoms: C_17  and  N_18
REMARK                            x       y       z     vdW  Elec       q    Type
REMARK                         _______ _______ _______ _____ _____    ______ ____
ROOT
ATOM      1  C   UNL     1       1.948   7.022  20.221  0.00  0.00    +0.000 A 
ATOM      2  C   UNL     1       2.217   7.485  18.929  0.00  0.00    +0.000 A 
ATOM      3  C   UNL     1       2.210   6.611  17.835  0.00  0.00    +0.000 A 
ATOM      4  C   UNL     1       2.003   5.249  18.017  0.00  0.00    +0.000 A 
ATOM      5  C   UNL     1       1.796   4.754  19.296  0.00  0.00    +0.000 A 
ATOM      6  C   UNL     1       1.763   5.637  20.390  0.00  0.00    +0.000 A 
ENDROOT
BRANCH   1  10
ATOM      7  O   UNL     1       1.598   9.596  22.718  0.00  0.00    +0.000 OA
ATOM      8  C   UNL     1       1.312   9.033  21.664  0.00  0.00    +0.000 C 
ATOM      9  N   UNL     1       0.443   9.556  20.768  0.00  0.00    +0.000 N 
ATOM     10  N   UNL     1       1.875   7.822  21.379  0.00  0.00    +0.000 N 
ATOM     11  H   UNL     1      -0.093   8.894  20.227  0.00  0.00    +0.000 HD
ATOM     12  H   UNL     1       2.393   7.490  22.185  0.00  0.00    +0.000 HD
BRANCH   9  13
ATOM     13  C   UNL     1      -0.142  10.870  20.901  0.00  0.00    +0.000 C 
BRANCH  13  14
ATOM     14  C   UNL     1      -1.239  11.105  19.886  0.00  0.00    +0.000 A 
ATOM     15  C   UNL     1      -1.261  10.387  18.694  0.00  0.00    +0.000 A 
ATOM     16  C   UNL     1      -2.274  10.635  17.775  0.00  0.00    +0.000 A 
ATOM     17  C   UNL     1      -3.248  11.583  18.070  0.00  0.00    +0.000 A 
ATOM     18  C   UNL     1      -3.167  12.242  19.288  0.00  0.00    +0.000 A 
ATOM     19  N   UNL     1      -2.193  12.026  20.199  0.00  0.00    +0.000 NA
ENDBRANCH  13  14
ENDBRANCH   9  13
ENDBRANCH   1  10
BRANCH   5  20
ATOM     20  C   UNL     1       1.520   3.285  19.486  0.00  0.00    +0.000 C 
BRANCH  20  21
ATOM     21  N   UNL     1       2.549   2.326  19.063  0.00  0.00    +0.000 N 
ATOM     22  N   UNL     1       3.009   2.471  17.731  0.00  0.00    +0.000 NA
ATOM     23  C   UNL     1       4.181   3.000  17.849  0.00  0.00    +0.000 A 
ATOM     24  C   UNL     1       5.035   3.568  16.791  0.00  0.00    +0.000 A 
ATOM     25  C   UNL     1       5.698   4.683  17.147  0.00  0.00    +0.000 A 
ATOM     26  C   UNL     1       5.626   5.191  18.506  0.00  0.00    +0.000 A 
ATOM     27  C   UNL     1       5.189   4.378  19.484  0.00  0.00    +0.000 A 
ATOM     28  N   UNL     1       4.601   3.181  19.129  0.00  0.00    +0.000 N 
ATOM     29  C   UNL     1       3.677   2.547  19.927  0.00  0.00    +0.000 A 
ATOM     30  O   UNL     1       3.677   2.467  21.149  0.00  0.00    +0.000 OA
ENDBRANCH  20  21
ENDBRANCH   5  20
TORSDOF 5
ENDMDL
