MODEL 1
REMARK VINA RESULT:      -8.7      0.000      0.000
REMARK  Name = 
REMARK  9 active torsions:
REMARK  status: ('A' for Active; 'I' for Inactive)
REMARK    1  A    between atoms: C_1  and  C_2
REMARK    2  A    between atoms: C_5  and  C_6
REMARK    3  A    between atoms: N_8  and  C_9
REMARK    4  A    between atoms: C_13  and  C_14
REMARK    5  A    between atoms: C_14  and  C_15
REMARK    6  A    between atoms: C_14  and  C_16
REMARK    7  A    between atoms: C_16  and  C_17
REMARK    8  A    between atoms: N_21  and  C_22
REMARK    9  A    between atoms: C_25  and  C_26
REMARK                            x       y       z     vdW  Elec       q    Type
REMARK                         _______ _______ _______ _____ _____    ______ ____
ROOT
ATOM      1  C   UNL     1       2.676   6.469  18.211  0.00  0.00    +0.000 A 
ATOM      2  C   UNL     1       1.843   5.359  18.041  0.00  0.00    +0.000 A 
ATOM      3  C   UNL     1       2.324   4.168  17.492  0.00  0.00    +0.000 A 
ATOM      4  C   UNL     1       3.652   4.066  17.089  0.00  0.00    +0.000 A 
ATOM      5  C   UNL     1       4.510   5.167  17.201  0.00  0.00    +0.000 A 
ATOM      6  C   UNL     1       4.004   6.371  17.757  0.00  0.00    +0.000 A 
ENDROOT
BRANCH   1   9
ATOM      7  C   UNL     1       2.066   8.900  18.173  0.00  0.00    +0.000 C 
ATOM      8  O   UNL     1       2.274   9.115  16.980  0.00  0.00    +0.000 OA
ATOM      9  N   UNL     1       2.220   7.674  18.817  0.00  0.00    +0.000 N 
ATOM     10  H   UNL     1       1.895   7.638  19.780  0.00  0.00    +0.000 HD
BRANCH   7  15
ATOM     11  C   UNL     1       0.126  13.315  21.335  0.00  0.00    +0.000 C 
ATOM     12  C   UNL     1       0.631  12.157  20.519  0.00  0.00    +0.000 A 
ATOM     13  C   UNL     1       1.230  12.404  19.283  0.00  0.00    +0.000 A 
ATOM     14  C   UNL     1       1.698  11.342  18.517  0.00  0.00    +0.000 A 
ATOM     15  C   UNL     1       1.559  10.046  19.009  0.00  0.00    +0.000 A 
ATOM     16  N   UNL     1       0.980   9.760  20.204  0.00  0.00    +0.000 NA
ATOM     17  C   UNL     1       0.525  10.820  20.936  0.00  0.00    +0.000 A 
BRANCH  17  18
ATOM     18  C   UNL     1      -0.092  10.469  22.171  0.00  0.00    +0.000 C 
ATOM     19  C   UNL     1      -0.979  10.703  23.101  0.00  0.00    +0.000 C 
ATOM     20  C   UNL     1      -0.120   9.571  23.295  0.00  0.00    +0.000 C 
ENDBRANCH  17  18
ENDBRANCH   7  15
ENDBRANCH   1   9
BRANCH   5  21
ATOM     21  C   UNL     1       5.956   5.082  16.708  0.00  0.00    +0.000 C 
ATOM     22  C   UNL     1       6.920   4.674  17.837  0.00  0.00    +0.000 C 
BRANCH  21  23
ATOM     23  C   UNL     1       6.126   4.099  15.528  0.00  0.00    +0.000 C 
BRANCH  23  24
ATOM     24  C   UNL     1       6.892   4.683  14.390  0.00  0.00    +0.000 A 
ATOM     25  N   UNL     1       7.877   5.555  14.478  0.00  0.00    +0.000 NA
ATOM     26  N   UNL     1       8.342   5.808  13.209  0.00  0.00    +0.000 NA
ATOM     27  C   UNL     1       7.636   5.081  12.376  0.00  0.00    +0.000 A 
ATOM     28  N   UNL     1       6.706   4.370  13.070  0.00  0.00    +0.000 N 
ATOM     29  C   UNL     1       5.741   3.465  12.507  0.00  0.00    +0.000 C 
ENDBRANCH  23  24
ENDBRANCH  21  23
ENDBRANCH   5  21
TORSDOF 6
ENDMDL
MODEL 2
REMARK VINA RESULT:      -8.5      0.863      2.199
REMARK  Name = 
REMARK  9 active torsions:
REMARK  status: ('A' for Active; 'I' for Inactive)
REMARK    1  A    between atoms: C_1  and  C_2
REMARK    2  A    between atoms: C_5  and  C_6
REMARK    3  A    between atoms: N_8  and  C_9
REMARK    4  A    between atoms: C_13  and  C_14
REMARK    5  A    between atoms: C_14  and  C_15
REMARK    6  A    between atoms: C_14  and  C_16
REMARK    7  A    between atoms: C_16  and  C_17
REMARK    8  A    between atoms: N_21  and  C_22
REMARK    9  A    between atoms: C_25  and  C_26
REMARK                            x       y       z     vdW  Elec       q    Type
REMARK                         _______ _______ _______ _____ _____    ______ ____
ROOT
ATOM      1  C   UNL     1       2.686   6.336  18.367  0.00  0.00    +0.000 A 
ATOM      2  C   UNL     1       1.895   5.190  18.243  0.00  0.00    +0.000 A 
ATOM      3  C   UNL     1       2.399   4.016  17.680  0.00  0.00    +0.000 A 
ATOM      4  C   UNL     1       3.711   3.966  17.219  0.00  0.00    +0.000 A 
ATOM      5  C   UNL     1       4.526   5.103  17.284  0.00  0.00    +0.000 A 
ATOM      6  C   UNL     1       3.996   6.289  17.854  0.00  0.00    +0.000 A 
ENDROOT
BRANCH   1   9
ATOM      7  C   UNL     1       1.879   8.709  18.325  0.00  0.00    +0.000 C 
ATOM      8  O   UNL     1       1.925   8.889  17.109  0.00  0.00    +0.000 OA
ATOM      9  N   UNL     1       2.208   7.526  18.985  0.00  0.00    +0.000 N 
ATOM     10  H   UNL     1       2.003   7.505  19.981  0.00  0.00    +0.000 HD
BRANCH   7  15
ATOM     11  C   UNL     1      -0.040  13.027  21.630  0.00  0.00    +0.000 C 
ATOM     12  C   UNL     1       0.464  11.908  20.761  0.00  0.00    +0.000 A 
ATOM     13  C   UNL     1       0.059  10.600  21.030  0.00  0.00    +0.000 A 
ATOM     14  C   UNL     1       0.521   9.556  20.237  0.00  0.00    +0.000 A 
ATOM     15  C   UNL     1       1.381   9.845  19.179  0.00  0.00    +0.000 A 
ATOM     16  N   UNL     1       1.803  11.102  18.884  0.00  0.00    +0.000 NA
ATOM     17  C   UNL     1       1.339  12.109  19.681  0.00  0.00    +0.000 A 
BRANCH  17  18
ATOM     18  C   UNL     1       1.824  13.406  19.344  0.00  0.00    +0.000 C 
ATOM     19  C   UNL     1       2.784  14.292  19.346  0.00  0.00    +0.000 C 
ATOM     20  C   UNL     1       1.537  14.689  18.759  0.00  0.00    +0.000 C 
ENDBRANCH  17  18
ENDBRANCH   7  15
ENDBRANCH   1   9
BRANCH   5  21
ATOM     21  C   UNL     1       5.951   5.074  16.727  0.00  0.00    +0.000 C 
ATOM     22  C   UNL     1       6.983   4.733  17.817  0.00  0.00    +0.000 C 
BRANCH  21  23
ATOM     23  C   UNL     1       6.113   4.076  15.558  0.00  0.00    +0.000 C 
BRANCH  23  24
ATOM     24  C   UNL     1       6.887   4.639  14.415  0.00  0.00    +0.000 A 
ATOM     25  N   UNL     1       7.855   5.532  14.492  0.00  0.00    +0.000 NA
ATOM     26  N   UNL     1       8.336   5.755  13.224  0.00  0.00    +0.000 NA
ATOM     27  C   UNL     1       7.656   4.990  12.402  0.00  0.00    +0.000 A 
ATOM     28  N   UNL     1       6.728   4.283  13.102  0.00  0.00    +0.000 N 
ATOM     29  C   UNL     1       5.789   3.345  12.552  0.00  0.00    +0.000 C 
ENDBRANCH  23  24
ENDBRANCH  21  23
ENDBRANCH   5  21
TORSDOF 6
ENDMDL
MODEL 3
REMARK VINA RESULT:      -8.4      3.142      9.540
REMARK  Name = 
REMARK  9 active torsions:
REMARK  status: ('A' for Active; 'I' for Inactive)
REMARK    1  A    between atoms: C_1  and  C_2
REMARK    2  A    between atoms: C_5  and  C_6
REMARK    3  A    between atoms: N_8  and  C_9
REMARK    4  A    between atoms: C_13  and  C_14
REMARK    5  A    between atoms: C_14  and  C_15
REMARK    6  A    between atoms: C_14  and  C_16
REMARK    7  A    between atoms: C_16  and  C_17
REMARK    8  A    between atoms: N_21  and  C_22
REMARK    9  A    between atoms: C_25  and  C_26
REMARK                            x       y       z     vdW  Elec       q    Type
REMARK                         _______ _______ _______ _____ _____    ______ ____
ROOT
ATOM      1  C   UNL     1       1.174   8.781  20.578  0.00  0.00    +0.000 A 
ATOM      2  C   UNL     1       1.142   8.676  21.971  0.00  0.00    +0.000 A 
ATOM      3  C   UNL     1       0.305   9.486  22.741  0.00  0.00    +0.000 A 
ATOM      4  C   UNL     1      -0.515  10.429  22.131  0.00  0.00    +0.000 A 
ATOM      5  C   UNL     1      -0.484  10.599  20.740  0.00  0.00    +0.000 A 
ATOM      6  C   UNL     1       0.376   9.771  19.974  0.00  0.00    +0.000 A 
ENDROOT
BRANCH   1   9
ATOM      7  C   UNL     1       2.088   6.546  19.903  0.00  0.00    +0.000 C 
ATOM      8  O   UNL     1       1.482   5.854  20.719  0.00  0.00    +0.000 OA
ATOM      9  N   UNL     1       1.980   7.929  19.770  0.00  0.00    +0.000 N 
ATOM     10  H   UNL     1       2.460   8.334  18.970  0.00  0.00    +0.000 HD
BRANCH   7  15
ATOM     11  C   UNL     1       5.524   3.829  16.153  0.00  0.00    +0.000 C 
ATOM     12  C   UNL     1       4.637   4.541  17.136  0.00  0.00    +0.000 A 
ATOM     13  C   UNL     1       3.287   4.198  17.210  0.00  0.00    +0.000 A 
ATOM     14  C   UNL     1       2.455   4.852  18.111  0.00  0.00    +0.000 A 
ATOM     15  C   UNL     1       2.997   5.841  18.930  0.00  0.00    +0.000 A 
ATOM     16  N   UNL     1       4.303   6.208  18.890  0.00  0.00    +0.000 NA
ATOM     17  C   UNL     1       5.098   5.554  17.993  0.00  0.00    +0.000 A 
BRANCH  17  18
ATOM     18  C   UNL     1       6.455   5.988  17.974  0.00  0.00    +0.000 C 
ATOM     19  C   UNL     1       7.677   5.908  18.431  0.00  0.00    +0.000 C 
ATOM     20  C   UNL     1       7.429   6.886  17.410  0.00  0.00    +0.000 C 
ENDBRANCH  17  18
ENDBRANCH   7  15
ENDBRANCH   1   9
BRANCH   5  21
ATOM     21  C   UNL     1      -1.339  11.673  20.066  0.00  0.00    +0.000 C 
ATOM     22  C   UNL     1      -0.738  13.079  20.247  0.00  0.00    +0.000 C 
BRANCH  21  23
ATOM     23  C   UNL     1      -1.546  11.409  18.558  0.00  0.00    +0.000 C 
BRANCH  23  24
ATOM     24  C   UNL     1      -2.973  11.511  18.140  0.00  0.00    +0.000 A 
ATOM     25  N   UNL     1      -3.982  11.902  18.894  0.00  0.00    +0.000 NA
ATOM     26  N   UNL     1      -5.122  11.895  18.125  0.00  0.00    +0.000 NA
ATOM     27  C   UNL     1      -4.783  11.507  16.918  0.00  0.00    +0.000 A 
ATOM     28  N   UNL     1      -3.449  11.242  16.883  0.00  0.00    +0.000 N 
ATOM     29  C   UNL     1      -2.707  10.785  15.740  0.00  0.00    +0.000 C 
ENDBRANCH  23  24
ENDBRANCH  21  23
ENDBRANCH   5  21
TORSDOF 6
ENDMDL
MODEL 4
REMARK VINA RESULT:      -8.3      1.420      2.341
REMARK  Name = 
REMARK  9 active torsions:
REMARK  status: ('A' for Active; 'I' for Inactive)
REMARK    1  A    between atoms: C_1  and  C_2
REMARK    2  A    between atoms: C_5  and  C_6
REMARK    3  A    between atoms: N_8  and  C_9
REMARK    4  A    between atoms: C_13  and  C_14
REMARK    5  A    between atoms: C_14  and  C_15
REMARK    6  A    between atoms: C_14  and  C_16
REMARK    7  A    between atoms: C_16  and  C_17
REMARK    8  A    between atoms: N_21  and  C_22
REMARK    9  A    between atoms: C_25  and  C_26
REMARK                            x       y       z     vdW  Elec       q    Type
REMARK                         _______ _______ _______ _____ _____    ______ ____
ROOT
ATOM      1  C   UNL     1       2.841   6.462  18.338  0.00  0.00    +0.000 A 
ATOM      2  C   UNL     1       2.284   5.180  18.292  0.00  0.00    +0.000 A 
ATOM      3  C   UNL     1       2.960   4.116  17.691  0.00  0.00    +0.000 A 
ATOM      4  C   UNL     1       4.209   4.315  17.111  0.00  0.00    +0.000 A 
ATOM      5  C   UNL     1       4.785   5.592  17.095  0.00  0.00    +0.000 A 
ATOM      6  C   UNL     1       4.083   6.663  17.706  0.00  0.00    +0.000 A 
ENDROOT
BRANCH   1   9
ATOM      7  C   UNL     1       1.619   7.507  20.261  0.00  0.00    +0.000 C 
ATOM      8  O   UNL     1       1.612   6.535  21.014  0.00  0.00    +0.000 OA
ATOM      9  N   UNL     1       2.194   7.548  18.992  0.00  0.00    +0.000 N 
ATOM     10  H   UNL     1       2.215   8.462  18.547  0.00  0.00    +0.000 HD
BRANCH   7  15
ATOM     11  C   UNL     1      -0.762  12.376  22.230  0.00  0.00    +0.000 C 
ATOM     12  C   UNL     1      -0.144  11.109  21.706  0.00  0.00    +0.000 A 
ATOM     13  C   UNL     1       0.172  10.084  22.599  0.00  0.00    +0.000 A 
ATOM     14  C   UNL     1       0.748   8.910  22.129  0.00  0.00    +0.000 A 
ATOM     15  C   UNL     1       0.994   8.782  20.763  0.00  0.00    +0.000 A 
ATOM     16  N   UNL     1       0.706   9.754  19.860  0.00  0.00    +0.000 NA
ATOM     17  C   UNL     1       0.145  10.900  20.348  0.00  0.00    +0.000 A 
BRANCH  17  18
ATOM     18  C   UNL     1      -0.120  11.897  19.366  0.00  0.00    +0.000 C 
ATOM     19  C   UNL     1      -0.938  12.466  18.520  0.00  0.00    +0.000 C 
ATOM     20  C   UNL     1       0.393  12.996  18.591  0.00  0.00    +0.000 C 
ENDBRANCH  17  18
ENDBRANCH   7  15
ENDBRANCH   1   9
BRANCH   5  21
ATOM     21  C   UNL     1       6.131   5.831  16.410  0.00  0.00    +0.000 C 
ATOM     22  C   UNL     1       7.209   6.285  17.411  0.00  0.00    +0.000 C 
BRANCH  21  23
ATOM     23  C   UNL     1       6.646   4.584  15.656  0.00  0.00    +0.000 C 
BRANCH  23  24
ATOM     24  C   UNL     1       7.163   4.900  14.294  0.00  0.00    +0.000 A 
ATOM     25  N   UNL     1       8.167   5.706  14.007  0.00  0.00    +0.000 NA
ATOM     26  N   UNL     1       8.352   5.694  12.645  0.00  0.00    +0.000 NA
ATOM     27  C   UNL     1       7.463   4.877  12.131  0.00  0.00    +0.000 A 
ATOM     28  N   UNL     1       6.687   4.367  13.125  0.00  0.00    +0.000 N 
ATOM     29  C   UNL     1       5.599   3.442  12.958  0.00  0.00    +0.000 C 
ENDBRANCH  23  24
ENDBRANCH  21  23
ENDBRANCH   5  21
TORSDOF 6
ENDMDL
MODEL 5
REMARK VINA RESULT:      -8.2      1.311      2.315
REMARK  Name = 
REMARK  9 active torsions:
REMARK  status: ('A' for Active; 'I' for Inactive)
REMARK    1  A    between atoms: C_1  and  C_2
REMARK    2  A    between atoms: C_5  and  C_6
REMARK    3  A    between atoms: N_8  and  C_9
REMARK    4  A    between atoms: C_13  and  C_14
REMARK    5  A    between atoms: C_14  and  C_15
REMARK    6  A    between atoms: C_14  and  C_16
REMARK    7  A    between atoms: C_16  and  C_17
REMARK    8  A    between atoms: N_21  and  C_22
REMARK    9  A    between atoms: C_25  and  C_26
REMARK                            x       y       z     vdW  Elec       q    Type
REMARK                         _______ _______ _______ _____ _____    ______ ____
ROOT
ATOM      1  C   UNL     1       2.946   5.659  19.436  0.00  0.00    +0.000 A 
ATOM      2  C   UNL     1       3.132   4.416  20.045  0.00  0.00    +0.000 A 
ATOM      3  C   UNL     1       3.873   3.407  19.425  0.00  0.00    +0.000 A 
ATOM      4  C   UNL     1       4.437   3.619  18.172  0.00  0.00    +0.000 A 
ATOM      5  C   UNL     1       4.239   4.836  17.505  0.00  0.00    +0.000 A 
ATOM      6  C   UNL     1       3.480   5.848  18.147  0.00  0.00    +0.000 A 
ENDROOT
BRANCH   1   9
ATOM      7  C   UNL     1       1.877   7.927  19.479  0.00  0.00    +0.000 C 
ATOM      8  O   UNL     1       2.088   8.243  18.310  0.00  0.00    +0.000 OA
ATOM      9  N   UNL     1       2.240   6.719  20.073  0.00  0.00    +0.000 N 
ATOM     10  H   UNL     1       1.888   6.568  21.015  0.00  0.00    +0.000 HD
BRANCH   7  15
ATOM     11  C   UNL     1      -1.005  11.644  22.816  0.00  0.00    +0.000 C 
ATOM     12  C   UNL     1      -0.255  10.681  21.937  0.00  0.00    +0.000 A 
ATOM     13  C   UNL     1       0.017   9.397  22.409  0.00  0.00    +0.000 A 
ATOM     14  C   UNL     1       0.714   8.498  21.609  0.00  0.00    +0.000 A 
ATOM     15  C   UNL     1       1.122   8.905  20.340  0.00  0.00    +0.000 A 
ATOM     16  N   UNL     1       0.882  10.145  19.842  0.00  0.00    +0.000 NA
ATOM     17  C   UNL     1       0.200  11.011  20.649  0.00  0.00    +0.000 A 
BRANCH  17  18
ATOM     18  C   UNL     1      -0.011  12.304  20.091  0.00  0.00    +0.000 C 
ATOM     19  C   UNL     1       0.271  13.579  20.048  0.00  0.00    +0.000 C 
ATOM     20  C   UNL     1      -0.750  13.111  19.155  0.00  0.00    +0.000 C 
ENDBRANCH  17  18
ENDBRANCH   7  15
ENDBRANCH   1   9
BRANCH   5  21
ATOM     21  C   UNL     1       4.808   5.057  16.102  0.00  0.00    +0.000 C 
ATOM     22  C   UNL     1       5.112   6.543  15.838  0.00  0.00    +0.000 C 
BRANCH  21  23
ATOM     23  C   UNL     1       6.088   4.232  15.841  0.00  0.00    +0.000 C 
BRANCH  23  24
ATOM     24  C   UNL     1       6.847   4.699  14.647  0.00  0.00    +0.000 A 
ATOM     25  N   UNL     1       7.888   5.510  14.651  0.00  0.00    +0.000 NA
ATOM     26  N   UNL     1       8.321   5.659  13.355  0.00  0.00    +0.000 NA
ATOM     27  C   UNL     1       7.541   4.933  12.590  0.00  0.00    +0.000 A 
ATOM     28  N   UNL     1       6.594   4.324  13.354  0.00  0.00    +0.000 N 
ATOM     29  C   UNL     1       5.554   3.454  12.877  0.00  0.00    +0.000 C 
ENDBRANCH  23  24
ENDBRANCH  21  23
ENDBRANCH   5  21
TORSDOF 6
ENDMDL
MODEL 6
REMARK VINA RESULT:      -8.2      2.054      3.561
REMARK  Name = 
REMARK  9 active torsions:
REMARK  status: ('A' for Active; 'I' for Inactive)
REMARK    1  A    between atoms: C_1  and  C_2
REMARK    2  A    between atoms: C_5  and  C_6
REMARK    3  A    between atoms: N_8  and  C_9
REMARK    4  A    between atoms: C_13  and  C_14
REMARK    5  A    between atoms: C_14  and  C_15
REMARK    6  A    between atoms: C_14  and  C_16
REMARK    7  A    between atoms: C_16  and  C_17
REMARK    8  A    between atoms: N_21  and  C_22
REMARK    9  A    between atoms: C_25  and  C_26
REMARK                            x       y       z     vdW  Elec       q    Type
REMARK                         _______ _______ _______ _____ _____    ______ ____
ROOT
ATOM      1  C   UNL     1       2.616   5.476  18.081  0.00  0.00    +0.000 A 
ATOM      2  C   UNL     1       1.920   4.264  18.054  0.00  0.00    +0.000 A 
ATOM      3  C   UNL     1       2.450   3.137  17.422  0.00  0.00    +0.000 A 
ATOM      4  C   UNL     1       3.689   3.202  16.792  0.00  0.00    +0.000 A 
ATOM      5  C   UNL     1       4.401   4.408  16.757  0.00  0.00    +0.000 A 
ATOM      6  C   UNL     1       3.846   5.545  17.400  0.00  0.00    +0.000 A 
ENDROOT
BRANCH   1   9
ATOM      7  C   UNL     1       2.141   7.929  18.283  0.00  0.00    +0.000 C 
ATOM      8  O   UNL     1       2.566   8.282  17.185  0.00  0.00    +0.000 OA
ATOM      9  N   UNL     1       2.119   6.622  18.765  0.00  0.00    +0.000 N 
ATOM     10  H   UNL     1       1.627   6.484  19.645  0.00  0.00    +0.000 HD
BRANCH   7  15
ATOM     11  C   UNL     1      -0.115  11.961  21.735  0.00  0.00    +0.000 C 
ATOM     12  C   UNL     1       0.471  10.916  20.826  0.00  0.00    +0.000 A 
ATOM     13  C   UNL     1       0.693   9.630  21.319  0.00  0.00    +0.000 A 
ATOM     14  C   UNL     1       1.239   8.656  20.491  0.00  0.00    +0.000 A 
ATOM     15  C   UNL     1       1.549   8.990  19.175  0.00  0.00    +0.000 A 
ATOM     16  N   UNL     1       1.353  10.228  18.654  0.00  0.00    +0.000 NA
ATOM     17  C   UNL     1       0.820  11.169  19.489  0.00  0.00    +0.000 A 
BRANCH  17  18
ATOM     18  C   UNL     1       0.652  12.457  18.904  0.00  0.00    +0.000 C 
ATOM     19  C   UNL     1      -0.115  13.359  18.352  0.00  0.00    +0.000 C 
ATOM     20  C   UNL     1       1.275  13.686  18.488  0.00  0.00    +0.000 C 
ENDBRANCH  17  18
ENDBRANCH   7  15
ENDBRANCH   1   9
BRANCH   5  21
ATOM     21  C   UNL     1       5.737   4.504  16.018  0.00  0.00    +0.000 C 
ATOM     22  C   UNL     1       5.558   4.361  14.495  0.00  0.00    +0.000 C 
BRANCH  21  23
ATOM     23  C   UNL     1       6.485   5.824  16.310  0.00  0.00    +0.000 C 
BRANCH  23  24
ATOM     24  C   UNL     1       7.190   5.815  17.623  0.00  0.00    +0.000 A 
ATOM     25  N   UNL     1       7.392   4.763  18.393  0.00  0.00    +0.000 NA
ATOM     26  N   UNL     1       8.114   5.168  19.491  0.00  0.00    +0.000 NA
ATOM     27  C   UNL     1       8.341   6.454  19.365  0.00  0.00    +0.000 A 
ATOM     28  N   UNL     1       7.770   6.905  18.216  0.00  0.00    +0.000 N 
ATOM     29  C   UNL     1       7.795   8.260  17.734  0.00  0.00    +0.000 C 
ENDBRANCH  23  24
ENDBRANCH  21  23
ENDBRANCH   5  21
TORSDOF 6
ENDMDL
MODEL 7
REMARK VINA RESULT:      -8.1      4.278     10.397
REMARK  Name = 
REMARK  9 active torsions:
REMARK  status: ('A' for Active; 'I' for Inactive)
REMARK    1  A    between atoms: C_1  and  C_2
REMARK    2  A    between atoms: C_5  and  C_6
REMARK    3  A    between atoms: N_8  and  C_9
REMARK    4  A    between atoms: C_13  and  C_14
REMARK    5  A    between atoms: C_14  and  C_15
REMARK    6  A    between atoms: C_14  and  C_16
REMARK    7  A    between atoms: C_16  and  C_17
REMARK    8  A    between atoms: N_21  and  C_22
REMARK    9  A    between atoms: C_25  and  C_26
REMARK                            x       y       z     vdW  Elec       q    Type
REMARK                         _______ _______ _______ _____ _____    ______ ____
ROOT
ATOM      1  C   UNL     1       0.066  10.164  19.194  0.00  0.00    +0.000 A 
ATOM      2  C   UNL     1       0.231  11.242  20.068  0.00  0.00    +0.000 A 
ATOM      3  C   UNL     1      -0.662  12.315  20.073  0.00  0.00    +0.000 A 
ATOM      4  C   UNL     1      -1.739  12.337  19.194  0.00  0.00    +0.000 A 
ATOM      5  C   UNL     1      -1.919  11.299  18.271  0.00  0.00    +0.000 A 
ATOM      6  C   UNL     1      -0.999  10.218  18.275  0.00  0.00    +0.000 A 
ENDROOT
BRANCH   1   9
ATOM      7  C   UNL     1       1.906   8.745  18.252  0.00  0.00    +0.000 C 
ATOM      8  O   UNL     1       2.177   9.437  17.272  0.00  0.00    +0.000 OA
ATOM      9  N   UNL     1       0.934   9.035  19.208  0.00  0.00    +0.000 N 
ATOM     10  H   UNL     1       0.916   8.421  20.018  0.00  0.00    +0.000 HD
BRANCH   7  15
ATOM     11  C   UNL     1       4.993   3.954  19.126  0.00  0.00    +0.000 C 
ATOM     12  C   UNL     1       4.195   5.207  18.891  0.00  0.00    +0.000 A 
ATOM     13  C   UNL     1       3.222   5.579  19.818  0.00  0.00    +0.000 A 
ATOM     14  C   UNL     1       2.474   6.733  19.610  0.00  0.00    +0.000 A 
ATOM     15  C   UNL     1       2.721   7.497  18.472  0.00  0.00    +0.000 A 
ATOM     16  N   UNL     1       3.655   7.170  17.542  0.00  0.00    +0.000 NA
ATOM     17  C   UNL     1       4.374   6.031  17.767  0.00  0.00    +0.000 A 
BRANCH  17  18
ATOM     18  C   UNL     1       5.327   5.719  16.756  0.00  0.00    +0.000 C 
ATOM     19  C   UNL     1       5.618   5.188  15.598  0.00  0.00    +0.000 C 
ATOM     20  C   UNL     1       6.703   5.769  16.335  0.00  0.00    +0.000 C 
ENDBRANCH  17  18
ENDBRANCH   7  15
ENDBRANCH   1   9
BRANCH   5  21
ATOM     21  C   UNL     1      -3.067  11.342  17.261  0.00  0.00    +0.000 C 
ATOM     22  C   UNL     1      -2.683  10.669  15.931  0.00  0.00    +0.000 C 
BRANCH  21  23
ATOM     23  C   UNL     1      -4.358  10.684  17.798  0.00  0.00    +0.000 C 
BRANCH  23  24
ATOM     24  C   UNL     1      -5.536  11.595  17.756  0.00  0.00    +0.000 A 
ATOM     25  N   UNL     1      -5.712  12.607  16.928  0.00  0.00    +0.000 NA
ATOM     26  N   UNL     1      -6.942  13.165  17.187  0.00  0.00    +0.000 NA
ATOM     27  C   UNL     1      -7.491  12.480  18.162  0.00  0.00    +0.000 A 
ATOM     28  N   UNL     1      -6.642  11.495  18.560  0.00  0.00    +0.000 N 
ATOM     29  C   UNL     1      -6.884  10.541  19.608  0.00  0.00    +0.000 C 
ENDBRANCH  23  24
ENDBRANCH  21  23
ENDBRANCH   5  21
TORSDOF 6
ENDMDL
MODEL 8
REMARK VINA RESULT:      -8.1      3.050      9.378
REMARK  Name = 
REMARK  9 active torsions:
REMARK  status: ('A' for Active; 'I' for Inactive)
REMARK    1  A    between atoms: C_1  and  C_2
REMARK    2  A    between atoms: C_5  and  C_6
REMARK    3  A    between atoms: N_8  and  C_9
REMARK    4  A    between atoms: C_13  and  C_14
REMARK    5  A    between atoms: C_14  and  C_15
REMARK    6  A    between atoms: C_14  and  C_16
REMARK    7  A    between atoms: C_16  and  C_17
REMARK    8  A    between atoms: N_21  and  C_22
REMARK    9  A    between atoms: C_25  and  C_26
REMARK                            x       y       z     vdW  Elec       q    Type
REMARK                         _______ _______ _______ _____ _____    ______ ____
ROOT
ATOM      1  C   UNL     1       0.944   8.936  20.676  0.00  0.00    +0.000 A 
ATOM      2  C   UNL     1       0.918   8.938  22.074  0.00  0.00    +0.000 A 
ATOM      3  C   UNL     1       0.122   9.839  22.784  0.00  0.00    +0.000 A 
ATOM      4  C   UNL     1      -0.663  10.767  22.107  0.00  0.00    +0.000 A 
ATOM      5  C   UNL     1      -0.634  10.830  20.708  0.00  0.00    +0.000 A 
ATOM      6  C   UNL     1       0.184   9.910  20.002  0.00  0.00    +0.000 A 
ENDROOT
BRANCH   1   9
ATOM      7  C   UNL     1       2.202   8.182  18.643  0.00  0.00    +0.000 C 
ATOM      8  O   UNL     1       2.076   9.203  17.970  0.00  0.00    +0.000 OA
ATOM      9  N   UNL     1       1.708   7.992  19.932  0.00  0.00    +0.000 N 
ATOM     10  H   UNL     1       1.999   7.134  20.394  0.00  0.00    +0.000 HD
BRANCH   7  15
ATOM     11  C   UNL     1       5.281   3.875  16.357  0.00  0.00    +0.000 C 
ATOM     12  C   UNL     1       4.470   4.991  16.956  0.00  0.00    +0.000 A 
ATOM     13  C   UNL     1       4.845   6.313  16.712  0.00  0.00    +0.000 A 
ATOM     14  C   UNL     1       4.107   7.354  17.264  0.00  0.00    +0.000 A 
ATOM     15  C   UNL     1       2.997   7.048  18.048  0.00  0.00    +0.000 A 
ATOM     16  N   UNL     1       2.598   5.778  18.313  0.00  0.00    +0.000 NA
ATOM     17  C   UNL     1       3.343   4.773  17.764  0.00  0.00    +0.000 A 
BRANCH  17  18
ATOM     18  C   UNL     1       2.898   3.459  18.086  0.00  0.00    +0.000 C 
ATOM     19  C   UNL     1       2.025   2.495  17.958  0.00  0.00    +0.000 C 
ATOM     20  C   UNL     1       3.129   2.256  18.843  0.00  0.00    +0.000 C 
ENDBRANCH  17  18
ENDBRANCH   7  15
ENDBRANCH   1   9
BRANCH   5  21
ATOM     21  C   UNL     1      -1.449  11.885  19.958  0.00  0.00    +0.000 C 
ATOM     22  C   UNL     1      -0.795  13.276  20.041  0.00  0.00    +0.000 C 
BRANCH  21  23
ATOM     23  C   UNL     1      -1.666  11.524  18.471  0.00  0.00    +0.000 C 
BRANCH  23  24
ATOM     24  C   UNL     1      -3.098  11.580  18.061  0.00  0.00    +0.000 A 
ATOM     25  N   UNL     1      -4.111  11.963  18.813  0.00  0.00    +0.000 NA
ATOM     26  N   UNL     1      -5.255  11.910  18.053  0.00  0.00    +0.000 NA
ATOM     27  C   UNL     1      -4.915  11.500  16.854  0.00  0.00    +0.000 A 
ATOM     28  N   UNL     1      -3.575  11.268  16.815  0.00  0.00    +0.000 N 
ATOM     29  C   UNL     1      -2.830  10.802  15.678  0.00  0.00    +0.000 C 
ENDBRANCH  23  24
ENDBRANCH  21  23
ENDBRANCH   5  21
TORSDOF 6
ENDMDL
MODEL 9
REMARK VINA RESULT:      -8.1      3.221      9.533
REMARK  Name = 
REMARK  9 active torsions:
REMARK  status: ('A' for Active; 'I' for Inactive)
REMARK    1  A    between atoms: C_1  and  C_2
REMARK    2  A    between atoms: C_5  and  C_6
REMARK    3  A    between atoms: N_8  and  C_9
REMARK    4  A    between atoms: C_13  and  C_14
REMARK    5  A    between atoms: C_14  and  C_15
REMARK    6  A    between atoms: C_14  and  C_16
REMARK    7  A    between atoms: C_16  and  C_17
REMARK    8  A    between atoms: N_21  and  C_22
REMARK    9  A    between atoms: C_25  and  C_26
REMARK                            x       y       z     vdW  Elec       q    Type
REMARK                         _______ _______ _______ _____ _____    ______ ____
ROOT
ATOM      1  C   UNL     1       0.543   8.876  21.321  0.00  0.00    +0.000 A 
ATOM      2  C   UNL     1       0.256   9.266  22.632  0.00  0.00    +0.000 A 
ATOM      3  C   UNL     1      -0.443  10.445  22.902  0.00  0.00    +0.000 A 
ATOM      4  C   UNL     1      -0.862  11.267  21.861  0.00  0.00    +0.000 A 
ATOM      5  C   UNL     1      -0.558  10.937  20.534  0.00  0.00    +0.000 A 
ATOM      6  C   UNL     1       0.157   9.739  20.278  0.00  0.00    +0.000 A 
ENDROOT
BRANCH   1   9
ATOM      7  C   UNL     1       2.003   7.413  19.902  0.00  0.00    +0.000 C 
ATOM      8  O   UNL     1       2.271   8.231  19.024  0.00  0.00    +0.000 OA
ATOM      9  N   UNL     1       1.208   7.653  21.021  0.00  0.00    +0.000 N 
ATOM     10  H   UNL     1       1.181   6.906  21.711  0.00  0.00    +0.000 HD
BRANCH   7  15
ATOM     11  C   UNL     1       4.324   2.149  19.500  0.00  0.00    +0.000 C 
ATOM     12  C   UNL     1       3.727   3.526  19.598  0.00  0.00    +0.000 A 
ATOM     13  C   UNL     1       2.724   3.769  20.538  0.00  0.00    +0.000 A 
ATOM     14  C   UNL     1       2.161   5.036  20.637  0.00  0.00    +0.000 A 
ATOM     15  C   UNL     1       2.619   6.043  19.790  0.00  0.00    +0.000 A 
ATOM     16  N   UNL     1       3.589   5.850  18.860  0.00  0.00    +0.000 NA
ATOM     17  C   UNL     1       4.124   4.596  18.779  0.00  0.00    +0.000 A 
BRANCH  17  18
ATOM     18  C   UNL     1       5.123   4.438  17.776  0.00  0.00    +0.000 C 
ATOM     19  C   UNL     1       5.471   4.070  16.572  0.00  0.00    +0.000 C 
ATOM     20  C   UNL     1       6.512   4.569  17.423  0.00  0.00    +0.000 C 
ENDBRANCH  17  18
ENDBRANCH   7  15
ENDBRANCH   1   9
BRANCH   5  21
ATOM     21  C   UNL     1      -0.964  11.864  19.387  0.00  0.00    +0.000 C 
ATOM     22  C   UNL     1       0.196  12.777  18.952  0.00  0.00    +0.000 C 
BRANCH  21  23
ATOM     23  C   UNL     1      -1.481  11.092  18.152  0.00  0.00    +0.000 C 
BRANCH  23  24
ATOM     24  C   UNL     1      -2.918  11.358  17.859  0.00  0.00    +0.000 A 
ATOM     25  N   UNL     1      -3.819  11.806  18.711  0.00  0.00    +0.000 NA
ATOM     26  N   UNL     1      -5.009  11.955  18.039  0.00  0.00    +0.000 NA
ATOM     27  C   UNL     1      -4.808  11.601  16.792  0.00  0.00    +0.000 A 
ATOM     28  N   UNL     1      -3.515  11.207  16.635  0.00  0.00    +0.000 N 
ATOM     29  C   UNL     1      -2.915  10.741  15.414  0.00  0.00    +0.000 C 
ENDBRANCH  23  24
ENDBRANCH  21  23
ENDBRANCH   5  21
TORSDOF 6
ENDMDL
