MODEL 1
REMARK VINA RESULT:      -8.9      0.000      0.000
REMARK  Name = 
REMARK  5 active torsions:
REMARK  status: ('A' for Active; 'I' for Inactive)
REMARK    1  A    between atoms: C_2  and  C_3
REMARK    2  A    between atoms: C_3  and  C_4
REMARK    3  A    between atoms: C_4  and  C_5
REMARK    4  A    between atoms: N_14  and  C_15
REMARK    5  A    between atoms: C_20  and  C_21
REMARK                            x       y       z     vdW  Elec       q    Type
REMARK                         _______ _______ _______ _____ _____    ______ ____
ROOT
ATOM      1  O   UNL     1       2.345   6.599  19.899  0.00  0.00    +0.000 OA
ATOM      2  C   UNL     1       2.508   6.887  18.745  0.00  0.00    +0.000 C 
ATOM      3  N   UNL     1       2.611   5.929  17.739  0.00  0.00    +0.000 N 
ATOM      4  H   UNL     1       2.815   6.256  16.799  0.00  0.00    +0.000 HD
ENDROOT
BRANCH   3   5
ATOM      5  C   UNL     1       2.457   4.535  17.935  0.00  0.00    +0.000 A 
ATOM      6  C   UNL     1       1.230   4.047  18.410  0.00  0.00    +0.000 A 
ATOM      7  C   UNL     1       1.068   2.699  18.744  0.00  0.00    +0.000 A 
ATOM      8  C   UNL     1       2.097   1.797  18.512  0.00  0.00    +0.000 A 
ATOM      9  C   UNL     1       3.306   2.252  17.993  0.00  0.00    +0.000 A 
ATOM     10  C   UNL     1       3.539   3.633  17.759  0.00  0.00    +0.000 A 
BRANCH  10  11
ATOM     11  C   UNL     1       4.891   4.065  17.341  0.00  0.00    +0.000 A 
ATOM     12  C   UNL     1       5.872   4.453  18.266  0.00  0.00    +0.000 A 
ATOM     13  C   UNL     1       7.166   4.767  17.878  0.00  0.00    +0.000 A 
ATOM     14  C   UNL     1       7.507   4.715  16.534  0.00  0.00    +0.000 A 
ATOM     15  C   UNL     1       6.557   4.348  15.586  0.00  0.00    +0.000 A 
ATOM     16  C   UNL     1       5.260   4.039  15.989  0.00  0.00    +0.000 A 
ENDBRANCH  10  11
ENDBRANCH   3   5
BRANCH   2  17
ATOM     17  C   UNL     1       2.475   8.332  18.250  0.00  0.00    +0.000 C 
BRANCH  17  18
ATOM     18  C   UNL     1       1.049   8.849  18.074  0.00  0.00    +0.000 C 
BRANCH  18  19
ATOM     19  C   UNL     1       0.752   9.955  19.044  0.00  0.00    +0.000 A 
ATOM     20  C   UNL     1       0.946  11.306  18.834  0.00  0.00    +0.000 A 
ATOM     21  N   UNL     1       0.553  11.979  19.959  0.00  0.00    +0.000 N 
ATOM     22  C   UNL     1       0.144  11.092  20.927  0.00  0.00    +0.000 A 
ATOM     23  C   UNL     1      -0.316  11.326  22.229  0.00  0.00    +0.000 A 
ATOM     24  C   UNL     1      -0.644  10.215  23.010  0.00  0.00    +0.000 A 
ATOM     25  C   UNL     1      -0.523   8.922  22.506  0.00  0.00    +0.000 A 
ATOM     26  C   UNL     1      -0.078   8.708  21.196  0.00  0.00    +0.000 A 
ATOM     27  C   UNL     1       0.264   9.811  20.386  0.00  0.00    +0.000 A 
ATOM     28  H   UNL     1       0.576  12.984  20.075  0.00  0.00    +0.000 HD
ENDBRANCH  18  19
ENDBRANCH  17  18
ENDBRANCH   2  17
TORSDOF 5
ENDMDL
MODEL 2
REMARK VINA RESULT:      -8.8      1.592      2.121
REMARK  Name = 
REMARK  5 active torsions:
REMARK  status: ('A' for Active; 'I' for Inactive)
REMARK    1  A    between atoms: C_2  and  C_3
REMARK    2  A    between atoms: C_3  and  C_4
REMARK    3  A    between atoms: C_4  and  C_5
REMARK    4  A    between atoms: N_14  and  C_15
REMARK    5  A    between atoms: C_20  and  C_21
REMARK                            x       y       z     vdW  Elec       q    Type
REMARK                         _______ _______ _______ _____ _____    ______ ____
ROOT
ATOM      1  O   UNL     1       2.886   6.631  19.822  0.00  0.00    +0.000 OA
ATOM      2  C   UNL     1       2.748   6.921  18.664  0.00  0.00    +0.000 C 
ATOM      3  N   UNL     1       2.550   5.965  17.670  0.00  0.00    +0.000 N 
ATOM      4  H   UNL     1       2.509   6.291  16.709  0.00  0.00    +0.000 HD
ENDROOT
BRANCH   3   5
ATOM      5  C   UNL     1       2.406   4.576  17.904  0.00  0.00    +0.000 A 
ATOM      6  C   UNL     1       1.179   4.091  18.380  0.00  0.00    +0.000 A 
ATOM      7  C   UNL     1       1.025   2.751  18.752  0.00  0.00    +0.000 A 
ATOM      8  C   UNL     1       2.065   1.852  18.556  0.00  0.00    +0.000 A 
ATOM      9  C   UNL     1       3.275   2.304  18.037  0.00  0.00    +0.000 A 
ATOM     10  C   UNL     1       3.498   3.680  17.765  0.00  0.00    +0.000 A 
BRANCH  10  11
ATOM     11  C   UNL     1       4.850   4.112  17.348  0.00  0.00    +0.000 A 
ATOM     12  C   UNL     1       5.827   4.511  18.274  0.00  0.00    +0.000 A 
ATOM     13  C   UNL     1       7.121   4.826  17.889  0.00  0.00    +0.000 A 
ATOM     14  C   UNL     1       7.467   4.763  16.547  0.00  0.00    +0.000 A 
ATOM     15  C   UNL     1       6.522   4.385  15.598  0.00  0.00    +0.000 A 
ATOM     16  C   UNL     1       5.224   4.075  15.998  0.00  0.00    +0.000 A 
ENDBRANCH  10  11
ENDBRANCH   3   5
BRANCH   2  17
ATOM     17  C   UNL     1       2.634   8.368  18.191  0.00  0.00    +0.000 C 
BRANCH  17  18
ATOM     18  C   UNL     1       1.274   8.663  17.562  0.00  0.00    +0.000 C 
BRANCH  18  19
ATOM     19  C   UNL     1       0.555   9.745  18.314  0.00  0.00    +0.000 A 
ATOM     20  C   UNL     1       1.045  10.466  19.385  0.00  0.00    +0.000 A 
ATOM     21  N   UNL     1       0.083  11.354  19.785  0.00  0.00    +0.000 N 
ATOM     22  C   UNL     1      -1.053  11.201  19.025  0.00  0.00    +0.000 A 
ATOM     23  C   UNL     1      -2.280  11.872  19.092  0.00  0.00    +0.000 A 
ATOM     24  C   UNL     1      -3.280  11.485  18.194  0.00  0.00    +0.000 A 
ATOM     25  C   UNL     1      -3.057  10.473  17.264  0.00  0.00    +0.000 A 
ATOM     26  C   UNL     1      -1.817   9.826  17.200  0.00  0.00    +0.000 A 
ATOM     27  C   UNL     1      -0.791  10.192  18.096  0.00  0.00    +0.000 A 
ATOM     28  H   UNL     1       0.180  12.016  20.543  0.00  0.00    +0.000 HD
ENDBRANCH  18  19
ENDBRANCH  17  18
ENDBRANCH   2  17
TORSDOF 5
ENDMDL
MODEL 3
REMARK VINA RESULT:      -8.7      2.179      2.863
REMARK  Name = 
REMARK  5 active torsions:
REMARK  status: ('A' for Active; 'I' for Inactive)
REMARK    1  A    between atoms: C_2  and  C_3
REMARK    2  A    between atoms: C_3  and  C_4
REMARK    3  A    between atoms: C_4  and  C_5
REMARK    4  A    between atoms: N_14  and  C_15
REMARK    5  A    between atoms: C_20  and  C_21
REMARK                            x       y       z     vdW  Elec       q    Type
REMARK                         _______ _______ _______ _____ _____    ______ ____
ROOT
ATOM      1  O   UNL     1       2.124   6.989  20.006  0.00  0.00    +0.000 OA
ATOM      2  C   UNL     1       2.419   7.470  18.945  0.00  0.00    +0.000 C 
ATOM      3  N   UNL     1       2.853   6.701  17.868  0.00  0.00    +0.000 N 
ATOM      4  H   UNL     1       3.146   7.193  17.029  0.00  0.00    +0.000 HD
ENDROOT
BRANCH   3   5
ATOM      5  C   UNL     1       2.918   5.286  17.861  0.00  0.00    +0.000 A 
ATOM      6  C   UNL     1       1.723   4.552  17.852  0.00  0.00    +0.000 A 
ATOM      7  C   UNL     1       1.729   3.159  17.978  0.00  0.00    +0.000 A 
ATOM      8  C   UNL     1       2.933   2.469  18.010  0.00  0.00    +0.000 A 
ATOM      9  C   UNL     1       4.131   3.176  17.968  0.00  0.00    +0.000 A 
ATOM     10  C   UNL     1       4.154   4.596  17.964  0.00  0.00    +0.000 A 
BRANCH  10  11
ATOM     11  C   UNL     1       5.459   5.286  18.061  0.00  0.00    +0.000 A 
ATOM     12  C   UNL     1       5.899   6.196  17.087  0.00  0.00    +0.000 A 
ATOM     13  C   UNL     1       7.079   6.910  17.227  0.00  0.00    +0.000 A 
ATOM     14  C   UNL     1       7.864   6.716  18.354  0.00  0.00    +0.000 A 
ATOM     15  C   UNL     1       7.468   5.812  19.335  0.00  0.00    +0.000 A 
ATOM     16  C   UNL     1       6.282   5.097  19.180  0.00  0.00    +0.000 A 
ENDBRANCH  10  11
ENDBRANCH   3   5
BRANCH   2  17
ATOM     17  C   UNL     1       2.212   8.950  18.632  0.00  0.00    +0.000 C 
BRANCH  17  18
ATOM     18  C   UNL     1       1.009   9.184  17.721  0.00  0.00    +0.000 C 
BRANCH  18  19
ATOM     19  C   UNL     1      -0.006  10.069  18.384  0.00  0.00    +0.000 A 
ATOM     20  C   UNL     1       0.143  10.730  19.588  0.00  0.00    +0.000 A 
ATOM     21  N   UNL     1      -1.007  11.429  19.841  0.00  0.00    +0.000 N 
ATOM     22  C   UNL     1      -1.930  11.206  18.847  0.00  0.00    +0.000 A 
ATOM     23  C   UNL     1      -3.236  11.691  18.703  0.00  0.00    +0.000 A 
ATOM     24  C   UNL     1      -3.963  11.271  17.585  0.00  0.00    +0.000 A 
ATOM     25  C   UNL     1      -3.404  10.405  16.648  0.00  0.00    +0.000 A 
ATOM     26  C   UNL     1      -2.091   9.945  16.800  0.00  0.00    +0.000 A 
ATOM     27  C   UNL     1      -1.334  10.349  17.920  0.00  0.00    +0.000 A 
ATOM     28  H   UNL     1      -1.167  12.013  20.651  0.00  0.00    +0.000 HD
ENDBRANCH  18  19
ENDBRANCH  17  18
ENDBRANCH   2  17
TORSDOF 5
ENDMDL
MODEL 4
REMARK VINA RESULT:      -8.7      1.471      1.516
REMARK  Name = 
REMARK  5 active torsions:
REMARK  status: ('A' for Active; 'I' for Inactive)
REMARK    1  A    between atoms: C_2  and  C_3
REMARK    2  A    between atoms: C_3  and  C_4
REMARK    3  A    between atoms: C_4  and  C_5
REMARK    4  A    between atoms: N_14  and  C_15
REMARK    5  A    between atoms: C_20  and  C_21
REMARK                            x       y       z     vdW  Elec       q    Type
REMARK                         _______ _______ _______ _____ _____    ______ ____
ROOT
ATOM      1  O   UNL     1       1.959   6.076  17.656  0.00  0.00    +0.000 OA
ATOM      2  C   UNL     1       2.442   6.813  18.472  0.00  0.00    +0.000 C 
ATOM      3  N   UNL     1       2.894   6.367  19.712  0.00  0.00    +0.000 N 
ATOM      4  H   UNL     1       3.228   7.067  20.368  0.00  0.00    +0.000 HD
ENDROOT
BRANCH   3   5
ATOM      5  C   UNL     1       2.916   5.012  20.122  0.00  0.00    +0.000 A 
ATOM      6  C   UNL     1       1.972   4.570  21.061  0.00  0.00    +0.000 A 
ATOM      7  C   UNL     1       2.032   3.280  21.596  0.00  0.00    +0.000 A 
ATOM      8  C   UNL     1       2.975   2.376  21.126  0.00  0.00    +0.000 A 
ATOM      9  C   UNL     1       3.890   2.779  20.158  0.00  0.00    +0.000 A 
ATOM     10  C   UNL     1       3.929   4.118  19.685  0.00  0.00    +0.000 A 
BRANCH  10  11
ATOM     11  C   UNL     1       5.014   4.514  18.761  0.00  0.00    +0.000 A 
ATOM     12  C   UNL     1       6.149   5.215  19.198  0.00  0.00    +0.000 A 
ATOM     13  C   UNL     1       7.207   5.503  18.350  0.00  0.00    +0.000 A 
ATOM     14  C   UNL     1       7.144   5.106  17.021  0.00  0.00    +0.000 A 
ATOM     15  C   UNL     1       6.028   4.422  16.549  0.00  0.00    +0.000 A 
ATOM     16  C   UNL     1       4.970   4.142  17.411  0.00  0.00    +0.000 A 
ENDBRANCH  10  11
ENDBRANCH   3   5
BRANCH   2  17
ATOM     17  C   UNL     1       2.739   8.281  18.174  0.00  0.00    +0.000 C 
BRANCH  17  18
ATOM     18  C   UNL     1       1.479   9.061  17.805  0.00  0.00    +0.000 C 
BRANCH  18  19
ATOM     19  C   UNL     1       1.154  10.087  18.852  0.00  0.00    +0.000 A 
ATOM     20  C   UNL     1       1.387  11.446  18.769  0.00  0.00    +0.000 A 
ATOM     21  N   UNL     1       0.948  12.031  19.927  0.00  0.00    +0.000 N 
ATOM     22  C   UNL     1       0.470  11.075  20.792  0.00  0.00    +0.000 A 
ATOM     23  C   UNL     1      -0.053  11.209  22.084  0.00  0.00    +0.000 A 
ATOM     24  C   UNL     1      -0.445  10.043  22.748  0.00  0.00    +0.000 A 
ATOM     25  C   UNL     1      -0.324   8.795  22.141  0.00  0.00    +0.000 A 
ATOM     26  C   UNL     1       0.185   8.683  20.842  0.00  0.00    +0.000 A 
ATOM     27  C   UNL     1       0.593   9.842  20.149  0.00  0.00    +0.000 A 
ATOM     28  H   UNL     1       0.986  13.021  20.131  0.00  0.00    +0.000 HD
ENDBRANCH  18  19
ENDBRANCH  17  18
ENDBRANCH   2  17
TORSDOF 5
ENDMDL
MODEL 5
REMARK VINA RESULT:      -8.6      1.490      1.781
REMARK  Name = 
REMARK  5 active torsions:
REMARK  status: ('A' for Active; 'I' for Inactive)
REMARK    1  A    between atoms: C_2  and  C_3
REMARK    2  A    between atoms: C_3  and  C_4
REMARK    3  A    between atoms: C_4  and  C_5
REMARK    4  A    between atoms: N_14  and  C_15
REMARK    5  A    between atoms: C_20  and  C_21
REMARK                            x       y       z     vdW  Elec       q    Type
REMARK                         _______ _______ _______ _____ _____    ______ ____
ROOT
ATOM      1  O   UNL     1       1.811   6.337  17.768  0.00  0.00    +0.000 OA
ATOM      2  C   UNL     1       2.350   7.020  18.596  0.00  0.00    +0.000 C 
ATOM      3  N   UNL     1       2.966   6.485  19.725  0.00  0.00    +0.000 N 
ATOM      4  H   UNL     1       3.340   7.138  20.408  0.00  0.00    +0.000 HD
ENDROOT
BRANCH   3   5
ATOM      5  C   UNL     1       3.104   5.101  19.989  0.00  0.00    +0.000 A 
ATOM      6  C   UNL     1       2.190   4.480  20.854  0.00  0.00    +0.000 A 
ATOM      7  C   UNL     1       2.358   3.150  21.250  0.00  0.00    +0.000 A 
ATOM      8  C   UNL     1       3.383   2.387  20.707  0.00  0.00    +0.000 A 
ATOM      9  C   UNL     1       4.271   2.970  19.808  0.00  0.00    +0.000 A 
ATOM     10  C   UNL     1       4.197   4.350  19.482  0.00  0.00    +0.000 A 
BRANCH  10  11
ATOM     11  C   UNL     1       5.254   4.937  18.629  0.00  0.00    +0.000 A 
ATOM     12  C   UNL     1       5.103   5.078  17.241  0.00  0.00    +0.000 A 
ATOM     13  C   UNL     1       6.055   5.713  16.458  0.00  0.00    +0.000 A 
ATOM     14  C   UNL     1       7.204   6.213  17.054  0.00  0.00    +0.000 A 
ATOM     15  C   UNL     1       7.395   6.080  18.426  0.00  0.00    +0.000 A 
ATOM     16  C   UNL     1       6.433   5.436  19.200  0.00  0.00    +0.000 A 
ENDBRANCH  10  11
ENDBRANCH   3   5
BRANCH   2  17
ATOM     17  C   UNL     1       2.537   8.526  18.420  0.00  0.00    +0.000 C 
BRANCH  17  18
ATOM     18  C   UNL     1       1.244   9.223  18.002  0.00  0.00    +0.000 C 
BRANCH  18  19
ATOM     19  C   UNL     1       0.831  10.248  19.018  0.00  0.00    +0.000 A 
ATOM     20  C   UNL     1       0.898  11.620  18.874  0.00  0.00    +0.000 A 
ATOM     21  N   UNL     1       0.428  12.198  20.023  0.00  0.00    +0.000 N 
ATOM     22  C   UNL     1       0.093  11.231  20.941  0.00  0.00    +0.000 A 
ATOM     23  C   UNL     1      -0.403  11.357  22.244  0.00  0.00    +0.000 A 
ATOM     24  C   UNL     1      -0.633  10.183  22.967  0.00  0.00    +0.000 A 
ATOM     25  C   UNL     1      -0.383   8.934  22.405  0.00  0.00    +0.000 A 
ATOM     26  C   UNL     1       0.097   8.826  21.095  0.00  0.00    +0.000 A 
ATOM     27  C   UNL     1       0.342   9.994  20.343  0.00  0.00    +0.000 A 
ATOM     28  H   UNL     1       0.353  13.193  20.186  0.00  0.00    +0.000 HD
ENDBRANCH  18  19
ENDBRANCH  17  18
ENDBRANCH   2  17
TORSDOF 5
ENDMDL
MODEL 6
REMARK VINA RESULT:      -8.6      0.573      1.098
REMARK  Name = 
REMARK  5 active torsions:
REMARK  status: ('A' for Active; 'I' for Inactive)
REMARK    1  A    between atoms: C_2  and  C_3
REMARK    2  A    between atoms: C_3  and  C_4
REMARK    3  A    between atoms: C_4  and  C_5
REMARK    4  A    between atoms: N_14  and  C_15
REMARK    5  A    between atoms: C_20  and  C_21
REMARK                            x       y       z     vdW  Elec       q    Type
REMARK                         _______ _______ _______ _____ _____    ______ ____
ROOT
ATOM      1  O   UNL     1       2.524   7.156  20.026  0.00  0.00    +0.000 OA
ATOM      2  C   UNL     1       2.501   7.185  18.826  0.00  0.00    +0.000 C 
ATOM      3  N   UNL     1       2.458   6.030  18.048  0.00  0.00    +0.000 N 
ATOM      4  H   UNL     1       2.508   6.142  17.040  0.00  0.00    +0.000 HD
ENDROOT
BRANCH   3   5
ATOM      5  C   UNL     1       2.355   4.715  18.563  0.00  0.00    +0.000 A 
ATOM      6  C   UNL     1       1.183   4.340  19.239  0.00  0.00    +0.000 A 
ATOM      7  C   UNL     1       1.082   3.101  19.879  0.00  0.00    +0.000 A 
ATOM      8  C   UNL     1       2.111   2.174  19.766  0.00  0.00    +0.000 A 
ATOM      9  C   UNL     1       3.260   2.508  19.057  0.00  0.00    +0.000 A 
ATOM     10  C   UNL     1       3.440   3.802  18.501  0.00  0.00    +0.000 A 
BRANCH  10  11
ATOM     11  C   UNL     1       4.742   4.136  17.881  0.00  0.00    +0.000 A 
ATOM     12  C   UNL     1       4.971   4.002  16.503  0.00  0.00    +0.000 A 
ATOM     13  C   UNL     1       6.159   4.403  15.913  0.00  0.00    +0.000 A 
ATOM     14  C   UNL     1       7.166   4.939  16.702  0.00  0.00    +0.000 A 
ATOM     15  C   UNL     1       6.981   5.074  18.075  0.00  0.00    +0.000 A 
ATOM     16  C   UNL     1       5.784   4.663  18.656  0.00  0.00    +0.000 A 
ENDBRANCH  10  11
ENDBRANCH   3   5
BRANCH   2  17
ATOM     17  C   UNL     1       2.372   8.489  18.041  0.00  0.00    +0.000 C 
BRANCH  17  18
ATOM     18  C   UNL     1       0.931   8.992  17.991  0.00  0.00    +0.000 C 
BRANCH  18  19
ATOM     19  C   UNL     1       0.706  10.085  18.995  0.00  0.00    +0.000 A 
ATOM     20  C   UNL     1       0.967  11.429  18.817  0.00  0.00    +0.000 A 
ATOM     21  N   UNL     1       0.625  12.091  19.966  0.00  0.00    +0.000 N 
ATOM     22  C   UNL     1       0.184  11.200  20.916  0.00  0.00    +0.000 A 
ATOM     23  C   UNL     1      -0.244  11.422  22.231  0.00  0.00    +0.000 A 
ATOM     24  C   UNL     1      -0.619  10.308  22.987  0.00  0.00    +0.000 A 
ATOM     25  C   UNL     1      -0.572   9.025  22.447  0.00  0.00    +0.000 A 
ATOM     26  C   UNL     1      -0.157   8.824  21.125  0.00  0.00    +0.000 A 
ATOM     27  C   UNL     1       0.230   9.930  20.340  0.00  0.00    +0.000 A 
ATOM     28  H   UNL     1       0.702  13.089  20.108  0.00  0.00    +0.000 HD
ENDBRANCH  18  19
ENDBRANCH  17  18
ENDBRANCH   2  17
TORSDOF 5
ENDMDL
MODEL 7
REMARK VINA RESULT:      -8.5      1.866      2.512
REMARK  Name = 
REMARK  5 active torsions:
REMARK  status: ('A' for Active; 'I' for Inactive)
REMARK    1  A    between atoms: C_2  and  C_3
REMARK    2  A    between atoms: C_3  and  C_4
REMARK    3  A    between atoms: C_4  and  C_5
REMARK    4  A    between atoms: N_14  and  C_15
REMARK    5  A    between atoms: C_20  and  C_21
REMARK                            x       y       z     vdW  Elec       q    Type
REMARK                         _______ _______ _______ _____ _____    ______ ____
ROOT
ATOM      1  O   UNL     1       2.287   7.275  20.102  0.00  0.00    +0.000 OA
ATOM      2  C   UNL     1       2.493   7.337  18.921  0.00  0.00    +0.000 C 
ATOM      3  N   UNL     1       2.672   6.205  18.129  0.00  0.00    +0.000 N 
ATOM      4  H   UNL     1       2.908   6.349  17.152  0.00  0.00    +0.000 HD
ENDROOT
BRANCH   3   5
ATOM      5  C   UNL     1       2.552   4.871  18.592  0.00  0.00    +0.000 A 
ATOM      6  C   UNL     1       1.298   4.411  19.019  0.00  0.00    +0.000 A 
ATOM      7  C   UNL     1       1.152   3.150  19.606  0.00  0.00    +0.000 A 
ATOM      8  C   UNL     1       2.238   2.288  19.681  0.00  0.00    +0.000 A 
ATOM      9  C   UNL     1       3.480   2.707  19.215  0.00  0.00    +0.000 A 
ATOM     10  C   UNL     1       3.684   4.025  18.727  0.00  0.00    +0.000 A 
BRANCH  10  11
ATOM     11  C   UNL     1       5.058   4.451  18.379  0.00  0.00    +0.000 A 
ATOM     12  C   UNL     1       5.600   4.256  17.100  0.00  0.00    +0.000 A 
ATOM     13  C   UNL     1       6.852   4.738  16.750  0.00  0.00    +0.000 A 
ATOM     14  C   UNL     1       7.606   5.423  17.692  0.00  0.00    +0.000 A 
ATOM     15  C   UNL     1       7.108   5.623  18.975  0.00  0.00    +0.000 A 
ATOM     16  C   UNL     1       5.850   5.129  19.315  0.00  0.00    +0.000 A 
ENDBRANCH  10  11
ENDBRANCH   3   5
BRANCH   2  17
ATOM     17  C   UNL     1       2.438   8.654  18.148  0.00  0.00    +0.000 C 
BRANCH  17  18
ATOM     18  C   UNL     1       1.065   8.900  17.526  0.00  0.00    +0.000 C 
BRANCH  18  19
ATOM     19  C   UNL     1       0.289   9.914  18.315  0.00  0.00    +0.000 A 
ATOM     20  C   UNL     1       0.733  10.607  19.424  0.00  0.00    +0.000 A 
ATOM     21  N   UNL     1      -0.272  11.433  19.849  0.00  0.00    +0.000 N 
ATOM     22  C   UNL     1      -1.390  11.264  19.067  0.00  0.00    +0.000 A 
ATOM     23  C   UNL     1      -2.647  11.877  19.146  0.00  0.00    +0.000 A 
ATOM     24  C   UNL     1      -3.617  11.488  18.217  0.00  0.00    +0.000 A 
ATOM     25  C   UNL     1      -3.338  10.529  17.246  0.00  0.00    +0.000 A 
ATOM     26  C   UNL     1      -2.070   9.941  17.172  0.00  0.00    +0.000 A 
ATOM     27  C   UNL     1      -1.073  10.311  18.098  0.00  0.00    +0.000 A 
ATOM     28  H   UNL     1      -0.214  12.064  20.637  0.00  0.00    +0.000 HD
ENDBRANCH  18  19
ENDBRANCH  17  18
ENDBRANCH   2  17
TORSDOF 5
ENDMDL
MODEL 8
REMARK VINA RESULT:      -8.5      2.179      2.775
REMARK  Name = 
REMARK  5 active torsions:
REMARK  status: ('A' for Active; 'I' for Inactive)
REMARK    1  A    between atoms: C_2  and  C_3
REMARK    2  A    between atoms: C_3  and  C_4
REMARK    3  A    between atoms: C_4  and  C_5
REMARK    4  A    between atoms: N_14  and  C_15
REMARK    5  A    between atoms: C_20  and  C_21
REMARK                            x       y       z     vdW  Elec       q    Type
REMARK                         _______ _______ _______ _____ _____    ______ ____
ROOT
ATOM      1  O   UNL     1       1.888   6.126  17.762  0.00  0.00    +0.000 OA
ATOM      2  C   UNL     1       2.375   6.816  18.616  0.00  0.00    +0.000 C 
ATOM      3  N   UNL     1       2.971   6.287  19.759  0.00  0.00    +0.000 N 
ATOM      4  H   UNL     1       3.298   6.942  20.462  0.00  0.00    +0.000 HD
ENDROOT
BRANCH   3   5
ATOM      5  C   UNL     1       3.147   4.904  20.009  0.00  0.00    +0.000 A 
ATOM      6  C   UNL     1       2.259   4.252  20.877  0.00  0.00    +0.000 A 
ATOM      7  C   UNL     1       2.465   2.923  21.260  0.00  0.00    +0.000 A 
ATOM      8  C   UNL     1       3.506   2.192  20.701  0.00  0.00    +0.000 A 
ATOM      9  C   UNL     1       4.369   2.807  19.799  0.00  0.00    +0.000 A 
ATOM     10  C   UNL     1       4.255   4.188  19.486  0.00  0.00    +0.000 A 
BRANCH  10  11
ATOM     11  C   UNL     1       5.289   4.810  18.630  0.00  0.00    +0.000 A 
ATOM     12  C   UNL     1       5.166   4.872  17.233  0.00  0.00    +0.000 A 
ATOM     13  C   UNL     1       6.089   5.537  16.441  0.00  0.00    +0.000 A 
ATOM     14  C   UNL     1       7.182   6.150  17.038  0.00  0.00    +0.000 A 
ATOM     15  C   UNL     1       7.346   6.098  18.418  0.00  0.00    +0.000 A 
ATOM     16  C   UNL     1       6.412   5.423  19.202  0.00  0.00    +0.000 A 
ENDBRANCH  10  11
ENDBRANCH   3   5
BRANCH   2  17
ATOM     17  C   UNL     1       2.515   8.329  18.465  0.00  0.00    +0.000 C 
BRANCH  17  18
ATOM     18  C   UNL     1       1.407   8.928  17.602  0.00  0.00    +0.000 C 
BRANCH  18  19
ATOM     19  C   UNL     1       0.558   9.879  18.396  0.00  0.00    +0.000 A 
ATOM     20  C   UNL     1       0.918  10.519  19.566  0.00  0.00    +0.000 A 
ATOM     21  N   UNL     1      -0.133  11.297  19.973  0.00  0.00    +0.000 N 
ATOM     22  C   UNL     1      -1.198  11.146  19.117  0.00  0.00    +0.000 A 
ATOM     23  C   UNL     1      -2.473  11.723  19.152  0.00  0.00    +0.000 A 
ATOM     24  C   UNL     1      -3.376  11.363  18.148  0.00  0.00    +0.000 A 
ATOM     25  C   UNL     1      -3.014  10.466  17.145  0.00  0.00    +0.000 A 
ATOM     26  C   UNL     1      -1.729   9.913  17.116  0.00  0.00    +0.000 A 
ATOM     27  C   UNL     1      -0.798  10.255  18.119  0.00  0.00    +0.000 A 
ATOM     28  H   UNL     1      -0.138  11.885  20.796  0.00  0.00    +0.000 HD
ENDBRANCH  18  19
ENDBRANCH  17  18
ENDBRANCH   2  17
TORSDOF 5
ENDMDL
MODEL 9
REMARK VINA RESULT:      -8.5      2.430      4.278
REMARK  Name = 
REMARK  5 active torsions:
REMARK  status: ('A' for Active; 'I' for Inactive)
REMARK    1  A    between atoms: C_2  and  C_3
REMARK    2  A    between atoms: C_3  and  C_4
REMARK    3  A    between atoms: C_4  and  C_5
REMARK    4  A    between atoms: N_14  and  C_15
REMARK    5  A    between atoms: C_20  and  C_21
REMARK                            x       y       z     vdW  Elec       q    Type
REMARK                         _______ _______ _______ _____ _____    ______ ____
ROOT
ATOM      1  O   UNL     1       2.214   8.754  17.083  0.00  0.00    +0.000 OA
ATOM      2  C   UNL     1       2.071   8.346  18.204  0.00  0.00    +0.000 C 
ATOM      3  N   UNL     1       2.674   7.176  18.659  0.00  0.00    +0.000 N 
ATOM      4  H   UNL     1       2.448   6.868  19.600  0.00  0.00    +0.000 HD
ENDROOT
BRANCH   3   5
ATOM      5  C   UNL     1       3.575   6.386  17.904  0.00  0.00    +0.000 A 
ATOM      6  C   UNL     1       4.379   7.010  16.937  0.00  0.00    +0.000 A 
ATOM      7  C   UNL     1       5.187   6.261  16.076  0.00  0.00    +0.000 A 
ATOM      8  C   UNL     1       5.284   4.885  16.234  0.00  0.00    +0.000 A 
ATOM      9  C   UNL     1       4.533   4.253  17.221  0.00  0.00    +0.000 A 
ATOM     10  C   UNL     1       3.613   4.973  18.029  0.00  0.00    +0.000 A 
BRANCH  10  11
ATOM     11  C   UNL     1       2.745   4.220  18.961  0.00  0.00    +0.000 A 
ATOM     12  C   UNL     1       2.978   4.196  20.345  0.00  0.00    +0.000 A 
ATOM     13  C   UNL     1       2.111   3.568  21.226  0.00  0.00    +0.000 A 
ATOM     14  C   UNL     1       0.984   2.926  20.732  0.00  0.00    +0.000 A 
ATOM     15  C   UNL     1       0.727   2.917  19.365  0.00  0.00    +0.000 A 
ATOM     16  C   UNL     1       1.609   3.549  18.490  0.00  0.00    +0.000 A 
ENDBRANCH  10  11
ENDBRANCH   3   5
BRANCH   2  17
ATOM     17  C   UNL     1       1.333   9.143  19.277  0.00  0.00    +0.000 C 
BRANCH  17  18
ATOM     18  C   UNL     1       1.227  10.625  18.924  0.00  0.00    +0.000 C 
BRANCH  18  19
ATOM     19  C   UNL     1      -0.176  11.126  19.112  0.00  0.00    +0.000 A 
ATOM     20  C   UNL     1      -0.626  11.946  20.128  0.00  0.00    +0.000 A 
ATOM     21  N   UNL     1      -1.963  12.171  19.941  0.00  0.00    +0.000 N 
ATOM     22  C   UNL     1      -2.415  11.477  18.843  0.00  0.00    +0.000 A 
ATOM     23  C   UNL     1      -3.701  11.393  18.295  0.00  0.00    +0.000 A 
ATOM     24  C   UNL     1      -3.875  10.580  17.172  0.00  0.00    +0.000 A 
ATOM     25  C   UNL     1      -2.803   9.884  16.617  0.00  0.00    +0.000 A 
ATOM     26  C   UNL     1      -1.521   9.993  17.168  0.00  0.00    +0.000 A 
ATOM     27  C   UNL     1      -1.317  10.804  18.304  0.00  0.00    +0.000 A 
ATOM     28  H   UNL     1      -2.545  12.748  20.534  0.00  0.00    +0.000 HD
ENDBRANCH  18  19
ENDBRANCH  17  18
ENDBRANCH   2  17
TORSDOF 5
ENDMDL
