MODEL 1
REMARK VINA RESULT:      -8.5      0.000      0.000
REMARK  Name = 
REMARK  6 active torsions:
REMARK  status: ('A' for Active; 'I' for Inactive)
REMARK    1  A    between atoms: C_1  and  C_2
REMARK    2  A    between atoms: C_4  and  C_5
REMARK    3  A    between atoms: C_5  and  O_6
REMARK    4  A    between atoms: O_6  and  C_7
REMARK    5  A    between atoms: C_10  and  C_11
REMARK    6  A    between atoms: N_13  and  C_14
REMARK                            x       y       z     vdW  Elec       q    Type
REMARK                         _______ _______ _______ _____ _____    ______ ____
ROOT
ATOM      1  C   UNL     1       1.889   8.319  18.976  0.00  0.00    +0.000 C 
ATOM      2  O   UNL     1       1.879   8.816  17.854  0.00  0.00    +0.000 OA
ATOM      3  N   UNL     1       2.438   7.089  19.327  0.00  0.00    +0.000 N 
ATOM      4  H   UNL     1       2.161   6.685  20.213  0.00  0.00    +0.000 HD
ENDROOT
BRANCH   3   5
ATOM      5  C   UNL     1       3.175   6.267  18.442  0.00  0.00    +0.000 A 
ATOM      6  C   UNL     1       2.791   4.933  18.183  0.00  0.00    +0.000 A 
ATOM      7  C   UNL     1       3.603   4.042  17.490  0.00  0.00    +0.000 A 
ATOM      8  C   UNL     1       4.758   4.564  16.979  0.00  0.00    +0.000 A 
ATOM      9  N   UNL     1       5.762   3.930  16.260  0.00  0.00    +0.000 N 
ATOM     10  C   UNL     1       6.628   4.902  15.765  0.00  0.00    +0.000 A 
ATOM     11  O   UNL     1       7.578   4.712  15.018  0.00  0.00    +0.000 OA
ATOM     12  N   UNL     1       6.205   6.131  16.290  0.00  0.00    +0.000 N 
ATOM     13  C   UNL     1       5.064   5.922  17.064  0.00  0.00    +0.000 A 
ATOM     14  C   UNL     1       4.338   6.787  17.849  0.00  0.00    +0.000 A 
ATOM     15  H   UNL     1       6.058   2.980  16.419  0.00  0.00    +0.000 HD
ATOM     16  H   UNL     1       6.676   6.997  16.096  0.00  0.00    +0.000 HD
ENDBRANCH   3   5
BRANCH   1  20
ATOM     17  C   UNL     1      -0.150  10.422  22.094  0.00  0.00    +0.000 A 
ATOM     18  C   UNL     1       0.192   9.082  22.245  0.00  0.00    +0.000 A 
ATOM     19  C   UNL     1       0.865   8.418  21.223  0.00  0.00    +0.000 A 
ATOM     20  C   UNL     1       1.195   9.091  20.036  0.00  0.00    +0.000 A 
ATOM     21  C   UNL     1       0.801  10.418  19.861  0.00  0.00    +0.000 A 
ATOM     22  C   UNL     1       0.124  11.079  20.889  0.00  0.00    +0.000 A 
BRANCH  17  23
ATOM     23  O   UNL     1      -0.766  10.992  23.173  0.00  0.00    +0.000 OA
BRANCH  23  24
ATOM     24  C   UNL     1      -1.209  12.339  22.970  0.00  0.00    +0.000 C 
BRANCH  24  28
ATOM     25  C   UNL     1      -5.740  12.945  21.085  0.00  0.00    +0.000 C 
ATOM     26  C   UNL     1      -4.558  12.677  21.929  0.00  0.00    +0.000 A 
ATOM     27  N   UNL     1      -3.284  12.783  21.634  0.00  0.00    +0.000 NA
ATOM     28  C   UNL     1      -2.686  12.413  22.815  0.00  0.00    +0.000 A 
ATOM     29  N   UNL     1      -3.534  12.067  23.789  0.00  0.00    +0.000 NA
ATOM     30  O   UNL     1      -4.789  12.248  23.203  0.00  0.00    +0.000 OA
ENDBRANCH  24  28
ENDBRANCH  23  24
ENDBRANCH  17  23
ENDBRANCH   1  20
TORSDOF 5
ENDMDL
MODEL 2
REMARK VINA RESULT:      -8.4      2.889     10.563
REMARK  Name = 
REMARK  6 active torsions:
REMARK  status: ('A' for Active; 'I' for Inactive)
REMARK    1  A    between atoms: C_1  and  C_2
REMARK    2  A    between atoms: C_4  and  C_5
REMARK    3  A    between atoms: C_5  and  O_6
REMARK    4  A    between atoms: O_6  and  C_7
REMARK    5  A    between atoms: C_10  and  C_11
REMARK    6  A    between atoms: N_13  and  C_14
REMARK                            x       y       z     vdW  Elec       q    Type
REMARK                         _______ _______ _______ _____ _____    ______ ____
ROOT
ATOM      1  C   UNL     1       1.838   8.261  19.262  0.00  0.00    +0.000 C 
ATOM      2  O   UNL     1       1.474   8.140  20.428  0.00  0.00    +0.000 OA
ATOM      3  N   UNL     1       1.394   9.220  18.357  0.00  0.00    +0.000 N 
ATOM      4  H   UNL     1       1.573   9.059  17.374  0.00  0.00    +0.000 HD
ENDROOT
BRANCH   3   5
ATOM      5  C   UNL     1       0.520  10.282  18.690  0.00  0.00    +0.000 A 
ATOM      6  C   UNL     1      -0.847  10.249  18.340  0.00  0.00    +0.000 A 
ATOM      7  C   UNL     1      -1.679  11.357  18.464  0.00  0.00    +0.000 A 
ATOM      8  C   UNL     1      -1.118  12.458  19.047  0.00  0.00    +0.000 A 
ATOM      9  N   UNL     1      -1.685  13.701  19.295  0.00  0.00    +0.000 N 
ATOM     10  C   UNL     1      -0.811  14.429  20.098  0.00  0.00    +0.000 A 
ATOM     11  O   UNL     1      -1.021  15.534  20.581  0.00  0.00    +0.000 OA
ATOM     12  N   UNL     1       0.351  13.658  20.241  0.00  0.00    +0.000 N 
ATOM     13  C   UNL     1       0.175  12.448  19.569  0.00  0.00    +0.000 A 
ATOM     14  C   UNL     1       1.047  11.409  19.343  0.00  0.00    +0.000 A 
ATOM     15  H   UNL     1      -2.354  14.149  18.689  0.00  0.00    +0.000 HD
ATOM     16  H   UNL     1       1.149  13.967  20.768  0.00  0.00    +0.000 HD
ENDBRANCH   3   5
BRANCH   1  20
ATOM     17  C   UNL     1       4.620   5.276  17.979  0.00  0.00    +0.000 A 
ATOM     18  C   UNL     1       3.900   5.117  19.158  0.00  0.00    +0.000 A 
ATOM     19  C   UNL     1       2.990   6.095  19.553  0.00  0.00    +0.000 A 
ATOM     20  C   UNL     1       2.801   7.246  18.772  0.00  0.00    +0.000 A 
ATOM     21  C   UNL     1       3.566   7.433  17.620  0.00  0.00    +0.000 A 
ATOM     22  C   UNL     1       4.479   6.449  17.229  0.00  0.00    +0.000 A 
BRANCH  17  23
ATOM     23  O   UNL     1       5.450   4.238  17.658  0.00  0.00    +0.000 OA
BRANCH  23  24
ATOM     24  C   UNL     1       6.756   4.627  17.215  0.00  0.00    +0.000 C 
BRANCH  24  28
ATOM     25  C   UNL     1       6.133   3.479  12.446  0.00  0.00    +0.000 C 
ATOM     26  C   UNL     1       6.521   4.065  13.745  0.00  0.00    +0.000 A 
ATOM     27  N   UNL     1       6.177   3.701  14.958  0.00  0.00    +0.000 NA
ATOM     28  C   UNL     1       6.858   4.610  15.732  0.00  0.00    +0.000 A 
ATOM     29  N   UNL     1       7.568   5.511  15.045  0.00  0.00    +0.000 NA
ATOM     30  O   UNL     1       7.351   5.146  13.715  0.00  0.00    +0.000 OA
ENDBRANCH  24  28
ENDBRANCH  23  24
ENDBRANCH  17  23
ENDBRANCH   1  20
TORSDOF 5
ENDMDL
MODEL 3
REMARK VINA RESULT:      -8.4      3.097     10.471
REMARK  Name = 
REMARK  6 active torsions:
REMARK  status: ('A' for Active; 'I' for Inactive)
REMARK    1  A    between atoms: C_1  and  C_2
REMARK    2  A    between atoms: C_4  and  C_5
REMARK    3  A    between atoms: C_5  and  O_6
REMARK    4  A    between atoms: O_6  and  C_7
REMARK    5  A    between atoms: C_10  and  C_11
REMARK    6  A    between atoms: N_13  and  C_14
REMARK                            x       y       z     vdW  Elec       q    Type
REMARK                         _______ _______ _______ _____ _____    ______ ____
ROOT
ATOM      1  C   UNL     1       1.807   8.237  19.447  0.00  0.00    +0.000 C 
ATOM      2  O   UNL     1       1.382   8.226  20.599  0.00  0.00    +0.000 OA
ATOM      3  N   UNL     1       1.498   9.174  18.465  0.00  0.00    +0.000 N 
ATOM      4  H   UNL     1       1.704   8.934  17.504  0.00  0.00    +0.000 HD
ENDROOT
BRANCH   3   5
ATOM      5  C   UNL     1       0.720  10.334  18.691  0.00  0.00    +0.000 A 
ATOM      6  C   UNL     1      -0.651  10.378  18.354  0.00  0.00    +0.000 A 
ATOM      7  C   UNL     1      -1.387  11.559  18.367  0.00  0.00    +0.000 A 
ATOM      8  C   UNL     1      -0.729  12.664  18.828  0.00  0.00    +0.000 A 
ATOM      9  N   UNL     1      -1.188  13.968  18.949  0.00  0.00    +0.000 N 
ATOM     10  C   UNL     1      -0.245  14.701  19.666  0.00  0.00    +0.000 A 
ATOM     11  O   UNL     1      -0.358  15.863  20.031  0.00  0.00    +0.000 OA
ATOM     12  N   UNL     1       0.852  13.855  19.881  0.00  0.00    +0.000 N 
ATOM     13  C   UNL     1       0.566  12.601  19.341  0.00  0.00    +0.000 A 
ATOM     14  C   UNL     1       1.347  11.474  19.219  0.00  0.00    +0.000 A 
ATOM     15  H   UNL     1      -1.827  14.405  18.303  0.00  0.00    +0.000 HD
ATOM     16  H   UNL     1       1.680  14.150  20.367  0.00  0.00    +0.000 HD
ENDBRANCH   3   5
BRANCH   1  20
ATOM     17  C   UNL     1       4.343   5.020  18.216  0.00  0.00    +0.000 A 
ATOM     18  C   UNL     1       4.204   6.158  17.428  0.00  0.00    +0.000 A 
ATOM     19  C   UNL     1       3.382   7.199  17.851  0.00  0.00    +0.000 A 
ATOM     20  C   UNL     1       2.686   7.105  19.066  0.00  0.00    +0.000 A 
ATOM     21  C   UNL     1       2.779   5.939  19.828  0.00  0.00    +0.000 A 
ATOM     22  C   UNL     1       3.604   4.897  19.398  0.00  0.00    +0.000 A 
BRANCH  17  23
ATOM     23  O   UNL     1       5.209   4.078  17.733  0.00  0.00    +0.000 OA
BRANCH  23  24
ATOM     24  C   UNL     1       6.513   4.572  17.405  0.00  0.00    +0.000 C 
BRANCH  24  28
ATOM     25  C   UNL     1       6.250   3.631  12.558  0.00  0.00    +0.000 C 
ATOM     26  C   UNL     1       6.541   4.159  13.907  0.00  0.00    +0.000 A 
ATOM     27  N   UNL     1       6.105   3.747  15.073  0.00  0.00    +0.000 NA
ATOM     28  C   UNL     1       6.728   4.617  15.935  0.00  0.00    +0.000 A 
ATOM     29  N   UNL     1       7.492   5.542  15.343  0.00  0.00    +0.000 NA
ATOM     30  O   UNL     1       7.375   5.235  13.986  0.00  0.00    +0.000 OA
ENDBRANCH  24  28
ENDBRANCH  23  24
ENDBRANCH  17  23
ENDBRANCH   1  20
TORSDOF 5
ENDMDL
MODEL 4
REMARK VINA RESULT:      -8.3      2.393     10.639
REMARK  Name = 
REMARK  6 active torsions:
REMARK  status: ('A' for Active; 'I' for Inactive)
REMARK    1  A    between atoms: C_1  and  C_2
REMARK    2  A    between atoms: C_4  and  C_5
REMARK    3  A    between atoms: C_5  and  O_6
REMARK    4  A    between atoms: O_6  and  C_7
REMARK    5  A    between atoms: C_10  and  C_11
REMARK    6  A    between atoms: N_13  and  C_14
REMARK                            x       y       z     vdW  Elec       q    Type
REMARK                         _______ _______ _______ _____ _____    ______ ____
ROOT
ATOM      1  C   UNL     1       1.534   8.613  19.306  0.00  0.00    +0.000 C 
ATOM      2  O   UNL     1       1.293   8.644  20.510  0.00  0.00    +0.000 OA
ATOM      3  N   UNL     1       0.978   9.440  18.334  0.00  0.00    +0.000 N 
ATOM      4  H   UNL     1       1.060   9.151  17.368  0.00  0.00    +0.000 HD
ENDROOT
BRANCH   3   5
ATOM      5  C   UNL     1       0.118  10.528  18.615  0.00  0.00    +0.000 A 
ATOM      6  C   UNL     1       0.627  11.807  18.928  0.00  0.00    +0.000 A 
ATOM      7  C   UNL     1      -0.178  12.834  19.411  0.00  0.00    +0.000 A 
ATOM      8  C   UNL     1      -1.516  12.565  19.468  0.00  0.00    +0.000 A 
ATOM      9  N   UNL     1      -2.553  13.375  19.908  0.00  0.00    +0.000 N 
ATOM     10  C   UNL     1      -3.759  12.763  19.576  0.00  0.00    +0.000 A 
ATOM     11  O   UNL     1      -4.878  13.233  19.737  0.00  0.00    +0.000 OA
ATOM     12  N   UNL     1      -3.445  11.510  19.031  0.00  0.00    +0.000 N 
ATOM     13  C   UNL     1      -2.058  11.374  18.986  0.00  0.00    +0.000 A 
ATOM     14  C   UNL     1      -1.269  10.305  18.625  0.00  0.00    +0.000 A 
ATOM     15  H   UNL     1      -2.477  14.027  20.673  0.00  0.00    +0.000 HD
ATOM     16  H   UNL     1      -4.145  10.859  18.721  0.00  0.00    +0.000 HD
ENDBRANCH   3   5
BRANCH   1  20
ATOM     17  C   UNL     1       4.223   5.498  18.138  0.00  0.00    +0.000 A 
ATOM     18  C   UNL     1       3.499   5.406  19.322  0.00  0.00    +0.000 A 
ATOM     19  C   UNL     1       2.620   6.425  19.680  0.00  0.00    +0.000 A 
ATOM     20  C   UNL     1       2.466   7.551  18.855  0.00  0.00    +0.000 A 
ATOM     21  C   UNL     1       3.235   7.671  17.697  0.00  0.00    +0.000 A 
ATOM     22  C   UNL     1       4.117   6.645  17.344  0.00  0.00    +0.000 A 
BRANCH  17  23
ATOM     23  O   UNL     1       5.021   4.423  17.857  0.00  0.00    +0.000 OA
BRANCH  23  24
ATOM     24  C   UNL     1       6.395   4.744  17.607  0.00  0.00    +0.000 C 
BRANCH  24  28
ATOM     25  C   UNL     1       6.395   3.693  12.776  0.00  0.00    +0.000 C 
ATOM     26  C   UNL     1       6.621   4.244  14.127  0.00  0.00    +0.000 A 
ATOM     27  N   UNL     1       6.101   3.875  15.274  0.00  0.00    +0.000 NA
ATOM     28  C   UNL     1       6.700   4.746  16.152  0.00  0.00    +0.000 A 
ATOM     29  N   UNL     1       7.529   5.630  15.588  0.00  0.00    +0.000 NA
ATOM     30  O   UNL     1       7.485   5.294  14.233  0.00  0.00    +0.000 OA
ENDBRANCH  24  28
ENDBRANCH  23  24
ENDBRANCH  17  23
ENDBRANCH   1  20
TORSDOF 5
ENDMDL
MODEL 5
REMARK VINA RESULT:      -8.3      2.537     10.538
REMARK  Name = 
REMARK  6 active torsions:
REMARK  status: ('A' for Active; 'I' for Inactive)
REMARK    1  A    between atoms: C_1  and  C_2
REMARK    2  A    between atoms: C_4  and  C_5
REMARK    3  A    between atoms: C_5  and  O_6
REMARK    4  A    between atoms: O_6  and  C_7
REMARK    5  A    between atoms: C_10  and  C_11
REMARK    6  A    between atoms: N_13  and  C_14
REMARK                            x       y       z     vdW  Elec       q    Type
REMARK                         _______ _______ _______ _____ _____    ______ ____
ROOT
ATOM      1  C   UNL     1       1.823   8.950  18.494  0.00  0.00    +0.000 C 
ATOM      2  O   UNL     1       1.953   9.689  17.522  0.00  0.00    +0.000 OA
ATOM      3  N   UNL     1       1.030   9.193  19.612  0.00  0.00    +0.000 N 
ATOM      4  H   UNL     1       1.205   8.640  20.442  0.00  0.00    +0.000 HD
ENDROOT
BRANCH   3   5
ATOM      5  C   UNL     1       0.158  10.299  19.742  0.00  0.00    +0.000 A 
ATOM      6  C   UNL     1      -1.081  10.344  19.066  0.00  0.00    +0.000 A 
ATOM      7  C   UNL     1      -1.858  11.497  19.005  0.00  0.00    +0.000 A 
ATOM      8  C   UNL     1      -1.401  12.561  19.728  0.00  0.00    +0.000 A 
ATOM      9  N   UNL     1      -1.945  13.832  19.854  0.00  0.00    +0.000 N 
ATOM     10  C   UNL     1      -1.258  14.506  20.861  0.00  0.00    +0.000 A 
ATOM     11  O   UNL     1      -1.522  15.618  21.298  0.00  0.00    +0.000 OA
ATOM     12  N   UNL     1      -0.209  13.671  21.269  0.00  0.00    +0.000 N 
ATOM     13  C   UNL     1      -0.278  12.477  20.551  0.00  0.00    +0.000 A 
ATOM     14  C   UNL     1       0.567  11.391  20.526  0.00  0.00    +0.000 A 
ATOM     15  H   UNL     1      -2.420  14.320  19.111  0.00  0.00    +0.000 HD
ATOM     16  H   UNL     1       0.450  13.932  21.981  0.00  0.00    +0.000 HD
ENDBRANCH   3   5
BRANCH   1  20
ATOM     17  C   UNL     1       4.198   5.396  18.328  0.00  0.00    +0.000 A 
ATOM     18  C   UNL     1       4.239   6.328  17.295  0.00  0.00    +0.000 A 
ATOM     19  C   UNL     1       3.466   7.484  17.373  0.00  0.00    +0.000 A 
ATOM     20  C   UNL     1       2.640   7.712  18.485  0.00  0.00    +0.000 A 
ATOM     21  C   UNL     1       2.555   6.750  19.492  0.00  0.00    +0.000 A 
ATOM     22  C   UNL     1       3.331   5.591  19.408  0.00  0.00    +0.000 A 
BRANCH  17  23
ATOM     23  O   UNL     1       5.029   4.320  18.175  0.00  0.00    +0.000 OA
BRANCH  23  24
ATOM     24  C   UNL     1       6.397   4.650  17.909  0.00  0.00    +0.000 C 
BRANCH  24  28
ATOM     25  C   UNL     1       6.298   3.702  13.057  0.00  0.00    +0.000 C 
ATOM     26  C   UNL     1       6.558   4.219  14.416  0.00  0.00    +0.000 A 
ATOM     27  N   UNL     1       6.047   3.838  15.563  0.00  0.00    +0.000 NA
ATOM     28  C   UNL     1       6.680   4.676  16.450  0.00  0.00    +0.000 A 
ATOM     29  N   UNL     1       7.521   5.552  15.891  0.00  0.00    +0.000 NA
ATOM     30  O   UNL     1       7.447   5.246  14.530  0.00  0.00    +0.000 OA
ENDBRANCH  24  28
ENDBRANCH  23  24
ENDBRANCH  17  23
ENDBRANCH   1  20
TORSDOF 5
ENDMDL
MODEL 6
REMARK VINA RESULT:      -8.2      2.798     10.707
REMARK  Name = 
REMARK  6 active torsions:
REMARK  status: ('A' for Active; 'I' for Inactive)
REMARK    1  A    between atoms: C_1  and  C_2
REMARK    2  A    between atoms: C_4  and  C_5
REMARK    3  A    between atoms: C_5  and  O_6
REMARK    4  A    between atoms: O_6  and  C_7
REMARK    5  A    between atoms: C_10  and  C_11
REMARK    6  A    between atoms: N_13  and  C_14
REMARK                            x       y       z     vdW  Elec       q    Type
REMARK                         _______ _______ _______ _____ _____    ______ ____
ROOT
ATOM      1  C   UNL     1       1.462   8.495  19.094  0.00  0.00    +0.000 C 
ATOM      2  O   UNL     1       1.119   8.569  20.270  0.00  0.00    +0.000 OA
ATOM      3  N   UNL     1       0.866   9.149  18.020  0.00  0.00    +0.000 N 
ATOM      4  H   UNL     1       1.074   8.811  17.089  0.00  0.00    +0.000 HD
ENDROOT
BRANCH   3   5
ATOM      5  C   UNL     1      -0.176  10.098  18.147  0.00  0.00    +0.000 A 
ATOM      6  C   UNL     1       0.001  11.291  18.881  0.00  0.00    +0.000 A 
ATOM      7  C   UNL     1      -1.057  12.137  19.200  0.00  0.00    +0.000 A 
ATOM      8  C   UNL     1      -2.270  11.798  18.670  0.00  0.00    +0.000 A 
ATOM      9  N   UNL     1      -3.496  12.431  18.815  0.00  0.00    +0.000 N 
ATOM     10  C   UNL     1      -4.396  11.856  17.921  0.00  0.00    +0.000 A 
ATOM     11  O   UNL     1      -5.546  12.221  17.717  0.00  0.00    +0.000 OA
ATOM     12  N   UNL     1      -3.734  10.783  17.309  0.00  0.00    +0.000 N 
ATOM     13  C   UNL     1      -2.425  10.727  17.789  0.00  0.00    +0.000 A 
ATOM     14  C   UNL     1      -1.422   9.813  17.565  0.00  0.00    +0.000 A 
ATOM     15  H   UNL     1      -3.800  12.888  19.661  0.00  0.00    +0.000 HD
ATOM     16  H   UNL     1      -4.173  10.190  16.627  0.00  0.00    +0.000 HD
ENDBRANCH   3   5
BRANCH   1  20
ATOM     17  C   UNL     1       4.700   5.877  18.114  0.00  0.00    +0.000 A 
ATOM     18  C   UNL     1       4.383   6.955  17.293  0.00  0.00    +0.000 A 
ATOM     19  C   UNL     1       3.332   7.802  17.635  0.00  0.00    +0.000 A 
ATOM     20  C   UNL     1       2.585   7.571  18.801  0.00  0.00    +0.000 A 
ATOM     21  C   UNL     1       2.865   6.457  19.592  0.00  0.00    +0.000 A 
ATOM     22  C   UNL     1       3.920   5.609  19.243  0.00  0.00    +0.000 A 
BRANCH  17  23
ATOM     23  O   UNL     1       5.777   5.136  17.713  0.00  0.00    +0.000 OA
BRANCH  23  24
ATOM     24  C   UNL     1       5.506   4.200  16.663  0.00  0.00    +0.000 C 
BRANCH  24  28
ATOM     25  C   UNL     1       7.222   4.227  12.027  0.00  0.00    +0.000 C 
ATOM     26  C   UNL     1       6.954   4.450  13.462  0.00  0.00    +0.000 A 
ATOM     27  N   UNL     1       6.059   3.887  14.238  0.00  0.00    +0.000 NA
ATOM     28  C   UNL     1       6.309   4.491  15.447  0.00  0.00    +0.000 A 
ATOM     29  N   UNL     1       7.287   5.402  15.427  0.00  0.00    +0.000 NA
ATOM     30  O   UNL     1       7.727   5.373  14.102  0.00  0.00    +0.000 OA
ENDBRANCH  24  28
ENDBRANCH  23  24
ENDBRANCH  17  23
ENDBRANCH   1  20
TORSDOF 5
ENDMDL
MODEL 7
REMARK VINA RESULT:      -8.2      1.593      2.061
REMARK  Name = 
REMARK  6 active torsions:
REMARK  status: ('A' for Active; 'I' for Inactive)
REMARK    1  A    between atoms: C_1  and  C_2
REMARK    2  A    between atoms: C_4  and  C_5
REMARK    3  A    between atoms: C_5  and  O_6
REMARK    4  A    between atoms: O_6  and  C_7
REMARK    5  A    between atoms: C_10  and  C_11
REMARK    6  A    between atoms: N_13  and  C_14
REMARK                            x       y       z     vdW  Elec       q    Type
REMARK                         _______ _______ _______ _____ _____    ______ ____
ROOT
ATOM      1  C   UNL     1       1.775   8.416  18.861  0.00  0.00    +0.000 C 
ATOM      2  O   UNL     1       1.657   8.898  17.738  0.00  0.00    +0.000 OA
ATOM      3  N   UNL     1       2.429   7.229  19.183  0.00  0.00    +0.000 N 
ATOM      4  H   UNL     1       2.239   6.818  20.087  0.00  0.00    +0.000 HD
ENDROOT
BRANCH   3   5
ATOM      5  C   UNL     1       3.160   6.449  18.256  0.00  0.00    +0.000 A 
ATOM      6  C   UNL     1       2.818   5.105  17.993  0.00  0.00    +0.000 A 
ATOM      7  C   UNL     1       3.636   4.256  17.253  0.00  0.00    +0.000 A 
ATOM      8  C   UNL     1       4.747   4.830  16.704  0.00  0.00    +0.000 A 
ATOM      9  N   UNL     1       5.744   4.247  15.934  0.00  0.00    +0.000 N 
ATOM     10  C   UNL     1       6.550   5.258  15.419  0.00  0.00    +0.000 A 
ATOM     11  O   UNL     1       7.475   5.116  14.631  0.00  0.00    +0.000 OA
ATOM     12  N   UNL     1       6.102   6.463  15.980  0.00  0.00    +0.000 N 
ATOM     13  C   UNL     1       5.002   6.198  16.796  0.00  0.00    +0.000 A 
ATOM     14  C   UNL     1       4.276   7.024  17.624  0.00  0.00    +0.000 A 
ATOM     15  H   UNL     1       6.083   3.307  16.067  0.00  0.00    +0.000 HD
ATOM     16  H   UNL     1       6.530   7.350  15.779  0.00  0.00    +0.000 HD
ENDBRANCH   3   5
BRANCH   1  20
ATOM     17  C   UNL     1      -0.202  10.410  22.087  0.00  0.00    +0.000 A 
ATOM     18  C   UNL     1       0.141   9.066  22.186  0.00  0.00    +0.000 A 
ATOM     19  C   UNL     1       0.794   8.437  21.129  0.00  0.00    +0.000 A 
ATOM     20  C   UNL     1       1.102   9.150  19.960  0.00  0.00    +0.000 A 
ATOM     21  C   UNL     1       0.706  10.483  19.838  0.00  0.00    +0.000 A 
ATOM     22  C   UNL     1       0.049  11.108  20.901  0.00  0.00    +0.000 A 
BRANCH  17  23
ATOM     23  O   UNL     1      -0.798  10.943  23.197  0.00  0.00    +0.000 OA
BRANCH  23  24
ATOM     24  C   UNL     1      -1.853  11.873  22.925  0.00  0.00    +0.000 C 
BRANCH  24  28
ATOM     25  C   UNL     1      -2.165  16.212  25.275  0.00  0.00    +0.000 C 
ATOM     26  C   UNL     1      -1.759  15.025  24.495  0.00  0.00    +0.000 A 
ATOM     27  N   UNL     1      -2.443  13.942  24.213  0.00  0.00    +0.000 NA
ATOM     28  C   UNL     1      -1.543  13.225  23.461  0.00  0.00    +0.000 A 
ATOM     29  N   UNL     1      -0.352  13.811  23.302  0.00  0.00    +0.000 NA
ATOM     30  O   UNL     1      -0.494  15.020  23.987  0.00  0.00    +0.000 OA
ENDBRANCH  24  28
ENDBRANCH  23  24
ENDBRANCH  17  23
ENDBRANCH   1  20
TORSDOF 5
ENDMDL
MODEL 8
REMARK VINA RESULT:      -8.1      2.198     10.551
REMARK  Name = 
REMARK  6 active torsions:
REMARK  status: ('A' for Active; 'I' for Inactive)
REMARK    1  A    between atoms: C_1  and  C_2
REMARK    2  A    between atoms: C_4  and  C_5
REMARK    3  A    between atoms: C_5  and  O_6
REMARK    4  A    between atoms: O_6  and  C_7
REMARK    5  A    between atoms: C_10  and  C_11
REMARK    6  A    between atoms: N_13  and  C_14
REMARK                            x       y       z     vdW  Elec       q    Type
REMARK                         _______ _______ _______ _____ _____    ______ ____
ROOT
ATOM      1  C   UNL     1       1.692   9.146  18.367  0.00  0.00    +0.000 C 
ATOM      2  O   UNL     1       1.893  10.041  17.552  0.00  0.00    +0.000 OA
ATOM      3  N   UNL     1       0.757   9.167  19.399  0.00  0.00    +0.000 N 
ATOM      4  H   UNL     1       0.863   8.491  20.144  0.00  0.00    +0.000 HD
ENDROOT
BRANCH   3   5
ATOM      5  C   UNL     1      -0.188  10.202  19.592  0.00  0.00    +0.000 A 
ATOM      6  C   UNL     1      -1.283  10.372  18.717  0.00  0.00    +0.000 A 
ATOM      7  C   UNL     1      -2.103  11.495  18.755  0.00  0.00    +0.000 A 
ATOM      8  C   UNL     1      -1.851  12.383  19.763  0.00  0.00    +0.000 A 
ATOM      9  N   UNL     1      -2.483  13.584  20.050  0.00  0.00    +0.000 N 
ATOM     10  C   UNL     1      -2.033  14.031  21.290  0.00  0.00    +0.000 A 
ATOM     11  O   UNL     1      -2.439  15.014  21.895  0.00  0.00    +0.000 OA
ATOM     12  N   UNL     1      -1.029  13.146  21.704  0.00  0.00    +0.000 N 
ATOM     13  C   UNL     1      -0.894  12.139  20.748  0.00  0.00    +0.000 A 
ATOM     14  C   UNL     1       0.005  11.101  20.654  0.00  0.00    +0.000 A 
ATOM     15  H   UNL     1      -2.843  14.215  19.351  0.00  0.00    +0.000 HD
ATOM     16  H   UNL     1      -0.527  13.256  22.568  0.00  0.00    +0.000 HD
ENDBRANCH   3   5
BRANCH   1  20
ATOM     17  C   UNL     1       4.220   5.699  18.206  0.00  0.00    +0.000 A 
ATOM     18  C   UNL     1       3.330   5.880  19.260  0.00  0.00    +0.000 A 
ATOM     19  C   UNL     1       2.507   7.003  19.289  0.00  0.00    +0.000 A 
ATOM     20  C   UNL     1       2.576   7.960  18.264  0.00  0.00    +0.000 A 
ATOM     21  C   UNL     1       3.509   7.808  17.237  0.00  0.00    +0.000 A 
ATOM     22  C   UNL     1       4.334   6.679  17.214  0.00  0.00    +0.000 A 
BRANCH  17  23
ATOM     23  O   UNL     1       4.947   4.541  18.249  0.00  0.00    +0.000 OA
BRANCH  23  24
ATOM     24  C   UNL     1       6.347   4.701  17.990  0.00  0.00    +0.000 C 
BRANCH  24  28
ATOM     25  C   UNL     1       6.248   3.693  13.151  0.00  0.00    +0.000 C 
ATOM     26  C   UNL     1       6.514   4.221  14.504  0.00  0.00    +0.000 A 
ATOM     27  N   UNL     1       5.988   3.868  15.653  0.00  0.00    +0.000 NA
ATOM     28  C   UNL     1       6.638   4.701  16.533  0.00  0.00    +0.000 A 
ATOM     29  N   UNL     1       7.503   5.548  15.967  0.00  0.00    +0.000 NA
ATOM     30  O   UNL     1       7.429   5.226  14.610  0.00  0.00    +0.000 OA
ENDBRANCH  24  28
ENDBRANCH  23  24
ENDBRANCH  17  23
ENDBRANCH   1  20
TORSDOF 5
ENDMDL
MODEL 9
REMARK VINA RESULT:      -8.1      2.173      2.907
REMARK  Name = 
REMARK  6 active torsions:
REMARK  status: ('A' for Active; 'I' for Inactive)
REMARK    1  A    between atoms: C_1  and  C_2
REMARK    2  A    between atoms: C_4  and  C_5
REMARK    3  A    between atoms: C_5  and  O_6
REMARK    4  A    between atoms: O_6  and  C_7
REMARK    5  A    between atoms: C_10  and  C_11
REMARK    6  A    between atoms: N_13  and  C_14
REMARK                            x       y       z     vdW  Elec       q    Type
REMARK                         _______ _______ _______ _____ _____    ______ ____
ROOT
ATOM      1  C   UNL     1       1.222   8.530  20.255  0.00  0.00    +0.000 C 
ATOM      2  O   UNL     1       1.485   8.927  19.124  0.00  0.00    +0.000 OA
ATOM      3  N   UNL     1       1.507   7.269  20.772  0.00  0.00    +0.000 N 
ATOM      4  H   UNL     1       1.020   6.984  21.612  0.00  0.00    +0.000 HD
ENDROOT
BRANCH   3   5
ATOM      5  C   UNL     1       2.255   6.282  20.088  0.00  0.00    +0.000 A 
ATOM      6  C   UNL     1       3.166   6.624  19.066  0.00  0.00    +0.000 A 
ATOM      7  C   UNL     1       3.753   5.673  18.238  0.00  0.00    +0.000 A 
ATOM      8  C   UNL     1       3.477   4.370  18.540  0.00  0.00    +0.000 A 
ATOM      9  N   UNL     1       3.902   3.214  17.900  0.00  0.00    +0.000 N 
ATOM     10  C   UNL     1       3.550   2.121  18.688  0.00  0.00    +0.000 A 
ATOM     11  O   UNL     1       3.839   0.951  18.474  0.00  0.00    +0.000 OA
ATOM     12  N   UNL     1       2.800   2.617  19.763  0.00  0.00    +0.000 N 
ATOM     13  C   UNL     1       2.730   4.006  19.661  0.00  0.00    +0.000 A 
ATOM     14  C   UNL     1       2.042   4.931  20.412  0.00  0.00    +0.000 A 
ATOM     15  H   UNL     1       4.034   3.134  16.904  0.00  0.00    +0.000 HD
ATOM     16  H   UNL     1       2.411   2.025  20.476  0.00  0.00    +0.000 HD
ENDBRANCH   3   5
BRANCH   1  20
ATOM     17  C   UNL     1      -0.890  11.366  22.663  0.00  0.00    +0.000 A 
ATOM     18  C   UNL     1      -0.543  11.666  21.350  0.00  0.00    +0.000 A 
ATOM     19  C   UNL     1       0.134  10.725  20.578  0.00  0.00    +0.000 A 
ATOM     20  C   UNL     1       0.478   9.477  21.121  0.00  0.00    +0.000 A 
ATOM     21  C   UNL     1       0.182   9.198  22.456  0.00  0.00    +0.000 A 
ATOM     22  C   UNL     1      -0.496  10.147  23.226  0.00  0.00    +0.000 A 
BRANCH  17  23
ATOM     23  O   UNL     1      -1.593  12.339  23.318  0.00  0.00    +0.000 OA
BRANCH  23  24
ATOM     24  C   UNL     1      -2.705  12.871  22.588  0.00  0.00    +0.000 C 
BRANCH  24  28
ATOM     25  C   UNL     1      -7.421  13.249  24.021  0.00  0.00    +0.000 C 
ATOM     26  C   UNL     1      -5.989  12.927  23.861  0.00  0.00    +0.000 A 
ATOM     27  N   UNL     1      -5.134  13.361  22.964  0.00  0.00    +0.000 NA
ATOM     28  C   UNL     1      -3.977  12.721  23.341  0.00  0.00    +0.000 A 
ATOM     29  N   UNL     1      -4.102  11.911  24.397  0.00  0.00    +0.000 NA
ATOM     30  O   UNL     1      -5.446  12.050  24.752  0.00  0.00    +0.000 OA
ENDBRANCH  24  28
ENDBRANCH  23  24
ENDBRANCH  17  23
ENDBRANCH   1  20
TORSDOF 5
ENDMDL
