MODEL 1
REMARK VINA RESULT:      -8.6      0.000      0.000
REMARK  Name = 
REMARK  6 active torsions:
REMARK  status: ('A' for Active; 'I' for Inactive)
REMARK    1  A    between atoms: C_1  and  C_2
REMARK    2  A    between atoms: C_4  and  C_5
REMARK    3  A    between atoms: C_13  and  N_14
REMARK    4  A    between atoms: N_14  and  C_15
REMARK    5  A    between atoms: C_15  and  C_16
REMARK    6  A    between atoms: C_27  and  C_28
REMARK                            x       y       z     vdW  Elec       q    Type
REMARK                         _______ _______ _______ _____ _____    ______ ____
ROOT
ATOM      1  C   UNL     1       1.355  11.345  18.451  0.00  0.00    +0.000 C 
ATOM      2  C   UNL     1       1.274  10.220  19.443  0.00  0.00    +0.000 A 
ATOM      3  N   UNL     1       0.742  10.555  20.628  0.00  0.00    +0.000 NA
ATOM      4  C   UNL     1       0.630   9.568  21.526  0.00  0.00    +0.000 A 
ATOM      5  N   UNL     1       1.024   8.280  21.345  0.00  0.00    +0.000 NA
ATOM      6  C   UNL     1       1.577   7.957  20.149  0.00  0.00    +0.000 A 
ATOM      7  N   UNL     1       1.965   6.635  19.914  0.00  0.00    +0.000 N 
ATOM      8  C   UNL     1       1.405   5.562  20.749  0.00  0.00    +0.000 C 
ATOM      9  C   UNL     1       2.556   4.572  20.959  0.00  0.00    +0.000 C 
ATOM     10  C   UNL     1       3.509   4.808  19.778  0.00  0.00    +0.000 C 
ATOM     11  C   UNL     1       3.392   6.349  19.653  0.00  0.00    +0.000 C 
ATOM     12  C   UNL     1       1.697   8.923  19.139  0.00  0.00    +0.000 A 
ATOM     13  C   UNL     1       2.229   8.620  17.767  0.00  0.00    +0.000 C 
ENDROOT
BRANCH   4  14
ATOM     14  C   UNL     1      -0.035   9.939  22.843  0.00  0.00    +0.000 C 
ATOM     15  N   UNL     1      -1.147  10.744  22.760  0.00  0.00    +0.000 N 
ATOM     16  O   UNL     1       0.355   9.549  23.934  0.00  0.00    +0.000 OA
ATOM     17  H   UNL     1      -1.484  11.044  21.857  0.00  0.00    +0.000 HD
ATOM     18  H   UNL     1      -1.620  11.006  23.612  0.00  0.00    +0.000 HD
ENDBRANCH   4  14
BRANCH  10  19
ATOM     19  N   UNL     1       3.067   4.030  18.603  0.00  0.00    +0.000 NA
ATOM     20  H   UNL     1       2.855   4.678  17.841  0.00  0.00    +0.000 HD
BRANCH  19  21
ATOM     21  C   UNL     1       4.054   3.042  18.114  0.00  0.00    +0.000 C 
BRANCH  21  22
ATOM     22  C   UNL     1       5.033   3.732  17.196  0.00  0.00    +0.000 A 
ATOM     23  C   UNL     1       4.886   3.696  15.795  0.00  0.00    +0.000 A 
ATOM     24  C   UNL     1       5.543   4.611  14.974  0.00  0.00    +0.000 A 
ATOM     25  F   UNL     1       5.425   4.499  13.644  0.00  0.00    +0.000 F 
ATOM     26  C   UNL     1       6.289   5.666  15.500  0.00  0.00    +0.000 A 
ATOM     27  C   UNL     1       6.586   5.614  16.867  0.00  0.00    +0.000 A 
ATOM     28  C   UNL     1       7.316   6.408  17.784  0.00  0.00    +0.000 A 
ATOM     29  C   UNL     1       7.601   5.556  18.826  0.00  0.00    +0.000 A 
ATOM     30  O   UNL     1       6.727   4.512  18.822  0.00  0.00    +0.000 OA
ATOM     31  C   UNL     1       6.061   4.575  17.630  0.00  0.00    +0.000 A 
ENDBRANCH  21  22
ENDBRANCH  19  21
ENDBRANCH  10  19
TORSDOF 4
ENDMDL
MODEL 2
REMARK VINA RESULT:      -8.3      2.067      3.073
REMARK  Name = 
REMARK  6 active torsions:
REMARK  status: ('A' for Active; 'I' for Inactive)
REMARK    1  A    between atoms: C_1  and  C_2
REMARK    2  A    between atoms: C_4  and  C_5
REMARK    3  A    between atoms: C_13  and  N_14
REMARK    4  A    between atoms: N_14  and  C_15
REMARK    5  A    between atoms: C_15  and  C_16
REMARK    6  A    between atoms: C_27  and  C_28
REMARK                            x       y       z     vdW  Elec       q    Type
REMARK                         _______ _______ _______ _____ _____    ______ ____
ROOT
ATOM      1  C   UNL     1      -0.855  11.175  22.990  0.00  0.00    +0.000 C 
ATOM      2  C   UNL     1      -0.507  10.713  21.604  0.00  0.00    +0.000 A 
ATOM      3  N   UNL     1      -1.131  11.377  20.620  0.00  0.00    +0.000 NA
ATOM      4  C   UNL     1      -0.823  11.009  19.369  0.00  0.00    +0.000 A 
ATOM      5  N   UNL     1       0.042  10.019  19.023  0.00  0.00    +0.000 NA
ATOM      6  C   UNL     1       0.655   9.344  20.027  0.00  0.00    +0.000 A 
ATOM      7  N   UNL     1       1.575   8.340  19.710  0.00  0.00    +0.000 N 
ATOM      8  C   UNL     1       2.177   8.316  18.368  0.00  0.00    +0.000 C 
ATOM      9  C   UNL     1       2.288   6.832  18.003  0.00  0.00    +0.000 C 
ATOM     10  C   UNL     1       2.305   6.088  19.346  0.00  0.00    +0.000 C 
ATOM     11  C   UNL     1       1.291   6.955  20.137  0.00  0.00    +0.000 C 
ATOM     12  C   UNL     1       0.416   9.691  21.365  0.00  0.00    +0.000 A 
ATOM     13  C   UNL     1       1.113   9.037  22.524  0.00  0.00    +0.000 C 
ENDROOT
BRANCH   4  14
ATOM     14  C   UNL     1      -1.484  11.810  18.258  0.00  0.00    +0.000 C 
ATOM     15  N   UNL     1      -0.673  12.678  17.565  0.00  0.00    +0.000 N 
ATOM     16  O   UNL     1      -2.663  11.702  17.953  0.00  0.00    +0.000 OA
ATOM     17  H   UNL     1       0.306  12.747  17.800  0.00  0.00    +0.000 HD
ATOM     18  H   UNL     1      -1.074  13.222  16.815  0.00  0.00    +0.000 HD
ENDBRANCH   4  14
BRANCH  10  19
ATOM     19  N   UNL     1       3.679   6.047  19.889  0.00  0.00    +0.000 NA
ATOM     20  H   UNL     1       3.638   6.200  20.899  0.00  0.00    +0.000 HD
BRANCH  19  21
ATOM     21  C   UNL     1       4.401   4.782  19.636  0.00  0.00    +0.000 C 
BRANCH  21  22
ATOM     22  C   UNL     1       5.206   4.915  18.366  0.00  0.00    +0.000 A 
ATOM     23  C   UNL     1       4.788   4.321  17.159  0.00  0.00    +0.000 A 
ATOM     24  C   UNL     1       5.304   4.735  15.932  0.00  0.00    +0.000 A 
ATOM     25  F   UNL     1       4.924   4.098  14.816  0.00  0.00    +0.000 F 
ATOM     26  C   UNL     1       6.173   5.820  15.829  0.00  0.00    +0.000 A 
ATOM     27  C   UNL     1       6.730   6.303  17.020  0.00  0.00    +0.000 A 
ATOM     28  C   UNL     1       7.651   7.317  17.379  0.00  0.00    +0.000 A 
ATOM     29  C   UNL     1       8.104   6.943  18.623  0.00  0.00    +0.000 A 
ATOM     30  O   UNL     1       7.211   6.097  19.206  0.00  0.00    +0.000 OA
ATOM     31  C   UNL     1       6.328   5.739  18.227  0.00  0.00    +0.000 A 
ENDBRANCH  21  22
ENDBRANCH  19  21
ENDBRANCH  10  19
TORSDOF 4
ENDMDL
MODEL 3
REMARK VINA RESULT:      -8.2      3.835      8.939
REMARK  Name = 
REMARK  6 active torsions:
REMARK  status: ('A' for Active; 'I' for Inactive)
REMARK    1  A    between atoms: C_1  and  C_2
REMARK    2  A    between atoms: C_4  and  C_5
REMARK    3  A    between atoms: C_13  and  N_14
REMARK    4  A    between atoms: N_14  and  C_15
REMARK    5  A    between atoms: C_15  and  C_16
REMARK    6  A    between atoms: C_27  and  C_28
REMARK                            x       y       z     vdW  Elec       q    Type
REMARK                         _______ _______ _______ _____ _____    ______ ____
ROOT
ATOM      1  C   UNL     1       2.666   2.811  20.826  0.00  0.00    +0.000 C 
ATOM      2  C   UNL     1       3.080   3.967  19.961  0.00  0.00    +0.000 A 
ATOM      3  N   UNL     1       4.240   3.793  19.311  0.00  0.00    +0.000 NA
ATOM      4  C   UNL     1       4.626   4.794  18.509  0.00  0.00    +0.000 A 
ATOM      5  N   UNL     1       3.957   5.962  18.319  0.00  0.00    +0.000 NA
ATOM      6  C   UNL     1       2.793   6.134  18.994  0.00  0.00    +0.000 A 
ATOM      7  N   UNL     1       2.061   7.309  18.800  0.00  0.00    +0.000 N 
ATOM      8  C   UNL     1       2.311   8.121  17.600  0.00  0.00    +0.000 C 
ATOM      9  C   UNL     1       2.191   9.576  18.066  0.00  0.00    +0.000 C 
ATOM     10  C   UNL     1       1.314   9.523  19.325  0.00  0.00    +0.000 C 
ATOM     11  C   UNL     1       1.838   8.206  19.953  0.00  0.00    +0.000 C 
ATOM     12  C   UNL     1       2.299   5.119  19.827  0.00  0.00    +0.000 A 
ATOM     13  C   UNL     1       0.983   5.209  20.546  0.00  0.00    +0.000 C 
ENDROOT
BRANCH   4  14
ATOM     14  C   UNL     1       5.908   4.562  17.725  0.00  0.00    +0.000 C 
ATOM     15  N   UNL     1       7.059   4.420  18.464  0.00  0.00    +0.000 N 
ATOM     16  O   UNL     1       5.953   4.480  16.505  0.00  0.00    +0.000 OA
ATOM     17  H   UNL     1       7.017   4.462  19.472  0.00  0.00    +0.000 HD
ATOM     18  H   UNL     1       7.929   4.258  17.980  0.00  0.00    +0.000 HD
ENDBRANCH   4  14
BRANCH  10  19
ATOM     19  N   UNL     1      -0.116   9.535  18.952  0.00  0.00    +0.000 NA
ATOM     20  H   UNL     1      -0.564   8.701  19.340  0.00  0.00    +0.000 HD
BRANCH  19  21
ATOM     21  C   UNL     1      -0.862  10.725  19.417  0.00  0.00    +0.000 C 
BRANCH  21  22
ATOM     22  C   UNL     1      -1.900  11.093  18.385  0.00  0.00    +0.000 A 
ATOM     23  C   UNL     1      -1.740  10.766  17.024  0.00  0.00    +0.000 A 
ATOM     24  C   UNL     1      -2.824  10.763  16.148  0.00  0.00    +0.000 A 
ATOM     25  F   UNL     1      -2.614  10.509  14.849  0.00  0.00    +0.000 F 
ATOM     26  C   UNL     1      -4.129  10.978  16.592  0.00  0.00    +0.000 A 
ATOM     27  C   UNL     1      -4.283  11.473  17.893  0.00  0.00    +0.000 A 
ATOM     28  C   UNL     1      -5.367  11.861  18.716  0.00  0.00    +0.000 A 
ATOM     29  C   UNL     1      -4.802  12.680  19.666  0.00  0.00    +0.000 A 
ATOM     30  O   UNL     1      -3.466  12.430  19.757  0.00  0.00    +0.000 OA
ATOM     31  C   UNL     1      -3.152  11.640  18.687  0.00  0.00    +0.000 A 
ENDBRANCH  21  22
ENDBRANCH  19  21
ENDBRANCH  10  19
TORSDOF 4
ENDMDL
MODEL 4
REMARK VINA RESULT:      -7.9      1.549      2.193
REMARK  Name = 
REMARK  6 active torsions:
REMARK  status: ('A' for Active; 'I' for Inactive)
REMARK    1  A    between atoms: C_1  and  C_2
REMARK    2  A    between atoms: C_4  and  C_5
REMARK    3  A    between atoms: C_13  and  N_14
REMARK    4  A    between atoms: N_14  and  C_15
REMARK    5  A    between atoms: C_15  and  C_16
REMARK    6  A    between atoms: C_27  and  C_28
REMARK                            x       y       z     vdW  Elec       q    Type
REMARK                         _______ _______ _______ _____ _____    ______ ____
ROOT
ATOM      1  C   UNL     1       0.910  11.401  18.716  0.00  0.00    +0.000 C 
ATOM      2  C   UNL     1       0.951  10.247  19.676  0.00  0.00    +0.000 A 
ATOM      3  N   UNL     1       0.509  10.529  20.911  0.00  0.00    +0.000 NA
ATOM      4  C   UNL     1       0.506   9.515  21.785  0.00  0.00    +0.000 A 
ATOM      5  N   UNL     1       0.929   8.248  21.533  0.00  0.00    +0.000 NA
ATOM      6  C   UNL     1       1.389   7.978  20.286  0.00  0.00    +0.000 A 
ATOM      7  N   UNL     1       1.802   6.678  19.980  0.00  0.00    +0.000 N 
ATOM      8  C   UNL     1       1.351   5.563  20.826  0.00  0.00    +0.000 C 
ATOM      9  C   UNL     1       2.548   4.610  20.910  0.00  0.00    +0.000 C 
ATOM     10  C   UNL     1       3.390   4.913  19.662  0.00  0.00    +0.000 C 
ATOM     11  C   UNL     1       3.210   6.452  19.594  0.00  0.00    +0.000 C 
ATOM     12  C   UNL     1       1.391   8.975  19.299  0.00  0.00    +0.000 A 
ATOM     13  C   UNL     1       1.817   8.729  17.879  0.00  0.00    +0.000 C 
ENDROOT
BRANCH   4  14
ATOM     14  C   UNL     1      -0.058   9.826  23.163  0.00  0.00    +0.000 C 
ATOM     15  N   UNL     1      -1.275  10.464  23.195  0.00  0.00    +0.000 N 
ATOM     16  O   UNL     1       0.500   9.524  24.209  0.00  0.00    +0.000 OA
ATOM     17  H   UNL     1      -1.747  10.690  22.332  0.00  0.00    +0.000 HD
ATOM     18  H   UNL     1      -1.686  10.681  24.091  0.00  0.00    +0.000 HD
ENDBRANCH   4  14
BRANCH  10  19
ATOM     19  N   UNL     1       2.878   4.152  18.504  0.00  0.00    +0.000 NA
ATOM     20  H   UNL     1       2.580   4.813  17.783  0.00  0.00    +0.000 HD
BRANCH  19  21
ATOM     21  C   UNL     1       3.854   3.215  17.905  0.00  0.00    +0.000 C 
BRANCH  21  22
ATOM     22  C   UNL     1       5.079   3.985  17.472  0.00  0.00    +0.000 A 
ATOM     23  C   UNL     1       6.037   4.434  18.401  0.00  0.00    +0.000 A 
ATOM     24  C   UNL     1       7.319   4.803  17.997  0.00  0.00    +0.000 A 
ATOM     25  F   UNL     1       8.178   5.285  18.906  0.00  0.00    +0.000 F 
ATOM     26  C   UNL     1       7.748   4.647  16.679  0.00  0.00    +0.000 A 
ATOM     27  C   UNL     1       6.765   4.372  15.720  0.00  0.00    +0.000 A 
ATOM     28  C   UNL     1       6.731   4.182  14.318  0.00  0.00    +0.000 A 
ATOM     29  C   UNL     1       5.422   4.424  13.970  0.00  0.00    +0.000 A 
ATOM     30  O   UNL     1       4.618   4.273  15.058  0.00  0.00    +0.000 OA
ATOM     31  C   UNL     1       5.450   4.189  16.139  0.00  0.00    +0.000 A 
ENDBRANCH  21  22
ENDBRANCH  19  21
ENDBRANCH  10  19
TORSDOF 4
ENDMDL
MODEL 5
REMARK VINA RESULT:      -7.9      3.788      8.900
REMARK  Name = 
REMARK  6 active torsions:
REMARK  status: ('A' for Active; 'I' for Inactive)
REMARK    1  A    between atoms: C_1  and  C_2
REMARK    2  A    between atoms: C_4  and  C_5
REMARK    3  A    between atoms: C_13  and  N_14
REMARK    4  A    between atoms: N_14  and  C_15
REMARK    5  A    between atoms: C_15  and  C_16
REMARK    6  A    between atoms: C_27  and  C_28
REMARK                            x       y       z     vdW  Elec       q    Type
REMARK                         _______ _______ _______ _____ _____    ______ ____
ROOT
ATOM      1  C   UNL     1       3.347   2.528  19.077  0.00  0.00    +0.000 C 
ATOM      2  C   UNL     1       3.604   3.912  18.552  0.00  0.00    +0.000 A 
ATOM      3  N   UNL     1       4.725   4.038  17.827  0.00  0.00    +0.000 NA
ATOM      4  C   UNL     1       4.970   5.253  17.321  0.00  0.00    +0.000 A 
ATOM      5  N   UNL     1       4.197   6.357  17.497  0.00  0.00    +0.000 NA
ATOM      6  C   UNL     1       3.074   6.223  18.246  0.00  0.00    +0.000 A 
ATOM      7  N   UNL     1       2.237   7.328  18.423  0.00  0.00    +0.000 N 
ATOM      8  C   UNL     1       2.334   8.459  17.488  0.00  0.00    +0.000 C 
ATOM      9  C   UNL     1       2.131   9.711  18.348  0.00  0.00    +0.000 C 
ATOM     10  C   UNL     1       1.353   9.229  19.581  0.00  0.00    +0.000 C 
ATOM     11  C   UNL     1       2.026   7.848  19.790  0.00  0.00    +0.000 C 
ATOM     12  C   UNL     1       2.725   4.974  18.783  0.00  0.00    +0.000 A 
ATOM     13  C   UNL     1       1.461   4.735  19.558  0.00  0.00    +0.000 C 
ENDROOT
BRANCH   4  14
ATOM     14  C   UNL     1       6.207   5.372  16.445  0.00  0.00    +0.000 C 
ATOM     15  N   UNL     1       6.017   5.887  15.185  0.00  0.00    +0.000 N 
ATOM     16  O   UNL     1       7.331   5.057  16.811  0.00  0.00    +0.000 OA
ATOM     17  H   UNL     1       5.094   6.172  14.893  0.00  0.00    +0.000 HD
ATOM     18  H   UNL     1       6.816   5.989  14.576  0.00  0.00    +0.000 HD
ENDBRANCH   4  14
BRANCH  10  19
ATOM     19  N   UNL     1      -0.096   9.204  19.292  0.00  0.00    +0.000 NA
ATOM     20  H   UNL     1      -0.518   8.424  19.801  0.00  0.00    +0.000 HD
BRANCH  19  21
ATOM     21  C   UNL     1      -0.816  10.443  19.656  0.00  0.00    +0.000 C 
BRANCH  21  22
ATOM     22  C   UNL     1      -1.783  10.797  18.551  0.00  0.00    +0.000 A 
ATOM     23  C   UNL     1      -1.578  10.371  17.225  0.00  0.00    +0.000 A 
ATOM     24  C   UNL     1      -2.619  10.368  16.297  0.00  0.00    +0.000 A 
ATOM     25  F   UNL     1      -2.364  10.015  15.030  0.00  0.00    +0.000 F 
ATOM     26  C   UNL     1      -3.928  10.684  16.660  0.00  0.00    +0.000 A 
ATOM     27  C   UNL     1      -4.114  11.272  17.918  0.00  0.00    +0.000 A 
ATOM     28  C   UNL     1      -5.211  11.774  18.658  0.00  0.00    +0.000 A 
ATOM     29  C   UNL     1      -4.644  12.623  19.580  0.00  0.00    +0.000 A 
ATOM     30  O   UNL     1      -3.331  12.307  19.753  0.00  0.00    +0.000 OA
ATOM     31  C   UNL     1      -3.013  11.431  18.754  0.00  0.00    +0.000 A 
ENDBRANCH  21  22
ENDBRANCH  19  21
ENDBRANCH  10  19
TORSDOF 4
ENDMDL
MODEL 6
REMARK VINA RESULT:      -7.9      3.632      8.870
REMARK  Name = 
REMARK  6 active torsions:
REMARK  status: ('A' for Active; 'I' for Inactive)
REMARK    1  A    between atoms: C_1  and  C_2
REMARK    2  A    between atoms: C_4  and  C_5
REMARK    3  A    between atoms: C_13  and  N_14
REMARK    4  A    between atoms: N_14  and  C_15
REMARK    5  A    between atoms: C_15  and  C_16
REMARK    6  A    between atoms: C_27  and  C_28
REMARK                            x       y       z     vdW  Elec       q    Type
REMARK                         _______ _______ _______ _____ _____    ______ ____
ROOT
ATOM      1  C   UNL     1       2.583   1.967  19.279  0.00  0.00    +0.000 C 
ATOM      2  C   UNL     1       2.949   3.290  18.668  0.00  0.00    +0.000 A 
ATOM      3  N   UNL     1       3.968   3.242  17.797  0.00  0.00    +0.000 NA
ATOM      4  C   UNL     1       4.302   4.400  17.212  0.00  0.00    +0.000 A 
ATOM      5  N   UNL     1       3.715   5.604  17.443  0.00  0.00    +0.000 NA
ATOM      6  C   UNL     1       2.698   5.644  18.338  0.00  0.00    +0.000 A 
ATOM      7  N   UNL     1       2.049   6.859  18.578  0.00  0.00    +0.000 N 
ATOM      8  C   UNL     1       2.169   7.943  17.592  0.00  0.00    +0.000 C 
ATOM      9  C   UNL     1       2.254   9.231  18.419  0.00  0.00    +0.000 C 
ATOM     10  C   UNL     1       1.594   8.890  19.762  0.00  0.00    +0.000 C 
ATOM     11  C   UNL     1       2.098   7.434  19.938  0.00  0.00    +0.000 C 
ATOM     12  C   UNL     1       2.260   4.469  18.968  0.00  0.00    +0.000 A 
ATOM     13  C   UNL     1       1.093   4.425  19.913  0.00  0.00    +0.000 C 
ENDROOT
BRANCH   4  14
ATOM     14  C   UNL     1       5.413   4.325  16.177  0.00  0.00    +0.000 C 
ATOM     15  N   UNL     1       6.684   4.120  16.659  0.00  0.00    +0.000 N 
ATOM     16  O   UNL     1       5.226   4.418  14.971  0.00  0.00    +0.000 OA
ATOM     17  H   UNL     1       6.835   4.017  17.651  0.00  0.00    +0.000 HD
ATOM     18  H   UNL     1       7.448   4.057  16.001  0.00  0.00    +0.000 HD
ENDBRANCH   4  14
BRANCH  10  19
ATOM     19  N   UNL     1       0.130   9.059  19.669  0.00  0.00    +0.000 NA
ATOM     20  H   UNL     1      -0.315   8.468  20.375  0.00  0.00    +0.000 HD
BRANCH  19  21
ATOM     21  C   UNL     1      -0.341  10.448  19.858  0.00  0.00    +0.000 C 
BRANCH  21  22
ATOM     22  C   UNL     1      -1.403  10.757  18.829  0.00  0.00    +0.000 A 
ATOM     23  C   UNL     1      -1.412  10.132  17.567  0.00  0.00    +0.000 A 
ATOM     24  C   UNL     1      -2.559  10.122  16.773  0.00  0.00    +0.000 A 
ATOM     25  F   UNL     1      -2.504   9.572  15.553  0.00  0.00    +0.000 F 
ATOM     26  C   UNL     1      -3.774  10.632  17.231  0.00  0.00    +0.000 A 
ATOM     27  C   UNL     1      -3.738  11.405  18.398  0.00  0.00    +0.000 A 
ATOM     28  C   UNL     1      -4.678  12.125  19.175  0.00  0.00    +0.000 A 
ATOM     29  C   UNL     1      -3.917  13.022  19.889  0.00  0.00    +0.000 A 
ATOM     30  O   UNL     1      -2.629  12.585  19.958  0.00  0.00    +0.000 OA
ATOM     31  C   UNL     1      -2.529  11.549  19.072  0.00  0.00    +0.000 A 
ENDBRANCH  21  22
ENDBRANCH  19  21
ENDBRANCH  10  19
TORSDOF 4
ENDMDL
MODEL 7
REMARK VINA RESULT:      -7.8      4.488      8.999
REMARK  Name = 
REMARK  6 active torsions:
REMARK  status: ('A' for Active; 'I' for Inactive)
REMARK    1  A    between atoms: C_1  and  C_2
REMARK    2  A    between atoms: C_4  and  C_5
REMARK    3  A    between atoms: C_13  and  N_14
REMARK    4  A    between atoms: N_14  and  C_15
REMARK    5  A    between atoms: C_15  and  C_16
REMARK    6  A    between atoms: C_27  and  C_28
REMARK                            x       y       z     vdW  Elec       q    Type
REMARK                         _______ _______ _______ _____ _____    ______ ____
ROOT
ATOM      1  C   UNL     1       2.897   3.499  20.593  0.00  0.00    +0.000 C 
ATOM      2  C   UNL     1       3.135   4.697  19.719  0.00  0.00    +0.000 A 
ATOM      3  N   UNL     1       4.203   4.600  18.914  0.00  0.00    +0.000 NA
ATOM      4  C   UNL     1       4.428   5.640  18.101  0.00  0.00    +0.000 A 
ATOM      5  N   UNL     1       3.686   6.777  18.042  0.00  0.00    +0.000 NA
ATOM      6  C   UNL     1       2.618   6.872  18.873  0.00  0.00    +0.000 A 
ATOM      7  N   UNL     1       1.812   8.012  18.818  0.00  0.00    +0.000 N 
ATOM      8  C   UNL     1       1.858   8.868  17.623  0.00  0.00    +0.000 C 
ATOM      9  C   UNL     1       1.734  10.302  18.149  0.00  0.00    +0.000 C 
ATOM     10  C   UNL     1       1.040  10.171  19.512  0.00  0.00    +0.000 C 
ATOM     11  C   UNL     1       1.706   8.866  20.019  0.00  0.00    +0.000 C 
ATOM     12  C   UNL     1       2.290   5.811  19.730  0.00  0.00    +0.000 A 
ATOM     13  C   UNL     1       1.081   5.815  20.622  0.00  0.00    +0.000 C 
ENDROOT
BRANCH   4  14
ATOM     14  C   UNL     1       5.602   5.495  17.145  0.00  0.00    +0.000 C 
ATOM     15  N   UNL     1       6.201   6.662  16.731  0.00  0.00    +0.000 N 
ATOM     16  O   UNL     1       6.033   4.418  16.757  0.00  0.00    +0.000 OA
ATOM     17  H   UNL     1       5.862   7.549  17.073  0.00  0.00    +0.000 HD
ATOM     18  H   UNL     1       6.988   6.606  16.102  0.00  0.00    +0.000 HD
ENDBRANCH   4  14
BRANCH  10  19
ATOM     19  N   UNL     1      -0.426  10.120  19.335  0.00  0.00    +0.000 NA
ATOM     20  H   UNL     1      -0.830   9.571  20.097  0.00  0.00    +0.000 HD
BRANCH  19  21
ATOM     21  C   UNL     1      -1.088  11.443  19.310  0.00  0.00    +0.000 C 
BRANCH  21  22
ATOM     22  C   UNL     1      -2.458  11.300  18.692  0.00  0.00    +0.000 A 
ATOM     23  C   UNL     1      -3.609  11.821  19.315  0.00  0.00    +0.000 A 
ATOM     24  C   UNL     1      -4.789  12.024  18.602  0.00  0.00    +0.000 A 
ATOM     25  F   UNL     1      -5.877  12.460  19.250  0.00  0.00    +0.000 F 
ATOM     26  C   UNL     1      -4.858  11.824  17.223  0.00  0.00    +0.000 A 
ATOM     27  C   UNL     1      -3.787  11.148  16.625  0.00  0.00    +0.000 A 
ATOM     28  C   UNL     1      -3.459  10.706  15.321  0.00  0.00    +0.000 A 
ATOM     29  C   UNL     1      -2.522   9.719  15.518  0.00  0.00    +0.000 A 
ATOM     30  O   UNL     1      -1.941   9.869  16.741  0.00  0.00    +0.000 OA
ATOM     31  C   UNL     1      -2.695  10.792  17.411  0.00  0.00    +0.000 A 
ENDBRANCH  21  22
ENDBRANCH  19  21
ENDBRANCH  10  19
TORSDOF 4
ENDMDL
MODEL 8
REMARK VINA RESULT:      -7.8      3.722      8.271
REMARK  Name = 
REMARK  6 active torsions:
REMARK  status: ('A' for Active; 'I' for Inactive)
REMARK    1  A    between atoms: C_1  and  C_2
REMARK    2  A    between atoms: C_4  and  C_5
REMARK    3  A    between atoms: C_13  and  N_14
REMARK    4  A    between atoms: N_14  and  C_15
REMARK    5  A    between atoms: C_15  and  C_16
REMARK    6  A    between atoms: C_27  and  C_28
REMARK                            x       y       z     vdW  Elec       q    Type
REMARK                         _______ _______ _______ _____ _____    ______ ____
ROOT
ATOM      1  C   UNL     1       3.979   5.209  17.189  0.00  0.00    +0.000 C 
ATOM      2  C   UNL     1       3.144   5.592  18.377  0.00  0.00    +0.000 A 
ATOM      3  N   UNL     1       2.795   4.569  19.171  0.00  0.00    +0.000 NA
ATOM      4  C   UNL     1       2.072   4.880  20.255  0.00  0.00    +0.000 A 
ATOM      5  N   UNL     1       1.652   6.127  20.598  0.00  0.00    +0.000 NA
ATOM      6  C   UNL     1       1.995   7.151  19.779  0.00  0.00    +0.000 A 
ATOM      7  N   UNL     1       1.609   8.451  20.116  0.00  0.00    +0.000 N 
ATOM      8  C   UNL     1       1.231   8.751  21.505  0.00  0.00    +0.000 C 
ATOM      9  C   UNL     1       0.069   9.745  21.401  0.00  0.00    +0.000 C 
ATOM     10  C   UNL     1       0.229  10.407  20.026  0.00  0.00    +0.000 C 
ATOM     11  C   UNL     1       0.709   9.185  19.202  0.00  0.00    +0.000 C 
ATOM     12  C   UNL     1       2.783   6.917  18.642  0.00  0.00    +0.000 A 
ATOM     13  C   UNL     1       3.263   8.011  17.731  0.00  0.00    +0.000 C 
ENDROOT
BRANCH   4  14
ATOM     14  C   UNL     1       1.738   3.725  21.185  0.00  0.00    +0.000 C 
ATOM     15  N   UNL     1       0.680   2.928  20.814  0.00  0.00    +0.000 N 
ATOM     16  O   UNL     1       2.362   3.472  22.206  0.00  0.00    +0.000 OA
ATOM     17  H   UNL     1       0.182   3.122  19.958  0.00  0.00    +0.000 HD
ATOM     18  H   UNL     1       0.432   2.146  21.402  0.00  0.00    +0.000 HD
ENDBRANCH   4  14
BRANCH  10  19
ATOM     19  N   UNL     1       1.176  11.539  20.112  0.00  0.00    +0.000 NA
ATOM     20  H   UNL     1       1.946  11.276  20.731  0.00  0.00    +0.000 HD
BRANCH  19  21
ATOM     21  C   UNL     1       1.744  11.964  18.814  0.00  0.00    +0.000 C 
BRANCH  21  22
ATOM     22  C   UNL     1       2.037  13.444  18.862  0.00  0.00    +0.000 A 
ATOM     23  C   UNL     1       3.271  13.969  18.433  0.00  0.00    +0.000 A 
ATOM     24  C   UNL     1       3.416  15.321  18.126  0.00  0.00    +0.000 A 
ATOM     25  F   UNL     1       4.624  15.788  17.783  0.00  0.00    +0.000 F 
ATOM     26  C   UNL     1       2.328  16.195  18.125  0.00  0.00    +0.000 A 
ATOM     27  C   UNL     1       1.144  15.734  18.713  0.00  0.00    +0.000 A 
ATOM     28  C   UNL     1      -0.145  16.264  18.964  0.00  0.00    +0.000 A 
ATOM     29  C   UNL     1      -0.649  15.476  19.973  0.00  0.00    +0.000 A 
ATOM     30  O   UNL     1       0.007  14.283  20.001  0.00  0.00    +0.000 OA
ATOM     31  C   UNL     1       1.091  14.424  19.181  0.00  0.00    +0.000 A 
ENDBRANCH  21  22
ENDBRANCH  19  21
ENDBRANCH  10  19
TORSDOF 4
ENDMDL
MODEL 9
REMARK VINA RESULT:      -7.7      4.200      8.317
REMARK  Name = 
REMARK  6 active torsions:
REMARK  status: ('A' for Active; 'I' for Inactive)
REMARK    1  A    between atoms: C_1  and  C_2
REMARK    2  A    between atoms: C_4  and  C_5
REMARK    3  A    between atoms: C_13  and  N_14
REMARK    4  A    between atoms: N_14  and  C_15
REMARK    5  A    between atoms: C_15  and  C_16
REMARK    6  A    between atoms: C_27  and  C_28
REMARK                            x       y       z     vdW  Elec       q    Type
REMARK                         _______ _______ _______ _____ _____    ______ ____
ROOT
ATOM      1  C   UNL     1       4.423   4.707  17.170  0.00  0.00    +0.000 C 
ATOM      2  C   UNL     1       3.489   5.244  18.217  0.00  0.00    +0.000 A 
ATOM      3  N   UNL     1       3.017   4.325  19.072  0.00  0.00    +0.000 NA
ATOM      4  C   UNL     1       2.203   4.775  20.035  0.00  0.00    +0.000 A 
ATOM      5  N   UNL     1       1.805   6.064  20.201  0.00  0.00    +0.000 NA
ATOM      6  C   UNL     1       2.275   6.983  19.321  0.00  0.00    +0.000 A 
ATOM      7  N   UNL     1       1.914   8.324  19.479  0.00  0.00    +0.000 N 
ATOM      8  C   UNL     1       1.411   8.784  20.782  0.00  0.00    +0.000 C 
ATOM      9  C   UNL     1       0.311   9.799  20.453  0.00  0.00    +0.000 C 
ATOM     10  C   UNL     1       0.639  10.304  19.041  0.00  0.00    +0.000 C 
ATOM     11  C   UNL     1       1.145   8.984  18.404  0.00  0.00    +0.000 C 
ATOM     12  C   UNL     1       3.163   6.601  18.304  0.00  0.00    +0.000 A 
ATOM     13  C   UNL     1       3.780   7.574  17.340  0.00  0.00    +0.000 C 
ENDROOT
BRANCH   4  14
ATOM     14  C   UNL     1       1.725   3.738  21.040  0.00  0.00    +0.000 C 
ATOM     15  N   UNL     1       0.612   3.012  20.686  0.00  0.00    +0.000 N 
ATOM     16  O   UNL     1       2.283   3.518  22.106  0.00  0.00    +0.000 OA
ATOM     17  H   UNL     1       0.168   3.176  19.795  0.00  0.00    +0.000 HD
ATOM     18  H   UNL     1       0.269   2.309  21.324  0.00  0.00    +0.000 HD
ENDBRANCH   4  14
BRANCH  10  19
ATOM     19  N   UNL     1       1.621  11.405  19.109  0.00  0.00    +0.000 NA
ATOM     20  H   UNL     1       1.756  11.784  18.168  0.00  0.00    +0.000 HD
BRANCH  19  21
ATOM     21  C   UNL     1       1.239  12.515  20.009  0.00  0.00    +0.000 C 
BRANCH  21  22
ATOM     22  C   UNL     1       1.220  13.805  19.225  0.00  0.00    +0.000 A 
ATOM     23  C   UNL     1       0.043  14.567  19.083  0.00  0.00    +0.000 A 
ATOM     24  C   UNL     1       0.091  15.906  18.696  0.00  0.00    +0.000 A 
ATOM     25  F   UNL     1      -1.056  16.574  18.512  0.00  0.00    +0.000 F 
ATOM     26  C   UNL     1       1.300  16.582  18.534  0.00  0.00    +0.000 A 
ATOM     27  C   UNL     1       2.463  15.802  18.499  0.00  0.00    +0.000 A 
ATOM     28  C   UNL     1       3.847  16.041  18.323  0.00  0.00    +0.000 A 
ATOM     29  C   UNL     1       4.357  14.826  17.926  0.00  0.00    +0.000 A 
ATOM     30  O   UNL     1       3.516  13.825  18.304  0.00  0.00    +0.000 OA
ATOM     31  C   UNL     1       2.359  14.430  18.708  0.00  0.00    +0.000 A 
ENDBRANCH  21  22
ENDBRANCH  19  21
ENDBRANCH  10  19
TORSDOF 4
ENDMDL
