MODEL 1
REMARK VINA RESULT:      -8.6      0.000      0.000
REMARK  Name = 
REMARK  7 active torsions:
REMARK  status: ('A' for Active; 'I' for Inactive)
REMARK    1  A    between atoms: C_1  and  N_2
REMARK    2  A    between atoms: C_4  and  C_5
REMARK    3  A    between atoms: N_7  and  CA_8
REMARK    4  A    between atoms: CA_8  and  CB_9
REMARK    5  A    between atoms: CA_8  and  C_19
REMARK    6  A    between atoms: CB_9  and  CG_10
REMARK    7  A    between atoms: C_19  and  OXT_21
REMARK                            x       y       z     vdW  Elec       q    Type
REMARK                         _______ _______ _______ _____ _____    ______ ____
ROOT
ATOM      1  C   UNK A   0       2.116   7.501  19.657  0.00  0.00    +0.000 C 
ATOM      2  O   UNK A   0       2.188   8.291  18.729  0.00  0.00    +0.000 OA
ATOM      3  N   TRP A   1       1.571   7.799  20.884  0.00  0.00    +0.000 N 
ATOM      4  H   TRP A   1       1.777   7.162  21.656  0.00  0.00    +0.000 HD
ENDROOT
BRANCH   1   8
ATOM      5  C   UNK A   0       2.382   3.062  21.490  0.00  0.00    +0.000 C 
ATOM      6  N   UNK A   0       2.752   3.943  20.402  0.00  0.00    +0.000 N 
ATOM      7  N   UNK A   0       2.291   5.236  20.449  0.00  0.00    +0.000 NA
ATOM      8  C   UNK A   0       2.669   6.077  19.529  0.00  0.00    +0.000 A 
ATOM      9  C   UNK A   0       3.587   5.726  18.427  0.00  0.00    +0.000 A 
ATOM     10  C   UNK A   0       4.023   6.636  17.454  0.00  0.00    +0.000 A 
ATOM     11  C   UNK A   0       4.931   6.235  16.468  0.00  0.00    +0.000 A 
ATOM     12  C   UNK A   0       5.387   4.922  16.432  0.00  0.00    +0.000 A 
ATOM     13  C   UNK A   0       4.945   4.011  17.389  0.00  0.00    +0.000 A 
ATOM     14  C   UNK A   0       4.045   4.412  18.381  0.00  0.00    +0.000 A 
ATOM     15  C   UNK A   0       3.611   3.456  19.404  0.00  0.00    +0.000 A 
ATOM     16  O   UNK A   0       4.008   2.290  19.364  0.00  0.00    +0.000 OA
ENDBRANCH   1   8
BRANCH   3  17
ATOM     17  CA  TRP A   1       1.068   9.137  21.208  0.00  0.00    +0.000 C 
BRANCH  17  18
ATOM     18  C   TRP A   1       1.298   9.446  22.690  0.00  0.00    +0.000 C 
ATOM     19  O   TRP A   1       0.391   9.713  23.476  0.00  0.00    +0.000 OA
BRANCH  18  20
ATOM     20  OXT TRP A   1       2.580   9.323  23.113  0.00  0.00    +0.000 OA
ATOM     21  HXT TRP A   1       3.191  10.017  22.799  0.00  0.00    +0.000 HD
ENDBRANCH  18  20
ENDBRANCH  17  18
BRANCH  17  22
ATOM     22  CB  TRP A   1      -0.388   9.375  20.779  0.00  0.00    +0.000 C 
BRANCH  22  23
ATOM     23  CG  TRP A   1      -0.618  10.503  19.821  0.00  0.00    +0.000 A 
ATOM     24  CD1 TRP A   1      -0.838  10.346  18.464  0.00  0.00    +0.000 A 
ATOM     25  NE1 TRP A   1      -1.074  11.589  17.949  0.00  0.00    +0.000 N 
ATOM     26  CE2 TRP A   1      -0.516  12.520  18.788  0.00  0.00    +0.000 A 
ATOM     27  CZ2 TRP A   1      -0.088  13.828  18.542  0.00  0.00    +0.000 A 
ATOM     28  CH2 TRP A   1       0.329  14.576  19.645  0.00  0.00    +0.000 A 
ATOM     29  CZ3 TRP A   1       0.205  14.069  20.936  0.00  0.00    +0.000 A 
ATOM     30  CE3 TRP A   1      -0.202  12.743  21.154  0.00  0.00    +0.000 A 
ATOM     31  CD2 TRP A   1      -0.469  11.917  20.044  0.00  0.00    +0.000 A 
ATOM     32  HE1 TRP A   1      -1.508  11.790  17.060  0.00  0.00    +0.000 HD
ENDBRANCH  22  23
ENDBRANCH  17  22
ENDBRANCH   3  17
TORSDOF 6
ENDMDL
MODEL 2
REMARK VINA RESULT:      -8.4      1.113      2.100
REMARK  Name = 
REMARK  7 active torsions:
REMARK  status: ('A' for Active; 'I' for Inactive)
REMARK    1  A    between atoms: C_1  and  N_2
REMARK    2  A    between atoms: C_4  and  C_5
REMARK    3  A    between atoms: N_7  and  CA_8
REMARK    4  A    between atoms: CA_8  and  CB_9
REMARK    5  A    between atoms: CA_8  and  C_19
REMARK    6  A    between atoms: CB_9  and  CG_10
REMARK    7  A    between atoms: C_19  and  OXT_21
REMARK                            x       y       z     vdW  Elec       q    Type
REMARK                         _______ _______ _______ _____ _____    ______ ____
ROOT
ATOM      1  C   UNK A   0       2.081   7.510  19.814  0.00  0.00    +0.000 C 
ATOM      2  O   UNK A   0       2.264   8.320  18.920  0.00  0.00    +0.000 OA
ATOM      3  N   TRP A   1       1.494   7.810  21.020  0.00  0.00    +0.000 N 
ATOM      4  H   TRP A   1       1.607   7.136  21.779  0.00  0.00    +0.000 HD
ENDROOT
BRANCH   1   8
ATOM      5  C   UNK A   0       2.027   3.037  21.584  0.00  0.00    +0.000 C 
ATOM      6  N   UNK A   0       2.459   3.905  20.507  0.00  0.00    +0.000 N 
ATOM      7  N   UNK A   0       2.092   5.227  20.574  0.00  0.00    +0.000 NA
ATOM      8  C   UNK A   0       2.530   6.052  19.665  0.00  0.00    +0.000 A 
ATOM      9  C   UNK A   0       3.419   5.651  18.556  0.00  0.00    +0.000 A 
ATOM     10  C   UNK A   0       3.919   6.540  17.596  0.00  0.00    +0.000 A 
ATOM     11  C   UNK A   0       4.794   6.089  16.602  0.00  0.00    +0.000 A 
ATOM     12  C   UNK A   0       5.155   4.747  16.547  0.00  0.00    +0.000 A 
ATOM     13  C   UNK A   0       4.648   3.857  17.492  0.00  0.00    +0.000 A 
ATOM     14  C   UNK A   0       3.780   4.307  18.491  0.00  0.00    +0.000 A 
ATOM     15  C   UNK A   0       3.280   3.371  19.502  0.00  0.00    +0.000 A 
ATOM     16  O   UNK A   0       3.591   2.180  19.444  0.00  0.00    +0.000 OA
ENDBRANCH   1   8
BRANCH   3  17
ATOM     17  CA  TRP A   1       1.077   9.173  21.364  0.00  0.00    +0.000 C 
BRANCH  17  18
ATOM     18  C   TRP A   1       1.292   9.432  22.859  0.00  0.00    +0.000 C 
ATOM     19  O   TRP A   1       0.372   9.635  23.651  0.00  0.00    +0.000 OA
BRANCH  18  20
ATOM     20  OXT TRP A   1       2.576   9.340  23.282  0.00  0.00    +0.000 OA
ATOM     21  HXT TRP A   1       3.244   9.259  22.574  0.00  0.00    +0.000 HD
ENDBRANCH  18  20
ENDBRANCH  17  18
BRANCH  17  22
ATOM     22  CB  TRP A   1      -0.348   9.523  20.908  0.00  0.00    +0.000 C 
BRANCH  22  23
ATOM     23  CG  TRP A   1      -0.458  10.358  19.670  0.00  0.00    +0.000 A 
ATOM     24  CD1 TRP A   1       0.289  11.496  19.423  0.00  0.00    +0.000 A 
ATOM     25  NE1 TRP A   1      -0.044  11.931  18.171  0.00  0.00    +0.000 N 
ATOM     26  CE2 TRP A   1      -1.286  11.442  17.857  0.00  0.00    +0.000 A 
ATOM     27  CZ2 TRP A   1      -2.247  11.906  16.953  0.00  0.00    +0.000 A 
ATOM     28  CH2 TRP A   1      -3.378  11.109  16.767  0.00  0.00    +0.000 A 
ATOM     29  CZ3 TRP A   1      -3.474   9.857  17.369  0.00  0.00    +0.000 A 
ATOM     30  CE3 TRP A   1      -2.508   9.425  18.293  0.00  0.00    +0.000 A 
ATOM     31  CD2 TRP A   1      -1.442  10.286  18.621  0.00  0.00    +0.000 A 
ATOM     32  HE1 TRP A   1       0.492  12.573  17.605  0.00  0.00    +0.000 HD
ENDBRANCH  22  23
ENDBRANCH  17  22
ENDBRANCH   3  17
TORSDOF 6
ENDMDL
MODEL 3
REMARK VINA RESULT:      -8.3      2.143      3.670
REMARK  Name = 
REMARK  7 active torsions:
REMARK  status: ('A' for Active; 'I' for Inactive)
REMARK    1  A    between atoms: C_1  and  N_2
REMARK    2  A    between atoms: C_4  and  C_5
REMARK    3  A    between atoms: N_7  and  CA_8
REMARK    4  A    between atoms: CA_8  and  CB_9
REMARK    5  A    between atoms: CA_8  and  C_19
REMARK    6  A    between atoms: CB_9  and  CG_10
REMARK    7  A    between atoms: C_19  and  OXT_21
REMARK                            x       y       z     vdW  Elec       q    Type
REMARK                         _______ _______ _______ _____ _____    ______ ____
ROOT
ATOM      1  C   UNK A   0       2.015   8.104  18.589  0.00  0.00    +0.000 C 
ATOM      2  O   UNK A   0       1.538   8.494  17.535  0.00  0.00    +0.000 OA
ATOM      3  N   TRP A   1       1.732   8.658  19.816  0.00  0.00    +0.000 N 
ATOM      4  H   TRP A   1       2.356   8.426  20.591  0.00  0.00    +0.000 HD
ENDROOT
BRANCH   1   8
ATOM      5  C   UNK A   0       6.251   6.346  17.138  0.00  0.00    +0.000 C 
ATOM      6  N   UNK A   0       5.071   6.136  17.951  0.00  0.00    +0.000 N 
ATOM      7  N   UNK A   0       4.127   7.134  17.968  0.00  0.00    +0.000 NA
ATOM      8  C   UNK A   0       3.018   6.946  18.624  0.00  0.00    +0.000 A 
ATOM      9  C   UNK A   0       2.700   5.702  19.354  0.00  0.00    +0.000 A 
ATOM     10  C   UNK A   0       1.495   5.482  20.034  0.00  0.00    +0.000 A 
ATOM     11  C   UNK A   0       1.252   4.256  20.664  0.00  0.00    +0.000 A 
ATOM     12  C   UNK A   0       2.218   3.256  20.639  0.00  0.00    +0.000 A 
ATOM     13  C   UNK A   0       3.424   3.476  19.976  0.00  0.00    +0.000 A 
ATOM     14  C   UNK A   0       3.665   4.697  19.339  0.00  0.00    +0.000 A 
ATOM     15  C   UNK A   0       4.922   4.908  18.614  0.00  0.00    +0.000 A 
ATOM     16  O   UNK A   0       5.781   4.024  18.604  0.00  0.00    +0.000 OA
ENDBRANCH   1   8
BRANCH   3  17
ATOM     17  CA  TRP A   1       0.856   9.824  19.959  0.00  0.00    +0.000 C 
BRANCH  17  18
ATOM     18  C   TRP A   1       1.159  10.557  21.270  0.00  0.00    +0.000 C 
ATOM     19  O   TRP A   1       1.078  11.777  21.399  0.00  0.00    +0.000 OA
BRANCH  18  20
ATOM     20  OXT TRP A   1       1.448   9.756  22.325  0.00  0.00    +0.000 OA
ATOM     21  HXT TRP A   1       1.121   8.838  22.253  0.00  0.00    +0.000 HD
ENDBRANCH  18  20
ENDBRANCH  17  18
BRANCH  17  22
ATOM     22  CB  TRP A   1      -0.638   9.505  19.798  0.00  0.00    +0.000 C 
BRANCH  22  23
ATOM     23  CG  TRP A   1      -1.460  10.533  19.085  0.00  0.00    +0.000 A 
ATOM     24  CD1 TRP A   1      -1.989  11.664  19.680  0.00  0.00    +0.000 A 
ATOM     25  NE1 TRP A   1      -2.608  12.383  18.697  0.00  0.00    +0.000 N 
ATOM     26  CE2 TRP A   1      -2.926  11.531  17.670  0.00  0.00    +0.000 A 
ATOM     27  CZ2 TRP A   1      -3.905  11.626  16.676  0.00  0.00    +0.000 A 
ATOM     28  CH2 TRP A   1      -3.899  10.642  15.686  0.00  0.00    +0.000 A 
ATOM     29  CZ3 TRP A   1      -2.887   9.686  15.637  0.00  0.00    +0.000 A 
ATOM     30  CE3 TRP A   1      -1.932   9.596  16.663  0.00  0.00    +0.000 A 
ATOM     31  CD2 TRP A   1      -2.019  10.476  17.760  0.00  0.00    +0.000 A 
ATOM     32  HE1 TRP A   1      -2.868  13.358  18.749  0.00  0.00    +0.000 HD
ENDBRANCH  22  23
ENDBRANCH  17  22
ENDBRANCH   3  17
TORSDOF 6
ENDMDL
MODEL 4
REMARK VINA RESULT:      -8.3      2.158      8.285
REMARK  Name = 
REMARK  7 active torsions:
REMARK  status: ('A' for Active; 'I' for Inactive)
REMARK    1  A    between atoms: C_1  and  N_2
REMARK    2  A    between atoms: C_4  and  C_5
REMARK    3  A    between atoms: N_7  and  CA_8
REMARK    4  A    between atoms: CA_8  and  CB_9
REMARK    5  A    between atoms: CA_8  and  C_19
REMARK    6  A    between atoms: CB_9  and  CG_10
REMARK    7  A    between atoms: C_19  and  OXT_21
REMARK                            x       y       z     vdW  Elec       q    Type
REMARK                         _______ _______ _______ _____ _____    ______ ____
ROOT
ATOM      1  C   UNK A   0       1.759   8.377  18.875  0.00  0.00    +0.000 C 
ATOM      2  O   UNK A   0       1.809   8.137  17.680  0.00  0.00    +0.000 OA
ATOM      3  N   TRP A   1       2.043   7.459  19.860  0.00  0.00    +0.000 N 
ATOM      4  H   TRP A   1       1.741   7.681  20.810  0.00  0.00    +0.000 HD
ENDROOT
BRANCH   1   8
ATOM      5  C   UNK A   0       1.889  13.149  18.284  0.00  0.00    +0.000 C 
ATOM      6  N   UNK A   0       1.378  12.043  19.067  0.00  0.00    +0.000 N 
ATOM      7  N   UNK A   0       1.715  10.773  18.664  0.00  0.00    +0.000 NA
ATOM      8  C   UNK A   0       1.339   9.759  19.389  0.00  0.00    +0.000 A 
ATOM      9  C   UNK A   0       0.571   9.889  20.643  0.00  0.00    +0.000 A 
ATOM     10  C   UNK A   0       0.192   8.803  21.444  0.00  0.00    +0.000 A 
ATOM     11  C   UNK A   0      -0.496   9.015  22.644  0.00  0.00    +0.000 A 
ATOM     12  C   UNK A   0      -0.831  10.306  23.037  0.00  0.00    +0.000 A 
ATOM     13  C   UNK A   0      -0.469  11.388  22.236  0.00  0.00    +0.000 A 
ATOM     14  C   UNK A   0       0.226  11.179  21.042  0.00  0.00    +0.000 A 
ATOM     15  C   UNK A   0       0.633  12.324  20.223  0.00  0.00    +0.000 A 
ATOM     16  O   UNK A   0       0.325  13.467  20.567  0.00  0.00    +0.000 OA
ENDBRANCH   1   8
BRANCH   3  17
ATOM     17  CA  TRP A   1       2.384   6.068  19.551  0.00  0.00    +0.000 C 
BRANCH  17  18
ATOM     18  C   TRP A   1       1.772   5.127  20.594  0.00  0.00    +0.000 C 
ATOM     19  O   TRP A   1       0.675   4.588  20.460  0.00  0.00    +0.000 OA
BRANCH  18  20
ATOM     20  OXT TRP A   1       2.564   4.855  21.660  0.00  0.00    +0.000 OA
ATOM     21  HXT TRP A   1       2.278   5.253  22.505  0.00  0.00    +0.000 HD
ENDBRANCH  18  20
ENDBRANCH  17  18
BRANCH  17  22
ATOM     22  CB  TRP A   1       3.888   5.824  19.354  0.00  0.00    +0.000 C 
BRANCH  22  23
ATOM     23  CG  TRP A   1       4.263   4.818  18.310  0.00  0.00    +0.000 A 
ATOM     24  CD1 TRP A   1       4.378   3.458  18.538  0.00  0.00    +0.000 A 
ATOM     25  NE1 TRP A   1       4.663   2.872  17.337  0.00  0.00    +0.000 N 
ATOM     26  CE2 TRP A   1       5.223   3.816  16.515  0.00  0.00    +0.000 A 
ATOM     27  CZ2 TRP A   1       6.065   3.677  15.407  0.00  0.00    +0.000 A 
ATOM     28  CH2 TRP A   1       6.371   4.838  14.695  0.00  0.00    +0.000 A 
ATOM     29  CZ3 TRP A   1       5.764   6.050  15.014  0.00  0.00    +0.000 A 
ATOM     30  CE3 TRP A   1       4.944   6.169  16.147  0.00  0.00    +0.000 A 
ATOM     31  CD2 TRP A   1       4.754   5.045  16.976  0.00  0.00    +0.000 A 
ATOM     32  HE1 TRP A   1       4.561   1.892  17.116  0.00  0.00    +0.000 HD
ENDBRANCH  22  23
ENDBRANCH  17  22
ENDBRANCH   3  17
TORSDOF 6
ENDMDL
MODEL 5
REMARK VINA RESULT:      -8.1      4.128      8.416
REMARK  Name = 
REMARK  7 active torsions:
REMARK  status: ('A' for Active; 'I' for Inactive)
REMARK    1  A    between atoms: C_1  and  N_2
REMARK    2  A    between atoms: C_4  and  C_5
REMARK    3  A    between atoms: N_7  and  CA_8
REMARK    4  A    between atoms: CA_8  and  CB_9
REMARK    5  A    between atoms: CA_8  and  C_19
REMARK    6  A    between atoms: CB_9  and  CG_10
REMARK    7  A    between atoms: C_19  and  OXT_21
REMARK                            x       y       z     vdW  Elec       q    Type
REMARK                         _______ _______ _______ _____ _____    ______ ____
ROOT
ATOM      1  C   UNK A   0       1.621  12.676  19.976  0.00  0.00    +0.000 C 
ATOM      2  O   UNK A   0       1.598  12.596  21.194  0.00  0.00    +0.000 OA
ATOM      3  N   TRP A   1       1.349  11.628  19.128  0.00  0.00    +0.000 N 
ATOM      4  H   TRP A   1       1.630  11.730  18.151  0.00  0.00    +0.000 HD
ENDROOT
BRANCH   1   8
ATOM      5  C   UNK A   0       4.994  15.288  17.753  0.00  0.00    +0.000 C 
ATOM      6  N   UNK A   0       3.611  15.210  18.176  0.00  0.00    +0.000 N 
ATOM      7  N   UNK A   0       3.207  14.061  18.812  0.00  0.00    +0.000 NA
ATOM      8  C   UNK A   0       1.992  13.988  19.275  0.00  0.00    +0.000 A 
ATOM      9  C   UNK A   0       1.009  15.085  19.170  0.00  0.00    +0.000 A 
ATOM     10  C   UNK A   0      -0.289  15.024  19.696  0.00  0.00    +0.000 A 
ATOM     11  C   UNK A   0      -1.145  16.125  19.594  0.00  0.00    +0.000 A 
ATOM     12  C   UNK A   0      -0.722  17.281  18.946  0.00  0.00    +0.000 A 
ATOM     13  C   UNK A   0       0.563  17.340  18.409  0.00  0.00    +0.000 A 
ATOM     14  C   UNK A   0       1.423  16.244  18.518  0.00  0.00    +0.000 A 
ATOM     15  C   UNK A   0       2.785  16.327  17.980  0.00  0.00    +0.000 A 
ATOM     16  O   UNK A   0       3.154  17.348  17.396  0.00  0.00    +0.000 OA
ENDBRANCH   1   8
BRANCH   3  17
ATOM     17  CA  TRP A   1       1.055  10.281  19.626  0.00  0.00    +0.000 C 
BRANCH  17  18
ATOM     18  C   TRP A   1       1.595   9.227  18.654  0.00  0.00    +0.000 C 
ATOM     19  O   TRP A   1       1.835   8.065  18.979  0.00  0.00    +0.000 OA
BRANCH  18  20
ATOM     20  OXT TRP A   1       1.718   9.637  17.369  0.00  0.00    +0.000 OA
ATOM     21  HXT TRP A   1       1.927   8.934  16.724  0.00  0.00    +0.000 HD
ENDBRANCH  18  20
ENDBRANCH  17  18
BRANCH  17  22
ATOM     22  CB  TRP A   1      -0.424  10.054  19.973  0.00  0.00    +0.000 C 
BRANCH  22  23
ATOM     23  CG  TRP A   1      -1.411  10.922  19.256  0.00  0.00    +0.000 A 
ATOM     24  CD1 TRP A   1      -2.094  11.977  19.835  0.00  0.00    +0.000 A 
ATOM     25  NE1 TRP A   1      -2.839  12.562  18.851  0.00  0.00    +0.000 N 
ATOM     26  CE2 TRP A   1      -3.047  11.640  17.857  0.00  0.00    +0.000 A 
ATOM     27  CZ2 TRP A   1      -4.052  11.553  16.888  0.00  0.00    +0.000 A 
ATOM     28  CH2 TRP A   1      -3.918  10.552  15.925  0.00  0.00    +0.000 A 
ATOM     29  CZ3 TRP A   1      -2.773   9.761  15.874  0.00  0.00    +0.000 A 
ATOM     30  CE3 TRP A   1      -1.791   9.850  16.874  0.00  0.00    +0.000 A 
ATOM     31  CD2 TRP A   1      -1.986  10.740  17.949  0.00  0.00    +0.000 A 
ATOM     32  HE1 TRP A   1      -3.244  13.487  18.884  0.00  0.00    +0.000 HD
ENDBRANCH  22  23
ENDBRANCH  17  22
ENDBRANCH   3  17
TORSDOF 6
ENDMDL
MODEL 6
REMARK VINA RESULT:      -8.1      2.489      4.046
REMARK  Name = 
REMARK  7 active torsions:
REMARK  status: ('A' for Active; 'I' for Inactive)
REMARK    1  A    between atoms: C_1  and  N_2
REMARK    2  A    between atoms: C_4  and  C_5
REMARK    3  A    between atoms: N_7  and  CA_8
REMARK    4  A    between atoms: CA_8  and  CB_9
REMARK    5  A    between atoms: CA_8  and  C_19
REMARK    6  A    between atoms: CB_9  and  CG_10
REMARK    7  A    between atoms: C_19  and  OXT_21
REMARK                            x       y       z     vdW  Elec       q    Type
REMARK                         _______ _______ _______ _____ _____    ______ ____
ROOT
ATOM      1  C   UNK A   0       2.043   8.189  18.969  0.00  0.00    +0.000 C 
ATOM      2  O   UNK A   0       1.796   8.395  20.146  0.00  0.00    +0.000 OA
ATOM      3  N   TRP A   1       1.669   9.025  17.943  0.00  0.00    +0.000 N 
ATOM      4  H   TRP A   1       1.707   8.650  16.993  0.00  0.00    +0.000 HD
ENDROOT
BRANCH   1   8
ATOM      5  C   UNK A   0       5.259   6.201  15.994  0.00  0.00    +0.000 C 
ATOM      6  N   UNK A   0       4.367   6.000  17.118  0.00  0.00    +0.000 N 
ATOM      7  N   UNK A   0       3.662   7.088  17.569  0.00  0.00    +0.000 NA
ATOM      8  C   UNK A   0       2.792   6.927  18.526  0.00  0.00    +0.000 A 
ATOM      9  C   UNK A   0       2.503   5.624  19.157  0.00  0.00    +0.000 A 
ATOM     10  C   UNK A   0       1.545   5.439  20.163  0.00  0.00    +0.000 A 
ATOM     11  C   UNK A   0       1.298   4.162  20.678  0.00  0.00    +0.000 A 
ATOM     12  C   UNK A   0       2.022   3.069  20.211  0.00  0.00    +0.000 A 
ATOM     13  C   UNK A   0       2.985   3.252  19.221  0.00  0.00    +0.000 A 
ATOM     14  C   UNK A   0       3.227   4.525  18.699  0.00  0.00    +0.000 A 
ATOM     15  C   UNK A   0       4.218   4.703  17.633  0.00  0.00    +0.000 A 
ATOM     16  O   UNK A   0       4.866   3.735  17.229  0.00  0.00    +0.000 OA
ENDBRANCH   1   8
BRANCH   3  17
ATOM     17  CA  TRP A   1       0.876  10.236  18.176  0.00  0.00    +0.000 C 
BRANCH  17  18
ATOM     18  C   TRP A   1       1.796  11.417  18.500  0.00  0.00    +0.000 C 
ATOM     19  O   TRP A   1       1.878  11.926  19.617  0.00  0.00    +0.000 OA
BRANCH  18  20
ATOM     20  OXT TRP A   1       2.592  11.825  17.482  0.00  0.00    +0.000 OA
ATOM     21  HXT TRP A   1       2.714  12.791  17.408  0.00  0.00    +0.000 HD
ENDBRANCH  18  20
ENDBRANCH  17  18
BRANCH  17  22
ATOM     22  CB  TRP A   1      -0.239  10.058  19.218  0.00  0.00    +0.000 C 
BRANCH  22  23
ATOM     23  CG  TRP A   1      -1.406  10.990  19.102  0.00  0.00    +0.000 A 
ATOM     24  CD1 TRP A   1      -1.864  11.803  20.123  0.00  0.00    +0.000 A 
ATOM     25  NE1 TRP A   1      -2.888  12.549  19.613  0.00  0.00    +0.000 N 
ATOM     26  CE2 TRP A   1      -3.406  11.892  18.527  0.00  0.00    +0.000 A 
ATOM     27  CZ2 TRP A   1      -4.671  11.965  17.934  0.00  0.00    +0.000 A 
ATOM     28  CH2 TRP A   1      -4.856  11.252  16.748  0.00  0.00    +0.000 A 
ATOM     29  CZ3 TRP A   1      -3.789  10.601  16.134  0.00  0.00    +0.000 A 
ATOM     30  CE3 TRP A   1      -2.536  10.520  16.763  0.00  0.00    +0.000 A 
ATOM     31  CD2 TRP A   1      -2.373  11.092  18.041  0.00  0.00    +0.000 A 
ATOM     32  HE1 TRP A   1      -3.261  13.398  20.015  0.00  0.00    +0.000 HD
ENDBRANCH  22  23
ENDBRANCH  17  22
ENDBRANCH   3  17
TORSDOF 6
ENDMDL
MODEL 7
REMARK VINA RESULT:      -8.0      2.369      3.746
REMARK  Name = 
REMARK  7 active torsions:
REMARK  status: ('A' for Active; 'I' for Inactive)
REMARK    1  A    between atoms: C_1  and  N_2
REMARK    2  A    between atoms: C_4  and  C_5
REMARK    3  A    between atoms: N_7  and  CA_8
REMARK    4  A    between atoms: CA_8  and  CB_9
REMARK    5  A    between atoms: CA_8  and  C_19
REMARK    6  A    between atoms: CB_9  and  CG_10
REMARK    7  A    between atoms: C_19  and  OXT_21
REMARK                            x       y       z     vdW  Elec       q    Type
REMARK                         _______ _______ _______ _____ _____    ______ ____
ROOT
ATOM      1  C   UNK A   0       2.157   7.209  19.486  0.00  0.00    +0.000 C 
ATOM      2  O   UNK A   0       1.732   6.869  20.579  0.00  0.00    +0.000 OA
ATOM      3  N   TRP A   1       1.803   8.375  18.849  0.00  0.00    +0.000 N 
ATOM      4  H   TRP A   1       2.017   8.450  17.853  0.00  0.00    +0.000 HD
ENDROOT
BRANCH   1   8
ATOM      5  C   UNK A   0       6.295   6.864  17.058  0.00  0.00    +0.000 C 
ATOM      6  N   UNK A   0       5.137   6.165  17.576  0.00  0.00    +0.000 N 
ATOM      7  N   UNK A   0       4.221   6.899  18.290  0.00  0.00    +0.000 NA
ATOM      8  C   UNK A   0       3.130   6.320  18.703  0.00  0.00    +0.000 A 
ATOM      9  C   UNK A   0       2.804   4.905  18.438  0.00  0.00    +0.000 A 
ATOM     10  C   UNK A   0       1.616   4.286  18.852  0.00  0.00    +0.000 A 
ATOM     11  C   UNK A   0       1.362   2.951  18.521  0.00  0.00    +0.000 A 
ATOM     12  C   UNK A   0       2.300   2.220  17.799  0.00  0.00    +0.000 A 
ATOM     13  C   UNK A   0       3.489   2.828  17.398  0.00  0.00    +0.000 A 
ATOM     14  C   UNK A   0       3.740   4.164  17.720  0.00  0.00    +0.000 A 
ATOM     15  C   UNK A   0       4.978   4.806  17.265  0.00  0.00    +0.000 A 
ATOM     16  O   UNK A   0       5.813   4.153  16.636  0.00  0.00    +0.000 OA
ENDBRANCH   1   8
BRANCH   3  17
ATOM     17  CA  TRP A   1       0.822   9.304  19.416  0.00  0.00    +0.000 C 
BRANCH  17  18
ATOM     18  C   TRP A   1       0.262  10.218  18.321  0.00  0.00    +0.000 C 
ATOM     19  O   TRP A   1      -0.870  10.101  17.853  0.00  0.00    +0.000 OA
BRANCH  18  20
ATOM     20  OXT TRP A   1       1.075  11.236  17.949  0.00  0.00    +0.000 OA
ATOM     21  HXT TRP A   1       1.038  12.030  18.518  0.00  0.00    +0.000 HD
ENDBRANCH  18  20
ENDBRANCH  17  18
BRANCH  17  22
ATOM     22  CB  TRP A   1       1.339  10.093  20.629  0.00  0.00    +0.000 C 
BRANCH  22  23
ATOM     23  CG  TRP A   1       0.356  10.324  21.735  0.00  0.00    +0.000 A 
ATOM     24  CD1 TRP A   1      -0.161   9.327  22.544  0.00  0.00    +0.000 A 
ATOM     25  NE1 TRP A   1      -0.960   9.936  23.470  0.00  0.00    +0.000 N 
ATOM     26  CE2 TRP A   1      -1.359  11.149  22.969  0.00  0.00    +0.000 A 
ATOM     27  CZ2 TRP A   1      -2.472  11.939  23.273  0.00  0.00    +0.000 A 
ATOM     28  CH2 TRP A   1      -2.538  13.198  22.673  0.00  0.00    +0.000 A 
ATOM     29  CZ3 TRP A   1      -1.479  13.676  21.904  0.00  0.00    +0.000 A 
ATOM     30  CE3 TRP A   1      -0.385  12.853  21.592  0.00  0.00    +0.000 A 
ATOM     31  CD2 TRP A   1      -0.378  11.520  22.051  0.00  0.00    +0.000 A 
ATOM     32  HE1 TRP A   1      -1.276   9.530  24.339  0.00  0.00    +0.000 HD
ENDBRANCH  22  23
ENDBRANCH  17  22
ENDBRANCH   3  17
TORSDOF 6
ENDMDL
MODEL 8
REMARK VINA RESULT:      -8.0      2.623      7.980
REMARK  Name = 
REMARK  7 active torsions:
REMARK  status: ('A' for Active; 'I' for Inactive)
REMARK    1  A    between atoms: C_1  and  N_2
REMARK    2  A    between atoms: C_4  and  C_5
REMARK    3  A    between atoms: N_7  and  CA_8
REMARK    4  A    between atoms: CA_8  and  CB_9
REMARK    5  A    between atoms: CA_8  and  C_19
REMARK    6  A    between atoms: CB_9  and  CG_10
REMARK    7  A    between atoms: C_19  and  OXT_21
REMARK                            x       y       z     vdW  Elec       q    Type
REMARK                         _______ _______ _______ _____ _____    ______ ____
ROOT
ATOM      1  C   UNK A   0      -0.481  10.638  20.150  0.00  0.00    +0.000 C 
ATOM      2  O   UNK A   0       0.571  11.212  19.922  0.00  0.00    +0.000 OA
ATOM      3  N   TRP A   1      -0.579   9.442  20.821  0.00  0.00    +0.000 N 
ATOM      4  H   TRP A   1      -1.461   8.932  20.747  0.00  0.00    +0.000 HD
ENDROOT
BRANCH   1   8
ATOM      5  C   UNK A   0      -4.379  13.271  21.160  0.00  0.00    +0.000 C 
ATOM      6  N   UNK A   0      -3.660  12.512  20.157  0.00  0.00    +0.000 N 
ATOM      7  N   UNK A   0      -2.453  11.967  20.519  0.00  0.00    +0.000 NA
ATOM      8  C   UNK A   0      -1.818  11.213  19.667  0.00  0.00    +0.000 A 
ATOM      9  C   UNK A   0      -2.328  10.893  18.319  0.00  0.00    +0.000 A 
ATOM     10  C   UNK A   0      -1.665  10.055  17.412  0.00  0.00    +0.000 A 
ATOM     11  C   UNK A   0      -2.238   9.765  16.169  0.00  0.00    +0.000 A 
ATOM     12  C   UNK A   0      -3.461  10.326  15.817  0.00  0.00    +0.000 A 
ATOM     13  C   UNK A   0      -4.116  11.170  16.711  0.00  0.00    +0.000 A 
ATOM     14  C   UNK A   0      -3.550  11.455  17.956  0.00  0.00    +0.000 A 
ATOM     15  C   UNK A   0      -4.263  12.316  18.904  0.00  0.00    +0.000 A 
ATOM     16  O   UNK A   0      -5.340  12.822  18.585  0.00  0.00    +0.000 OA
ENDBRANCH   1   8
BRANCH   3  17
ATOM     17  CA  TRP A   1       0.605   8.710  21.282  0.00  0.00    +0.000 C 
BRANCH  17  18
ATOM     18  C   TRP A   1       1.125   9.315  22.591  0.00  0.00    +0.000 C 
ATOM     19  O   TRP A   1       0.389   9.725  23.488  0.00  0.00    +0.000 OA
BRANCH  18  20
ATOM     20  OXT TRP A   1       2.471   9.295  22.739  0.00  0.00    +0.000 OA
ATOM     21  HXT TRP A   1       2.796   9.508  23.636  0.00  0.00    +0.000 HD
ENDBRANCH  18  20
ENDBRANCH  17  18
BRANCH  17  22
ATOM     22  CB  TRP A   1       1.707   8.576  20.221  0.00  0.00    +0.000 C 
BRANCH  22  23
ATOM     23  CG  TRP A   1       2.059   7.180  19.808  0.00  0.00    +0.000 A 
ATOM     24  CD1 TRP A   1       1.798   6.050  20.562  0.00  0.00    +0.000 A 
ATOM     25  NE1 TRP A   1       2.199   4.973  19.824  0.00  0.00    +0.000 N 
ATOM     26  CE2 TRP A   1       3.134   5.393  18.914  0.00  0.00    +0.000 A 
ATOM     27  CZ2 TRP A   1       4.146   4.689  18.253  0.00  0.00    +0.000 A 
ATOM     28  CH2 TRP A   1       4.867   5.381  17.279  0.00  0.00    +0.000 A 
ATOM     29  CZ3 TRP A   1       4.506   6.675  16.910  0.00  0.00    +0.000 A 
ATOM     30  CE3 TRP A   1       3.504   7.369  17.607  0.00  0.00    +0.000 A 
ATOM     31  CD2 TRP A   1       2.875   6.747  18.704  0.00  0.00    +0.000 A 
ATOM     32  HE1 TRP A   1       1.921   4.014  19.976  0.00  0.00    +0.000 HD
ENDBRANCH  22  23
ENDBRANCH  17  22
ENDBRANCH   3  17
TORSDOF 6
ENDMDL
MODEL 9
REMARK VINA RESULT:      -7.9      2.421      8.537
REMARK  Name = 
REMARK  7 active torsions:
REMARK  status: ('A' for Active; 'I' for Inactive)
REMARK    1  A    between atoms: C_1  and  N_2
REMARK    2  A    between atoms: C_4  and  C_5
REMARK    3  A    between atoms: N_7  and  CA_8
REMARK    4  A    between atoms: CA_8  and  CB_9
REMARK    5  A    between atoms: CA_8  and  C_19
REMARK    6  A    between atoms: CB_9  and  CG_10
REMARK    7  A    between atoms: C_19  and  OXT_21
REMARK                            x       y       z     vdW  Elec       q    Type
REMARK                         _______ _______ _______ _____ _____    ______ ____
ROOT
ATOM      1  C   UNK A   0       1.833   7.503  19.768  0.00  0.00    +0.000 C 
ATOM      2  O   UNK A   0       1.707   6.785  20.747  0.00  0.00    +0.000 OA
ATOM      3  N   TRP A   1       2.342   7.082  18.562  0.00  0.00    +0.000 N 
ATOM      4  H   TRP A   1       2.630   7.801  17.896  0.00  0.00    +0.000 HD
ENDROOT
BRANCH   1   8
ATOM      5  C   UNK A   0       2.205  11.873  17.792  0.00  0.00    +0.000 C 
ATOM      6  N   UNK A   0       1.602  11.065  18.831  0.00  0.00    +0.000 N 
ATOM      7  N   UNK A   0       1.906   9.726  18.849  0.00  0.00    +0.000 NA
ATOM      8  C   UNK A   0       1.444   8.985  19.817  0.00  0.00    +0.000 A 
ATOM      9  C   UNK A   0       0.612   9.505  20.920  0.00  0.00    +0.000 A 
ATOM     10  C   UNK A   0       0.141   8.719  21.980  0.00  0.00    +0.000 A 
ATOM     11  C   UNK A   0      -0.606   9.298  23.012  0.00  0.00    +0.000 A 
ATOM     12  C   UNK A   0      -0.906  10.656  22.979  0.00  0.00    +0.000 A 
ATOM     13  C   UNK A   0      -0.452  11.438  21.919  0.00  0.00    +0.000 A 
ATOM     14  C   UNK A   0       0.302  10.863  20.891  0.00  0.00    +0.000 A 
ATOM     15  C   UNK A   0       0.805  11.699  19.798  0.00  0.00    +0.000 A 
ATOM     16  O   UNK A   0       0.528  12.900  19.764  0.00  0.00    +0.000 OA
ENDBRANCH   1   8
BRANCH   3  17
ATOM     17  CA  TRP A   1       2.839   5.717  18.362  0.00  0.00    +0.000 C 
BRANCH  17  18
ATOM     18  C   TRP A   1       1.674   4.722  18.375  0.00  0.00    +0.000 C 
ATOM     19  O   TRP A   1       1.089   4.350  17.360  0.00  0.00    +0.000 OA
BRANCH  18  20
ATOM     20  OXT TRP A   1       1.375   4.201  19.590  0.00  0.00    +0.000 OA
ATOM     21  HXT TRP A   1       1.695   3.291  19.745  0.00  0.00    +0.000 HD
ENDBRANCH  18  20
ENDBRANCH  17  18
BRANCH  17  22
ATOM     22  CB  TRP A   1       3.964   5.316  19.328  0.00  0.00    +0.000 C 
BRANCH  22  23
ATOM     23  CG  TRP A   1       5.298   5.034  18.709  0.00  0.00    +0.000 A 
ATOM     24  CD1 TRP A   1       6.514   5.330  19.298  0.00  0.00    +0.000 A 
ATOM     25  NE1 TRP A   1       7.489   4.861  18.465  0.00  0.00    +0.000 N 
ATOM     26  CE2 TRP A   1       6.969   4.764  17.199  0.00  0.00    +0.000 A 
ATOM     27  CZ2 TRP A   1       7.600   4.772  15.951  0.00  0.00    +0.000 A 
ATOM     28  CH2 TRP A   1       6.798   4.528  14.835  0.00  0.00    +0.000 A 
ATOM     29  CZ3 TRP A   1       5.458   4.177  14.984  0.00  0.00    +0.000 A 
ATOM     30  CE3 TRP A   1       4.842   4.203  16.245  0.00  0.00    +0.000 A 
ATOM     31  CD2 TRP A   1       5.594   4.608  17.366  0.00  0.00    +0.000 A 
ATOM     32  HE1 TRP A   1       8.453   4.695  18.715  0.00  0.00    +0.000 HD
ENDBRANCH  22  23
ENDBRANCH  17  22
ENDBRANCH   3  17
TORSDOF 6
ENDMDL
