MODEL 1
REMARK VINA RESULT:      -8.1      0.000      0.000
REMARK  Name = 
REMARK  7 active torsions:
REMARK  status: ('A' for Active; 'I' for Inactive)
REMARK    1  A    between atoms: C_1  and  N_2
REMARK    2  A    between atoms: C_6  and  C_7
REMARK    3  A    between atoms: C_7  and  C_8
REMARK    4  A    between atoms: C_8  and  C_9
REMARK    5  A    between atoms: C_13  and  N_14
REMARK    6  A    between atoms: C_18  and  C_19
REMARK    7  A    between atoms: C_23  and  C_24
REMARK                            x       y       z     vdW  Elec       q    Type
REMARK                         _______ _______ _______ _____ _____    ______ ____
ROOT
ATOM      1  N   UNL     1       3.040   6.418  18.281  0.00  0.00    +0.000 N 
ATOM      2  C   UNL     1       4.456   5.991  18.575  0.00  0.00    +0.000 C 
ATOM      3  C   UNL     1       4.271   4.495  18.906  0.00  0.00    +0.000 A 
ATOM      4  C   UNL     1       5.103   3.508  19.426  0.00  0.00    +0.000 A 
ATOM      5  C   UNL     1       4.488   2.413  20.077  0.00  0.00    +0.000 A 
ATOM      6  C   UNL     1       3.120   2.486  20.394  0.00  0.00    +0.000 A 
ATOM      7  C   UNL     1       2.340   3.506  19.854  0.00  0.00    +0.000 A 
ATOM      8  C   UNL     1       2.908   4.247  18.853  0.00  0.00    +0.000 A 
ATOM      9  C   UNL     1       2.289   5.232  17.923  0.00  0.00    +0.000 C 
ENDROOT
BRANCH   1  14
ATOM     10  C   UNL     1       1.204   9.252  19.942  0.00  0.00    +0.000 A 
ATOM     11  C   UNL     1       1.268  10.194  18.892  0.00  0.00    +0.000 A 
ATOM     12  C   UNL     1       1.801   9.867  17.668  0.00  0.00    +0.000 A 
ATOM     13  C   UNL     1       2.317   8.592  17.481  0.00  0.00    +0.000 A 
ATOM     14  C   UNL     1       2.364   7.599  18.491  0.00  0.00    +0.000 A 
ATOM     15  C   UNL     1       1.739   7.949  19.697  0.00  0.00    +0.000 A 
BRANCH  10  16
ATOM     16  C   UNL     1       0.564   9.732  21.344  0.00  0.00    +0.000 C 
ATOM     17  C   UNL     1      -0.611   8.925  21.950  0.00  0.00    +0.000 C 
ATOM     18  O   UNL     1       0.141   8.589  23.137  0.00  0.00    +0.000 OA
ATOM     19  C   UNL     1       1.320   9.228  22.616  0.00  0.00    +0.000 C 
BRANCH  16  20
ATOM     20  C   UNL     1       0.424  11.265  21.382  0.00  0.00    +0.000 C 
BRANCH  20  26
ATOM     21  C   UNL     1      -2.159  12.127  19.741  0.00  0.00    +0.000 C 
ATOM     22  N   UNL     1      -1.970  12.157  21.167  0.00  0.00    +0.000 N 
ATOM     23  C   UNL     1      -2.871  12.649  22.064  0.00  0.00    +0.000 A 
ATOM     24  N   UNL     1      -2.398  12.519  23.279  0.00  0.00    +0.000 NA
ATOM     25  N   UNL     1      -1.153  11.956  23.180  0.00  0.00    +0.000 NA
ATOM     26  C   UNL     1      -0.884  11.752  21.905  0.00  0.00    +0.000 A 
ENDBRANCH  20  26
ENDBRANCH  16  20
ENDBRANCH  10  16
ENDBRANCH   1  14
BRANCH   5  27
ATOM     27  C   UNL     1       5.225   1.228  20.595  0.00  0.00    +0.000 C 
ATOM     28  N   UNL     1       5.282   0.123  19.794  0.00  0.00    +0.000 N 
ATOM     29  O   UNL     1       5.686   1.202  21.730  0.00  0.00    +0.000 OA
ATOM     30  H   UNL     1       4.674   0.007  18.999  0.00  0.00    +0.000 HD
ATOM     31  H   UNL     1       5.620  -0.720  20.245  0.00  0.00    +0.000 HD
ENDBRANCH   5  27
BRANCH   7  32
ATOM     32  C   UNL     1       1.106   4.025  20.547  0.00  0.00    +0.000 C 
ATOM     33  F   UNL     1      -0.029   3.902  19.806  0.00  0.00    +0.000 F 
ATOM     34  F   UNL     1       0.849   3.329  21.697  0.00  0.00    +0.000 F 
ATOM     35  F   UNL     1       1.194   5.326  20.919  0.00  0.00    +0.000 F 
ENDBRANCH   7  32
TORSDOF 6
ENDMDL
MODEL 2
REMARK VINA RESULT:      -8.0      3.436      9.173
REMARK  Name = 
REMARK  7 active torsions:
REMARK  status: ('A' for Active; 'I' for Inactive)
REMARK    1  A    between atoms: C_1  and  N_2
REMARK    2  A    between atoms: C_6  and  C_7
REMARK    3  A    between atoms: C_7  and  C_8
REMARK    4  A    between atoms: C_8  and  C_9
REMARK    5  A    between atoms: C_13  and  N_14
REMARK    6  A    between atoms: C_18  and  C_19
REMARK    7  A    between atoms: C_23  and  C_24
REMARK                            x       y       z     vdW  Elec       q    Type
REMARK                         _______ _______ _______ _____ _____    ______ ____
ROOT
ATOM      1  N   UNL     1       0.238   9.517  20.325  0.00  0.00    +0.000 N 
ATOM      2  C   UNL     1       0.158   9.626  21.827  0.00  0.00    +0.000 C 
ATOM      3  C   UNL     1      -0.663  10.920  22.006  0.00  0.00    +0.000 A 
ATOM      4  C   UNL     1      -0.982  11.722  23.097  0.00  0.00    +0.000 A 
ATOM      5  C   UNL     1      -1.297  13.078  22.842  0.00  0.00    +0.000 A 
ATOM      6  C   UNL     1      -1.033  13.613  21.569  0.00  0.00    +0.000 A 
ATOM      7  C   UNL     1      -0.703  12.761  20.517  0.00  0.00    +0.000 A 
ATOM      8  C   UNL     1      -0.887  11.422  20.733  0.00  0.00    +0.000 A 
ATOM      9  C   UNL     1      -0.858  10.285  19.770  0.00  0.00    +0.000 C 
ENDROOT
BRANCH   1  14
ATOM     10  C   UNL     1       2.629   7.219  18.546  0.00  0.00    +0.000 A 
ATOM     11  C   UNL     1       2.994   8.072  17.482  0.00  0.00    +0.000 A 
ATOM     12  C   UNL     1       2.548   9.371  17.419  0.00  0.00    +0.000 A 
ATOM     13  C   UNL     1       1.693   9.833  18.409  0.00  0.00    +0.000 A 
ATOM     14  C   UNL     1       1.213   9.038  19.479  0.00  0.00    +0.000 A 
ATOM     15  C   UNL     1       1.754   7.746  19.548  0.00  0.00    +0.000 A 
BRANCH  10  16
ATOM     16  C   UNL     1       3.200   5.710  18.530  0.00  0.00    +0.000 C 
ATOM     17  C   UNL     1       4.199   5.295  17.422  0.00  0.00    +0.000 C 
ATOM     18  O   UNL     1       5.244   5.003  18.376  0.00  0.00    +0.000 OA
ATOM     19  C   UNL     1       4.427   5.463  19.467  0.00  0.00    +0.000 C 
BRANCH  16  20
ATOM     20  C   UNL     1       2.081   4.701  18.846  0.00  0.00    +0.000 C 
BRANCH  20  26
ATOM     21  C   UNL     1       3.521   1.877  19.084  0.00  0.00    +0.000 C 
ATOM     22  N   UNL     1       2.906   2.644  20.134  0.00  0.00    +0.000 N 
ATOM     23  C   UNL     1       2.772   2.231  21.426  0.00  0.00    +0.000 A 
ATOM     24  N   UNL     1       2.178   3.165  22.128  0.00  0.00    +0.000 NA
ATOM     25  N   UNL     1       1.893   4.201  21.277  0.00  0.00    +0.000 NA
ATOM     26  C   UNL     1       2.315   3.882  20.070  0.00  0.00    +0.000 A 
ENDBRANCH  20  26
ENDBRANCH  16  20
ENDBRANCH  10  16
ENDBRANCH   1  14
BRANCH   5  27
ATOM     27  C   UNL     1      -1.758  14.038  23.881  0.00  0.00    +0.000 C 
ATOM     28  N   UNL     1      -3.105  14.154  24.078  0.00  0.00    +0.000 N 
ATOM     29  O   UNL     1      -0.974  14.767  24.477  0.00  0.00    +0.000 OA
ATOM     30  H   UNL     1      -3.775  13.798  23.414  0.00  0.00    +0.000 HD
ATOM     31  H   UNL     1      -3.391  14.942  24.647  0.00  0.00    +0.000 HD
ENDBRANCH   5  27
BRANCH   7  32
ATOM     32  C   UNL     1       0.143  13.213  19.354  0.00  0.00    +0.000 C 
ATOM     33  F   UNL     1       0.249  14.565  19.248  0.00  0.00    +0.000 F 
ATOM     34  F   UNL     1       1.433  12.770  19.473  0.00  0.00    +0.000 F 
ATOM     35  F   UNL     1      -0.292  12.757  18.153  0.00  0.00    +0.000 F 
ENDBRANCH   7  32
TORSDOF 6
ENDMDL
MODEL 3
REMARK VINA RESULT:      -8.0      2.855      8.925
REMARK  Name = 
REMARK  7 active torsions:
REMARK  status: ('A' for Active; 'I' for Inactive)
REMARK    1  A    between atoms: C_1  and  N_2
REMARK    2  A    between atoms: C_6  and  C_7
REMARK    3  A    between atoms: C_7  and  C_8
REMARK    4  A    between atoms: C_8  and  C_9
REMARK    5  A    between atoms: C_13  and  N_14
REMARK    6  A    between atoms: C_18  and  C_19
REMARK    7  A    between atoms: C_23  and  C_24
REMARK                            x       y       z     vdW  Elec       q    Type
REMARK                         _______ _______ _______ _____ _____    ______ ____
ROOT
ATOM      1  N   UNL     1       1.364   9.141  19.055  0.00  0.00    +0.000 N 
ATOM      2  C   UNL     1       0.304   9.671  18.122  0.00  0.00    +0.000 C 
ATOM      3  C   UNL     1      -0.360  10.762  18.987  0.00  0.00    +0.000 A 
ATOM      4  C   UNL     1      -1.503  11.544  18.852  0.00  0.00    +0.000 A 
ATOM      5  C   UNL     1      -2.092  12.051  20.034  0.00  0.00    +0.000 A 
ATOM      6  C   UNL     1      -1.667  11.550  21.278  0.00  0.00    +0.000 A 
ATOM      7  C   UNL     1      -0.522  10.760  21.349  0.00  0.00    +0.000 A 
ATOM      8  C   UNL     1       0.260  10.711  20.227  0.00  0.00    +0.000 A 
ATOM      9  C   UNL     1       1.634  10.168  20.041  0.00  0.00    +0.000 C 
ENDROOT
BRANCH   1  14
ATOM     10  C   UNL     1       3.387   6.004  18.574  0.00  0.00    +0.000 A 
ATOM     11  C   UNL     1       3.200   5.431  19.851  0.00  0.00    +0.000 A 
ATOM     12  C   UNL     1       2.366   6.007  20.780  0.00  0.00    +0.000 A 
ATOM     13  C   UNL     1       1.726   7.195  20.459  0.00  0.00    +0.000 A 
ATOM     14  C   UNL     1       1.900   7.886  19.234  0.00  0.00    +0.000 A 
ATOM     15  C   UNL     1       2.696   7.224  18.288  0.00  0.00    +0.000 A 
BRANCH  10  16
ATOM     16  C   UNL     1       4.389   5.256  17.553  0.00  0.00    +0.000 C 
ATOM     17  C   UNL     1       5.393   6.101  16.730  0.00  0.00    +0.000 C 
ATOM     18  O   UNL     1       6.536   5.451  17.328  0.00  0.00    +0.000 OA
ATOM     19  C   UNL     1       5.691   4.691  18.209  0.00  0.00    +0.000 C 
BRANCH  16  20
ATOM     20  C   UNL     1       3.653   4.141  16.788  0.00  0.00    +0.000 C 
BRANCH  20  26
ATOM     21  C   UNL     1       3.760   1.611  18.709  0.00  0.00    +0.000 C 
ATOM     22  N   UNL     1       2.607   2.386  18.337  0.00  0.00    +0.000 N 
ATOM     23  C   UNL     1       1.324   2.102  18.699  0.00  0.00    +0.000 A 
ATOM     24  N   UNL     1       0.515   3.007  18.204  0.00  0.00    +0.000 NA
ATOM     25  N   UNL     1       1.276   3.889  17.481  0.00  0.00    +0.000 NA
ATOM     26  C   UNL     1       2.536   3.506  17.544  0.00  0.00    +0.000 A 
ENDBRANCH  20  26
ENDBRANCH  16  20
ENDBRANCH  10  16
ENDBRANCH   1  14
BRANCH   5  27
ATOM     27  C   UNL     1      -3.251  12.983  20.057  0.00  0.00    +0.000 C 
ATOM     28  N   UNL     1      -3.029  14.253  20.508  0.00  0.00    +0.000 N 
ATOM     29  O   UNL     1      -4.383  12.610  19.771  0.00  0.00    +0.000 OA
ATOM     30  H   UNL     1      -2.197  14.501  21.021  0.00  0.00    +0.000 HD
ATOM     31  H   UNL     1      -3.864  14.799  20.690  0.00  0.00    +0.000 HD
ENDBRANCH   5  27
BRANCH   7  32
ATOM     32  C   UNL     1      -0.325   9.731  22.432  0.00  0.00    +0.000 C 
ATOM     33  F   UNL     1       0.969   9.603  22.835  0.00  0.00    +0.000 F 
ATOM     34  F   UNL     1      -1.013  10.061  23.568  0.00  0.00    +0.000 F 
ATOM     35  F   UNL     1      -0.755   8.490  22.092  0.00  0.00    +0.000 F 
ENDBRANCH   7  32
TORSDOF 6
ENDMDL
MODEL 4
REMARK VINA RESULT:      -7.9      3.950      5.403
REMARK  Name = 
REMARK  7 active torsions:
REMARK  status: ('A' for Active; 'I' for Inactive)
REMARK    1  A    between atoms: C_1  and  N_2
REMARK    2  A    between atoms: C_6  and  C_7
REMARK    3  A    between atoms: C_7  and  C_8
REMARK    4  A    between atoms: C_8  and  C_9
REMARK    5  A    between atoms: C_13  and  N_14
REMARK    6  A    between atoms: C_18  and  C_19
REMARK    7  A    between atoms: C_23  and  C_24
REMARK                            x       y       z     vdW  Elec       q    Type
REMARK                         _______ _______ _______ _____ _____    ______ ____
ROOT
ATOM      1  N   UNL     1       3.975   4.214  18.093  0.00  0.00    +0.000 N 
ATOM      2  C   UNL     1       3.687   3.993  16.629  0.00  0.00    +0.000 C 
ATOM      3  C   UNL     1       5.090   4.149  16.006  0.00  0.00    +0.000 A 
ATOM      4  C   UNL     1       5.565   4.242  14.701  0.00  0.00    +0.000 A 
ATOM      5  C   UNL     1       6.808   4.890  14.503  0.00  0.00    +0.000 A 
ATOM      6  C   UNL     1       7.374   5.621  15.563  0.00  0.00    +0.000 A 
ATOM      7  C   UNL     1       6.846   5.498  16.846  0.00  0.00    +0.000 A 
ATOM      8  C   UNL     1       5.946   4.485  17.044  0.00  0.00    +0.000 A 
ATOM      9  C   UNL     1       5.381   3.941  18.310  0.00  0.00    +0.000 C 
ENDROOT
BRANCH   1  14
ATOM     10  C   UNL     1       1.965   6.666  20.121  0.00  0.00    +0.000 A 
ATOM     11  C   UNL     1       1.466   5.777  21.098  0.00  0.00    +0.000 A 
ATOM     12  C   UNL     1       1.859   4.460  21.137  0.00  0.00    +0.000 A 
ATOM     13  C   UNL     1       2.738   3.996  20.169  0.00  0.00    +0.000 A 
ATOM     14  C   UNL     1       3.242   4.787  19.107  0.00  0.00    +0.000 A 
ATOM     15  C   UNL     1       2.877   6.141  19.152  0.00  0.00    +0.000 A 
BRANCH  10  16
ATOM     16  C   UNL     1       1.442   8.192  20.155  0.00  0.00    +0.000 C 
ATOM     17  C   UNL     1       0.104   8.513  20.866  0.00  0.00    +0.000 C 
ATOM     18  O   UNL     1       0.744   9.381  21.829  0.00  0.00    +0.000 OA
ATOM     19  C   UNL     1       2.045   9.067  21.301  0.00  0.00    +0.000 C 
BRANCH  16  20
ATOM     20  C   UNL     1       1.666   8.874  18.793  0.00  0.00    +0.000 C 
BRANCH  20  26
ATOM     21  C   UNL     1       1.535  11.990  19.413  0.00  0.00    +0.000 C 
ATOM     22  N   UNL     1       0.558  11.186  18.729  0.00  0.00    +0.000 N 
ATOM     23  C   UNL     1      -0.653  11.632  18.291  0.00  0.00    +0.000 A 
ATOM     24  N   UNL     1      -1.297  10.655  17.702  0.00  0.00    +0.000 NA
ATOM     25  N   UNL     1      -0.506   9.537  17.775  0.00  0.00    +0.000 NA
ATOM     26  C   UNL     1       0.606   9.850  18.410  0.00  0.00    +0.000 A 
ENDBRANCH  20  26
ENDBRANCH  16  20
ENDBRANCH  10  16
ENDBRANCH   1  14
BRANCH   5  27
ATOM     27  C   UNL     1       7.502   4.982  13.191  0.00  0.00    +0.000 C 
ATOM     28  N   UNL     1       8.530   5.874  13.084  0.00  0.00    +0.000 N 
ATOM     29  O   UNL     1       7.116   4.353  12.212  0.00  0.00    +0.000 OA
ATOM     30  H   UNL     1       8.678   6.605  13.763  0.00  0.00    +0.000 HD
ATOM     31  H   UNL     1       8.853   6.050  12.139  0.00  0.00    +0.000 HD
ENDBRANCH   5  27
BRANCH   7  32
ATOM     32  C   UNL     1       6.948   6.604  17.865  0.00  0.00    +0.000 C 
ATOM     33  F   UNL     1       7.859   7.562  17.541  0.00  0.00    +0.000 F 
ATOM     34  F   UNL     1       5.764   7.278  17.992  0.00  0.00    +0.000 F 
ATOM     35  F   UNL     1       7.259   6.171  19.112  0.00  0.00    +0.000 F 
ENDBRANCH   7  32
TORSDOF 6
ENDMDL
MODEL 5
REMARK VINA RESULT:      -7.9      3.910      5.185
REMARK  Name = 
REMARK  7 active torsions:
REMARK  status: ('A' for Active; 'I' for Inactive)
REMARK    1  A    between atoms: C_1  and  N_2
REMARK    2  A    between atoms: C_6  and  C_7
REMARK    3  A    between atoms: C_7  and  C_8
REMARK    4  A    between atoms: C_8  and  C_9
REMARK    5  A    between atoms: C_13  and  N_14
REMARK    6  A    between atoms: C_18  and  C_19
REMARK    7  A    between atoms: C_23  and  C_24
REMARK                            x       y       z     vdW  Elec       q    Type
REMARK                         _______ _______ _______ _____ _____    ______ ____
ROOT
ATOM      1  N   UNL     1       3.927   4.447  18.061  0.00  0.00    +0.000 N 
ATOM      2  C   UNL     1       3.613   4.091  16.630  0.00  0.00    +0.000 C 
ATOM      3  C   UNL     1       5.004   4.189  15.969  0.00  0.00    +0.000 A 
ATOM      4  C   UNL     1       5.455   4.160  14.653  0.00  0.00    +0.000 A 
ATOM      5  C   UNL     1       6.693   4.786  14.374  0.00  0.00    +0.000 A 
ATOM      6  C   UNL     1       7.278   5.611  15.351  0.00  0.00    +0.000 A 
ATOM      7  C   UNL     1       6.773   5.608  16.649  0.00  0.00    +0.000 A 
ATOM      8  C   UNL     1       5.878   4.619  16.956  0.00  0.00    +0.000 A 
ATOM      9  C   UNL     1       5.338   4.194  18.278  0.00  0.00    +0.000 C 
ENDROOT
BRANCH   1  14
ATOM     10  C   UNL     1       2.024   7.108  19.923  0.00  0.00    +0.000 A 
ATOM     11  C   UNL     1       1.465   6.300  20.938  0.00  0.00    +0.000 A 
ATOM     12  C   UNL     1       1.787   4.969  21.054  0.00  0.00    +0.000 A 
ATOM     13  C   UNL     1       2.654   4.407  20.126  0.00  0.00    +0.000 A 
ATOM     14  C   UNL     1       3.212   5.112  19.032  0.00  0.00    +0.000 A 
ATOM     15  C   UNL     1       2.920   6.483  18.998  0.00  0.00    +0.000 A 
BRANCH  10  16
ATOM     16  C   UNL     1       1.582   8.658  19.867  0.00  0.00    +0.000 C 
ATOM     17  C   UNL     1       1.912   9.490  18.602  0.00  0.00    +0.000 C 
ATOM     18  O   UNL     1       0.518   9.741  18.318  0.00  0.00    +0.000 OA
ATOM     19  C   UNL     1       0.106   8.904  19.413  0.00  0.00    +0.000 C 
BRANCH  16  20
ATOM     20  C   UNL     1       1.843   9.348  21.218  0.00  0.00    +0.000 C 
BRANCH  20  26
ATOM     21  C   UNL     1       0.660  12.269  20.793  0.00  0.00    +0.000 C 
ATOM     22  N   UNL     1       0.171  11.238  21.670  0.00  0.00    +0.000 N 
ATOM     23  C   UNL     1      -0.866  11.384  22.544  0.00  0.00    +0.000 A 
ATOM     24  N   UNL     1      -1.063  10.258  23.185  0.00  0.00    +0.000 NA
ATOM     25  N   UNL     1      -0.123   9.362  22.745  0.00  0.00    +0.000 NA
ATOM     26  C   UNL     1       0.634   9.957  21.844  0.00  0.00    +0.000 A 
ENDBRANCH  20  26
ENDBRANCH  16  20
ENDBRANCH  10  16
ENDBRANCH   1  14
BRANCH   5  27
ATOM     27  C   UNL     1       7.363   4.755  13.045  0.00  0.00    +0.000 C 
ATOM     28  N   UNL     1       8.292   5.723  12.787  0.00  0.00    +0.000 N 
ATOM     29  O   UNL     1       7.036   3.955  12.177  0.00  0.00    +0.000 OA
ATOM     30  H   UNL     1       8.369   6.556  13.351  0.00  0.00    +0.000 HD
ATOM     31  H   UNL     1       8.587   5.791  11.819  0.00  0.00    +0.000 HD
ENDBRANCH   5  27
BRANCH   7  32
ATOM     32  C   UNL     1       6.894   6.804  17.559  0.00  0.00    +0.000 C 
ATOM     33  F   UNL     1       5.722   7.471  17.742  0.00  0.00    +0.000 F 
ATOM     34  F   UNL     1       7.287   6.436  18.818  0.00  0.00    +0.000 F 
ATOM     35  F   UNL     1       7.805   7.717  17.143  0.00  0.00    +0.000 F 
ENDBRANCH   7  32
TORSDOF 6
ENDMDL
MODEL 6
REMARK VINA RESULT:      -7.9      2.538      3.578
REMARK  Name = 
REMARK  7 active torsions:
REMARK  status: ('A' for Active; 'I' for Inactive)
REMARK    1  A    between atoms: C_1  and  N_2
REMARK    2  A    between atoms: C_6  and  C_7
REMARK    3  A    between atoms: C_7  and  C_8
REMARK    4  A    between atoms: C_8  and  C_9
REMARK    5  A    between atoms: C_13  and  N_14
REMARK    6  A    between atoms: C_18  and  C_19
REMARK    7  A    between atoms: C_23  and  C_24
REMARK                            x       y       z     vdW  Elec       q    Type
REMARK                         _______ _______ _______ _____ _____    ______ ____
ROOT
ATOM      1  N   UNL     1       2.172   8.025  18.432  0.00  0.00    +0.000 N 
ATOM      2  C   UNL     1       3.474   8.335  17.737  0.00  0.00    +0.000 C 
ATOM      3  C   UNL     1       3.923   6.935  17.271  0.00  0.00    +0.000 A 
ATOM      4  C   UNL     1       5.096   6.427  16.721  0.00  0.00    +0.000 A 
ATOM      5  C   UNL     1       5.356   5.048  16.897  0.00  0.00    +0.000 A 
ATOM      6  C   UNL     1       4.579   4.316  17.812  0.00  0.00    +0.000 A 
ATOM      7  C   UNL     1       3.422   4.883  18.342  0.00  0.00    +0.000 A 
ATOM      8  C   UNL     1       2.982   6.039  17.755  0.00  0.00    +0.000 A 
ATOM      9  C   UNL     1       1.688   6.761  17.915  0.00  0.00    +0.000 C 
ENDROOT
BRANCH   1  14
ATOM     10  C   UNL     1       0.176  10.344  20.625  0.00  0.00    +0.000 A 
ATOM     11  C   UNL     1       0.013   9.495  21.742  0.00  0.00    +0.000 A 
ATOM     12  C   UNL     1       0.620   8.262  21.799  0.00  0.00    +0.000 A 
ATOM     13  C   UNL     1       1.378   7.838  20.717  0.00  0.00    +0.000 A 
ATOM     14  C   UNL     1       1.546   8.583  19.524  0.00  0.00    +0.000 A 
ATOM     15  C   UNL     1       0.976   9.865  19.540  0.00  0.00    +0.000 A 
BRANCH  10  16
ATOM     16  C   UNL     1      -0.579  11.770  20.648  0.00  0.00    +0.000 C 
ATOM     17  C   UNL     1      -1.584  12.071  21.787  0.00  0.00    +0.000 C 
ATOM     18  O   UNL     1      -0.808  13.190  22.270  0.00  0.00    +0.000 OA
ATOM     19  C   UNL     1       0.232  12.930  21.311  0.00  0.00    +0.000 C 
BRANCH  16  20
ATOM     20  C   UNL     1      -1.021  12.174  19.229  0.00  0.00    +0.000 C 
BRANCH  20  26
ATOM     21  C   UNL     1      -1.812   9.892  17.162  0.00  0.00    +0.000 C 
ATOM     22  N   UNL     1      -2.694  10.739  17.920  0.00  0.00    +0.000 N 
ATOM     23  C   UNL     1      -4.053  10.750  17.810  0.00  0.00    +0.000 A 
ATOM     24  N   UNL     1      -4.556  11.627  18.644  0.00  0.00    +0.000 NA
ATOM     25  N   UNL     1      -3.508  12.223  19.297  0.00  0.00    +0.000 NA
ATOM     26  C   UNL     1      -2.383  11.702  18.849  0.00  0.00    +0.000 A 
ENDBRANCH  20  26
ENDBRANCH  16  20
ENDBRANCH  10  16
ENDBRANCH   1  14
BRANCH   5  27
ATOM     27  C   UNL     1       6.508   4.331  16.286  0.00  0.00    +0.000 C 
ATOM     28  N   UNL     1       6.229   3.274  15.467  0.00  0.00    +0.000 N 
ATOM     29  O   UNL     1       7.666   4.610  16.571  0.00  0.00    +0.000 OA
ATOM     30  H   UNL     1       5.319   2.838  15.447  0.00  0.00    +0.000 HD
ATOM     31  H   UNL     1       7.024   2.695  15.222  0.00  0.00    +0.000 HD
ENDBRANCH   5  27
BRANCH   7  32
ATOM     32  C   UNL     1       2.881   4.488  19.692  0.00  0.00    +0.000 C 
ATOM     33  F   UNL     1       1.541   4.247  19.695  0.00  0.00    +0.000 F 
ATOM     34  F   UNL     1       3.445   3.322  20.135  0.00  0.00    +0.000 F 
ATOM     35  F   UNL     1       3.118   5.402  20.665  0.00  0.00    +0.000 F 
ENDBRANCH   7  32
TORSDOF 6
ENDMDL
MODEL 7
REMARK VINA RESULT:      -7.9      3.492      9.315
REMARK  Name = 
REMARK  7 active torsions:
REMARK  status: ('A' for Active; 'I' for Inactive)
REMARK    1  A    between atoms: C_1  and  N_2
REMARK    2  A    between atoms: C_6  and  C_7
REMARK    3  A    between atoms: C_7  and  C_8
REMARK    4  A    between atoms: C_8  and  C_9
REMARK    5  A    between atoms: C_13  and  N_14
REMARK    6  A    between atoms: C_18  and  C_19
REMARK    7  A    between atoms: C_23  and  C_24
REMARK                            x       y       z     vdW  Elec       q    Type
REMARK                         _______ _______ _______ _____ _____    ______ ____
ROOT
ATOM      1  N   UNL     1       0.100   9.689  20.360  0.00  0.00    +0.000 N 
ATOM      2  C   UNL     1      -0.104   9.742  21.854  0.00  0.00    +0.000 C 
ATOM      3  C   UNL     1      -0.801  11.107  22.028  0.00  0.00    +0.000 A 
ATOM      4  C   UNL     1      -1.134  11.891  23.129  0.00  0.00    +0.000 A 
ATOM      5  C   UNL     1      -1.284  13.282  22.918  0.00  0.00    +0.000 A 
ATOM      6  C   UNL     1      -0.852  13.840  21.702  0.00  0.00    +0.000 A 
ATOM      7  C   UNL     1      -0.518  13.004  20.639  0.00  0.00    +0.000 A 
ATOM      8  C   UNL     1      -0.857  11.684  20.769  0.00  0.00    +0.000 A 
ATOM      9  C   UNL     1      -0.858  10.593  19.754  0.00  0.00    +0.000 C 
ENDROOT
BRANCH   1  14
ATOM     10  C   UNL     1       2.594   7.286  18.888  0.00  0.00    +0.000 A 
ATOM     11  C   UNL     1       2.910   8.000  17.711  0.00  0.00    +0.000 A 
ATOM     12  C   UNL     1       2.399   9.254  17.474  0.00  0.00    +0.000 A 
ATOM     13  C   UNL     1       1.527   9.807  18.401  0.00  0.00    +0.000 A 
ATOM     14  C   UNL     1       1.093   9.146  19.577  0.00  0.00    +0.000 A 
ATOM     15  C   UNL     1       1.699   7.904  19.817  0.00  0.00    +0.000 A 
BRANCH  10  16
ATOM     16  C   UNL     1       3.241   5.819  19.075  0.00  0.00    +0.000 C 
ATOM     17  C   UNL     1       3.592   4.986  17.817  0.00  0.00    +0.000 C 
ATOM     18  O   UNL     1       4.998   4.951  18.148  0.00  0.00    +0.000 OA
ATOM     19  C   UNL     1       4.790   5.807  19.285  0.00  0.00    +0.000 C 
BRANCH  16  20
ATOM     20  C   UNL     1       2.544   5.059  20.218  0.00  0.00    +0.000 C 
BRANCH  20  26
ATOM     21  C   UNL     1       3.939   2.204  20.117  0.00  0.00    +0.000 C 
ATOM     22  N   UNL     1       2.590   2.540  19.745  0.00  0.00    +0.000 N 
ATOM     23  C   UNL     1       1.691   1.672  19.200  0.00  0.00    +0.000 A 
ATOM     24  N   UNL     1       0.554   2.290  18.989  0.00  0.00    +0.000 NA
ATOM     25  N   UNL     1       0.716   3.595  19.378  0.00  0.00    +0.000 NA
ATOM     26  C   UNL     1       1.948   3.753  19.818  0.00  0.00    +0.000 A 
ENDBRANCH  20  26
ENDBRANCH  16  20
ENDBRANCH  10  16
ENDBRANCH   1  14
BRANCH   5  27
ATOM     27  C   UNL     1      -1.736  14.241  23.962  0.00  0.00    +0.000 C 
ATOM     28  N   UNL     1      -3.075  14.502  24.040  0.00  0.00    +0.000 N 
ATOM     29  O   UNL     1      -0.940  14.848  24.668  0.00  0.00    +0.000 OA
ATOM     30  H   UNL     1      -3.712  14.256  23.298  0.00  0.00    +0.000 HD
ATOM     31  H   UNL     1      -3.328  15.291  24.624  0.00  0.00    +0.000 HD
ENDBRANCH   5  27
BRANCH   7  32
ATOM     32  C   UNL     1       0.471  13.412  19.578  0.00  0.00    +0.000 C 
ATOM     33  F   UNL     1       1.652  12.738  19.643  0.00  0.00    +0.000 F 
ATOM     34  F   UNL     1      -0.008  13.154  18.322  0.00  0.00    +0.000 F 
ATOM     35  F   UNL     1       0.772  14.734  19.590  0.00  0.00    +0.000 F 
ENDBRANCH   7  32
TORSDOF 6
ENDMDL
MODEL 8
REMARK VINA RESULT:      -7.8      3.157      9.071
REMARK  Name = 
REMARK  7 active torsions:
REMARK  status: ('A' for Active; 'I' for Inactive)
REMARK    1  A    between atoms: C_1  and  N_2
REMARK    2  A    between atoms: C_6  and  C_7
REMARK    3  A    between atoms: C_7  and  C_8
REMARK    4  A    between atoms: C_8  and  C_9
REMARK    5  A    between atoms: C_13  and  N_14
REMARK    6  A    between atoms: C_18  and  C_19
REMARK    7  A    between atoms: C_23  and  C_24
REMARK                            x       y       z     vdW  Elec       q    Type
REMARK                         _______ _______ _______ _____ _____    ______ ____
ROOT
ATOM      1  N   UNL     1       1.036   9.106  20.482  0.00  0.00    +0.000 N 
ATOM      2  C   UNL     1       1.419  10.383  21.187  0.00  0.00    +0.000 C 
ATOM      3  C   UNL     1       0.115  11.201  21.085  0.00  0.00    +0.000 A 
ATOM      4  C   UNL     1      -0.223  12.523  21.360  0.00  0.00    +0.000 A 
ATOM      5  C   UNL     1      -1.336  13.068  20.678  0.00  0.00    +0.000 A 
ATOM      6  C   UNL     1      -1.884  12.364  19.591  0.00  0.00    +0.000 A 
ATOM      7  C   UNL     1      -1.496  11.047  19.356  0.00  0.00    +0.000 A 
ATOM      8  C   UNL     1      -0.773  10.436  20.345  0.00  0.00    +0.000 A 
ATOM      9  C   UNL     1      -0.409   9.001  20.516  0.00  0.00    +0.000 C 
ENDROOT
BRANCH   1  14
ATOM     10  C   UNL     1       2.551   5.948  19.103  0.00  0.00    +0.000 A 
ATOM     11  C   UNL     1       2.976   6.444  17.850  0.00  0.00    +0.000 A 
ATOM     12  C   UNL     1       2.856   7.775  17.528  0.00  0.00    +0.000 A 
ATOM     13  C   UNL     1       2.271   8.636  18.447  0.00  0.00    +0.000 A 
ATOM     14  C   UNL     1       1.750   8.226  19.699  0.00  0.00    +0.000 A 
ATOM     15  C   UNL     1       1.964   6.878  20.018  0.00  0.00    +0.000 A 
BRANCH  10  16
ATOM     16  C   UNL     1       2.730   4.370  19.387  0.00  0.00    +0.000 C 
ATOM     17  C   UNL     1       2.645   3.853  20.844  0.00  0.00    +0.000 C 
ATOM     18  O   UNL     1       1.497   3.024  20.557  0.00  0.00    +0.000 OA
ATOM     19  C   UNL     1       1.430   3.520  19.208  0.00  0.00    +0.000 C 
BRANCH  16  20
ATOM     20  C   UNL     1       3.866   3.788  18.526  0.00  0.00    +0.000 C 
BRANCH  20  26
ATOM     21  C   UNL     1       6.087   4.399  16.335  0.00  0.00    +0.000 C 
ATOM     22  N   UNL     1       6.142   4.674  17.745  0.00  0.00    +0.000 N 
ATOM     23  C   UNL     1       7.222   5.188  18.400  0.00  0.00    +0.000 A 
ATOM     24  N   UNL     1       6.942   5.325  19.673  0.00  0.00    +0.000 NA
ATOM     25  N   UNL     1       5.663   4.871  19.865  0.00  0.00    +0.000 NA
ATOM     26  C   UNL     1       5.184   4.461  18.707  0.00  0.00    +0.000 A 
ENDBRANCH  20  26
ENDBRANCH  16  20
ENDBRANCH  10  16
ENDBRANCH   1  14
BRANCH   5  27
ATOM     27  C   UNL     1      -1.889  14.426  20.933  0.00  0.00    +0.000 C 
ATOM     28  N   UNL     1      -3.167  14.673  20.520  0.00  0.00    +0.000 N 
ATOM     29  O   UNL     1      -1.203  15.322  21.411  0.00  0.00    +0.000 OA
ATOM     30  H   UNL     1      -3.646  14.068  19.870  0.00  0.00    +0.000 HD
ATOM     31  H   UNL     1      -3.445  15.648  20.534  0.00  0.00    +0.000 HD
ENDBRANCH   5  27
BRANCH   7  32
ATOM     32  C   UNL     1      -1.529  10.434  17.979  0.00  0.00    +0.000 C 
ATOM     33  F   UNL     1      -2.448   9.440  17.845  0.00  0.00    +0.000 F 
ATOM     34  F   UNL     1      -1.873  11.358  17.029  0.00  0.00    +0.000 F 
ATOM     35  F   UNL     1      -0.338   9.925  17.579  0.00  0.00    +0.000 F 
ENDBRANCH   7  32
TORSDOF 6
ENDMDL
MODEL 9
REMARK VINA RESULT:      -7.8      4.358      7.878
REMARK  Name = 
REMARK  7 active torsions:
REMARK  status: ('A' for Active; 'I' for Inactive)
REMARK    1  A    between atoms: C_1  and  N_2
REMARK    2  A    between atoms: C_6  and  C_7
REMARK    3  A    between atoms: C_7  and  C_8
REMARK    4  A    between atoms: C_8  and  C_9
REMARK    5  A    between atoms: C_13  and  N_14
REMARK    6  A    between atoms: C_18  and  C_19
REMARK    7  A    between atoms: C_23  and  C_24
REMARK                            x       y       z     vdW  Elec       q    Type
REMARK                         _______ _______ _______ _____ _____    ______ ____
ROOT
ATOM      1  N   UNL     1      -1.518  11.743  22.772  0.00  0.00    +0.000 N 
ATOM      2  C   UNL     1      -0.923  10.397  23.101  0.00  0.00    +0.000 C 
ATOM      3  C   UNL     1       0.022  10.169  21.902  0.00  0.00    +0.000 A 
ATOM      4  C   UNL     1       0.763   9.083  21.446  0.00  0.00    +0.000 A 
ATOM      5  C   UNL     1       1.093   9.049  20.071  0.00  0.00    +0.000 A 
ATOM      6  C   UNL     1       0.461   9.949  19.194  0.00  0.00    +0.000 A 
ATOM      7  C   UNL     1      -0.281  11.009  19.710  0.00  0.00    +0.000 A 
ATOM      8  C   UNL     1      -0.155  11.249  21.052  0.00  0.00    +0.000 A 
ATOM      9  C   UNL     1      -0.611  12.414  21.862  0.00  0.00    +0.000 C 
ENDROOT
BRANCH   1  14
ATOM     10  C   UNL     1      -4.869  13.372  22.244  0.00  0.00    +0.000 A 
ATOM     11  C   UNL     1      -5.441  13.100  23.507  0.00  0.00    +0.000 A 
ATOM     12  C   UNL     1      -4.714  12.499  24.508  0.00  0.00    +0.000 A 
ATOM     13  C   UNL     1      -3.403  12.125  24.251  0.00  0.00    +0.000 A 
ATOM     14  C   UNL     1      -2.761  12.290  22.999  0.00  0.00    +0.000 A 
ATOM     15  C   UNL     1      -3.511  12.976  22.033  0.00  0.00    +0.000 A 
BRANCH  10  16
ATOM     16  C   UNL     1      -5.803  14.076  21.133  0.00  0.00    +0.000 C 
ATOM     17  C   UNL     1      -7.204  14.592  21.543  0.00  0.00    +0.000 C 
ATOM     18  O   UNL     1      -6.874  15.960  21.214  0.00  0.00    +0.000 OA
ATOM     19  C   UNL     1      -5.517  15.596  20.903  0.00  0.00    +0.000 C 
BRANCH  16  20
ATOM     20  C   UNL     1      -5.726  13.315  19.796  0.00  0.00    +0.000 C 
BRANCH  20  26
ATOM     21  C   UNL     1      -5.366  11.013  17.633  0.00  0.00    +0.000 C 
ATOM     22  N   UNL     1      -6.056  10.938  18.893  0.00  0.00    +0.000 N 
ATOM     23  C   UNL     1      -6.754   9.855  19.339  0.00  0.00    +0.000 A 
ATOM     24  N   UNL     1      -7.253  10.109  20.524  0.00  0.00    +0.000 NA
ATOM     25  N   UNL     1      -6.899  11.391  20.854  0.00  0.00    +0.000 NA
ATOM     26  C   UNL     1      -6.192  11.900  19.865  0.00  0.00    +0.000 A 
ENDBRANCH  20  26
ENDBRANCH  16  20
ENDBRANCH  10  16
ENDBRANCH   1  14
BRANCH   5  27
ATOM     27  C   UNL     1       1.963   8.017  19.445  0.00  0.00    +0.000 C 
ATOM     28  N   UNL     1       2.354   6.967  20.226  0.00  0.00    +0.000 N 
ATOM     29  O   UNL     1       2.392   8.141  18.305  0.00  0.00    +0.000 OA
ATOM     30  H   UNL     1       2.268   6.986  21.231  0.00  0.00    +0.000 HD
ATOM     31  H   UNL     1       3.090   6.389  19.836  0.00  0.00    +0.000 HD
ENDBRANCH   5  27
BRANCH   7  32
ATOM     32  C   UNL     1      -1.428  11.629  18.953  0.00  0.00    +0.000 C 
ATOM     33  F   UNL     1      -1.294  12.969  18.759  0.00  0.00    +0.000 F 
ATOM     34  F   UNL     1      -1.538  11.104  17.694  0.00  0.00    +0.000 F 
ATOM     35  F   UNL     1      -2.636  11.435  19.537  0.00  0.00    +0.000 F 
ENDBRANCH   7  32
TORSDOF 6
ENDMDL
