MODEL 1
REMARK VINA RESULT:      -8.7      0.000      0.000
REMARK  Name = 
REMARK  3 active torsions:
REMARK  status: ('A' for Active; 'I' for Inactive)
REMARK    1  A    between atoms: C_2  and  C_14
REMARK    2  A    between atoms: N_3  and  C_4
REMARK    3  A    between atoms: N_19  and  C_20
REMARK                            x       y       z     vdW  Elec       q    Type
REMARK                         _______ _______ _______ _____ _____    ______ ____
ROOT
ATOM      1  O   UNL     1       2.222   8.691  17.416  0.00  0.00    +0.000 OA
ATOM      2  C   UNL     1       2.220   8.162  18.518  0.00  0.00    +0.000 C 
ATOM      3  N   UNL     1       2.771   6.936  18.812  0.00  0.00    +0.000 N 
ATOM      4  H   UNL     1       2.544   6.559  19.729  0.00  0.00    +0.000 HD
ENDROOT
BRANCH   3   5
ATOM      5  C   UNL     1       3.191   6.040  17.760  0.00  0.00    +0.000 C 
ATOM      6  C   UNL     1       4.724   5.930  17.600  0.00  0.00    +0.000 C 
ATOM      7  C   UNL     1       5.190   4.659  18.324  0.00  0.00    +0.000 C 
ATOM      8  C   UNL     1       3.936   3.849  18.393  0.00  0.00    +0.000 A 
ATOM      9  C   UNL     1       3.814   2.520  18.771  0.00  0.00    +0.000 A 
ATOM     10  C   UNL     1       2.536   1.959  18.818  0.00  0.00    +0.000 A 
ATOM     11  C   UNL     1       1.419   2.734  18.490  0.00  0.00    +0.000 A 
ATOM     12  F   UNL     1       0.200   2.179  18.546  0.00  0.00    +0.000 F 
ATOM     13  C   UNL     1       1.540   4.071  18.118  0.00  0.00    +0.000 A 
ATOM     14  C   UNL     1       2.813   4.622  18.077  0.00  0.00    +0.000 A 
ENDBRANCH   3   5
BRANCH   2  15
ATOM     15  C   UNL     1       1.501   8.842  19.684  0.00  0.00    +0.000 A 
ATOM     16  C   UNL     1       1.310   8.028  20.895  0.00  0.00    +0.000 A 
ATOM     17  C   UNL     1       0.815   8.655  21.959  0.00  0.00    +0.000 A 
ATOM     18  C   UNL     1       0.458  10.091  21.911  0.00  0.00    +0.000 A 
ATOM     19  O   UNL     1       0.032  10.592  22.950  0.00  0.00    +0.000 OA
ATOM     20  N   UNL     1       0.599  10.716  20.665  0.00  0.00    +0.000 N 
ATOM     21  N   UNL     1       1.147  10.084  19.556  0.00  0.00    +0.000 NA
BRANCH  20  22
ATOM     22  C   UNL     1       0.323  12.107  20.460  0.00  0.00    +0.000 A 
ATOM     23  C   UNL     1       1.307  13.087  20.675  0.00  0.00    +0.000 A 
ATOM     24  C   UNL     1       1.051  14.442  20.431  0.00  0.00    +0.000 A 
ATOM     25  C   UNL     1      -0.204  14.849  19.986  0.00  0.00    +0.000 A 
ATOM     26  C   UNL     1      -1.200  13.899  19.785  0.00  0.00    +0.000 A 
ATOM     27  C   UNL     1      -0.935  12.546  20.011  0.00  0.00    +0.000 A 
ATOM     28  F   UNL     1      -1.951  11.685  19.840  0.00  0.00    +0.000 F 
ENDBRANCH  20  22
ENDBRANCH   2  15
TORSDOF 3
ENDMDL
MODEL 2
REMARK VINA RESULT:      -8.7      0.894      1.280
REMARK  Name = 
REMARK  3 active torsions:
REMARK  status: ('A' for Active; 'I' for Inactive)
REMARK    1  A    between atoms: C_2  and  C_14
REMARK    2  A    between atoms: N_3  and  C_4
REMARK    3  A    between atoms: N_19  and  C_20
REMARK                            x       y       z     vdW  Elec       q    Type
REMARK                         _______ _______ _______ _____ _____    ______ ____
ROOT
ATOM      1  O   UNL     1       2.143   8.745  17.405  0.00  0.00    +0.000 OA
ATOM      2  C   UNL     1       2.172   8.209  18.503  0.00  0.00    +0.000 C 
ATOM      3  N   UNL     1       2.751   6.993  18.779  0.00  0.00    +0.000 N 
ATOM      4  H   UNL     1       2.548   6.606  19.697  0.00  0.00    +0.000 HD
ENDROOT
BRANCH   3   5
ATOM      5  C   UNL     1       3.168   6.111  17.714  0.00  0.00    +0.000 C 
ATOM      6  C   UNL     1       4.700   6.027  17.529  0.00  0.00    +0.000 C 
ATOM      7  C   UNL     1       5.197   4.758  18.235  0.00  0.00    +0.000 C 
ATOM      8  C   UNL     1       3.958   3.928  18.318  0.00  0.00    +0.000 A 
ATOM      9  C   UNL     1       3.862   2.594  18.687  0.00  0.00    +0.000 A 
ATOM     10  C   UNL     1       2.594   2.013  18.749  0.00  0.00    +0.000 A 
ATOM     11  C   UNL     1       1.460   2.772  18.445  0.00  0.00    +0.000 A 
ATOM     12  F   UNL     1       0.251   2.197  18.516  0.00  0.00    +0.000 F 
ATOM     13  C   UNL     1       1.555   4.113  18.082  0.00  0.00    +0.000 A 
ATOM     14  C   UNL     1       2.817   4.685  18.025  0.00  0.00    +0.000 A 
ENDBRANCH   3   5
BRANCH   2  15
ATOM     15  C   UNL     1       1.461   8.868  19.686  0.00  0.00    +0.000 A 
ATOM     16  C   UNL     1       1.393   8.078  20.926  0.00  0.00    +0.000 A 
ATOM     17  C   UNL     1       0.905   8.699  21.998  0.00  0.00    +0.000 A 
ATOM     18  C   UNL     1       0.438  10.102  21.931  0.00  0.00    +0.000 A 
ATOM     19  O   UNL     1       0.027  10.600  22.978  0.00  0.00    +0.000 OA
ATOM     20  N   UNL     1       0.469  10.698  20.664  0.00  0.00    +0.000 N 
ATOM     21  N   UNL     1       1.007  10.076  19.545  0.00  0.00    +0.000 NA
BRANCH  20  22
ATOM     22  C   UNL     1       0.077  12.058  20.438  0.00  0.00    +0.000 A 
ATOM     23  C   UNL     1      -1.267  12.404  20.216  0.00  0.00    +0.000 A 
ATOM     24  C   UNL     1      -1.656  13.738  20.041  0.00  0.00    +0.000 A 
ATOM     25  C   UNL     1      -0.705  14.754  20.062  0.00  0.00    +0.000 A 
ATOM     26  C   UNL     1       0.635  14.434  20.261  0.00  0.00    +0.000 A 
ATOM     27  C   UNL     1       1.016  13.103  20.455  0.00  0.00    +0.000 A 
ATOM     28  F   UNL     1       2.328  12.857  20.598  0.00  0.00    +0.000 F 
ENDBRANCH  20  22
ENDBRANCH   2  15
TORSDOF 3
ENDMDL
MODEL 3
REMARK VINA RESULT:      -8.0      2.612      3.845
REMARK  Name = 
REMARK  3 active torsions:
REMARK  status: ('A' for Active; 'I' for Inactive)
REMARK    1  A    between atoms: C_2  and  C_14
REMARK    2  A    between atoms: N_3  and  C_4
REMARK    3  A    between atoms: N_19  and  C_20
REMARK                            x       y       z     vdW  Elec       q    Type
REMARK                         _______ _______ _______ _____ _____    ______ ____
ROOT
ATOM      1  O   UNL     1       2.419   5.996  20.586  0.00  0.00    +0.000 OA
ATOM      2  C   UNL     1       2.393   6.469  19.459  0.00  0.00    +0.000 C 
ATOM      3  N   UNL     1       2.746   5.801  18.310  0.00  0.00    +0.000 N 
ATOM      4  H   UNL     1       2.831   6.376  17.475  0.00  0.00    +0.000 HD
ENDROOT
BRANCH   3   5
ATOM      5  C   UNL     1       3.428   4.530  18.369  0.00  0.00    +0.000 C 
ATOM      6  C   UNL     1       3.195   3.631  17.133  0.00  0.00    +0.000 C 
ATOM      7  C   UNL     1       4.402   3.784  16.197  0.00  0.00    +0.000 C 
ATOM      8  C   UNL     1       5.461   4.296  17.117  0.00  0.00    +0.000 A 
ATOM      9  C   UNL     1       6.816   4.427  16.849  0.00  0.00    +0.000 A 
ATOM     10  C   UNL     1       7.637   4.978  17.836  0.00  0.00    +0.000 A 
ATOM     11  C   UNL     1       7.088   5.384  19.056  0.00  0.00    +0.000 A 
ATOM     12  F   UNL     1       7.891   5.917  19.987  0.00  0.00    +0.000 F 
ATOM     13  C   UNL     1       5.727   5.261  19.323  0.00  0.00    +0.000 A 
ATOM     14  C   UNL     1       4.918   4.715  18.337  0.00  0.00    +0.000 A 
ENDBRANCH   3   5
BRANCH   2  15
ATOM     15  C   UNL     1       2.014   7.937  19.262  0.00  0.00    +0.000 A 
ATOM     16  C   UNL     1       2.319   8.517  17.944  0.00  0.00    +0.000 A 
ATOM     17  C   UNL     1       1.864   9.747  17.718  0.00  0.00    +0.000 A 
ATOM     18  C   UNL     1       1.110  10.492  18.751  0.00  0.00    +0.000 A 
ATOM     19  O   UNL     1       0.706  11.612  18.443  0.00  0.00    +0.000 OA
ATOM     20  N   UNL     1       0.979   9.856  19.993  0.00  0.00    +0.000 N 
ATOM     21  N   UNL     1       1.418   8.560  20.232  0.00  0.00    +0.000 NA
BRANCH  20  22
ATOM     22  C   UNL     1       0.254  10.433  21.086  0.00  0.00    +0.000 A 
ATOM     23  C   UNL     1       0.134  11.826  21.230  0.00  0.00    +0.000 A 
ATOM     24  C   UNL     1      -0.613  12.389  22.271  0.00  0.00    +0.000 A 
ATOM     25  C   UNL     1      -1.240  11.570  23.207  0.00  0.00    +0.000 A 
ATOM     26  C   UNL     1      -1.118  10.188  23.097  0.00  0.00    +0.000 A 
ATOM     27  C   UNL     1      -0.389   9.630  22.043  0.00  0.00    +0.000 A 
ATOM     28  F   UNL     1      -0.274   8.292  22.019  0.00  0.00    +0.000 F 
ENDBRANCH  20  22
ENDBRANCH   2  15
TORSDOF 3
ENDMDL
MODEL 4
REMARK VINA RESULT:      -8.0      2.993      4.083
REMARK  Name = 
REMARK  3 active torsions:
REMARK  status: ('A' for Active; 'I' for Inactive)
REMARK    1  A    between atoms: C_2  and  C_14
REMARK    2  A    between atoms: N_3  and  C_4
REMARK    3  A    between atoms: N_19  and  C_20
REMARK                            x       y       z     vdW  Elec       q    Type
REMARK                         _______ _______ _______ _____ _____    ______ ____
ROOT
ATOM      1  O   UNL     1       1.153   8.454  21.791  0.00  0.00    +0.000 OA
ATOM      2  C   UNL     1       1.171   8.648  20.585  0.00  0.00    +0.000 C 
ATOM      3  N   UNL     1       1.703   7.790  19.650  0.00  0.00    +0.000 N 
ATOM      4  H   UNL     1       1.792   8.164  18.709  0.00  0.00    +0.000 HD
ENDROOT
BRANCH   3   5
ATOM      5  C   UNL     1       2.527   6.674  20.051  0.00  0.00    +0.000 C 
ATOM      6  C   UNL     1       1.735   5.490  20.652  0.00  0.00    +0.000 C 
ATOM      7  C   UNL     1       1.541   4.438  19.551  0.00  0.00    +0.000 C 
ATOM      8  C   UNL     1       2.628   4.779  18.584  0.00  0.00    +0.000 A 
ATOM      9  C   UNL     1       3.047   4.031  17.494  0.00  0.00    +0.000 A 
ATOM     10  C   UNL     1       4.053   4.555  16.678  0.00  0.00    +0.000 A 
ATOM     11  C   UNL     1       4.611   5.804  16.969  0.00  0.00    +0.000 A 
ATOM     12  F   UNL     1       5.571   6.291  16.171  0.00  0.00    +0.000 F 
ATOM     13  C   UNL     1       4.184   6.558  18.059  0.00  0.00    +0.000 A 
ATOM     14  C   UNL     1       3.183   6.033  18.863  0.00  0.00    +0.000 A 
ENDBRANCH   3   5
BRANCH   2  15
ATOM     15  C   UNL     1       0.635   9.964  20.021  0.00  0.00    +0.000 A 
ATOM     16  C   UNL     1       1.436  11.166  20.301  0.00  0.00    +0.000 A 
ATOM     17  C   UNL     1       1.054  12.288  19.695  0.00  0.00    +0.000 A 
ATOM     18  C   UNL     1      -0.128  12.320  18.806  0.00  0.00    +0.000 A 
ATOM     19  O   UNL     1      -0.390  13.395  18.269  0.00  0.00    +0.000 OA
ATOM     20  N   UNL     1      -0.855  11.125  18.709  0.00  0.00    +0.000 N 
ATOM     21  N   UNL     1      -0.448   9.939  19.307  0.00  0.00    +0.000 NA
BRANCH  20  22
ATOM     22  C   UNL     1      -2.007  10.985  17.868  0.00  0.00    +0.000 A 
ATOM     23  C   UNL     1      -1.957  10.236  16.680  0.00  0.00    +0.000 A 
ATOM     24  C   UNL     1      -3.094  10.060  15.883  0.00  0.00    +0.000 A 
ATOM     25  C   UNL     1      -4.303  10.648  16.245  0.00  0.00    +0.000 A 
ATOM     26  C   UNL     1      -4.371  11.411  17.407  0.00  0.00    +0.000 A 
ATOM     27  C   UNL     1      -3.239  11.568  18.211  0.00  0.00    +0.000 A 
ATOM     28  F   UNL     1      -3.360  12.351  19.295  0.00  0.00    +0.000 F 
ENDBRANCH  20  22
ENDBRANCH   2  15
TORSDOF 3
ENDMDL
MODEL 5
REMARK VINA RESULT:      -7.8      2.957      4.066
REMARK  Name = 
REMARK  3 active torsions:
REMARK  status: ('A' for Active; 'I' for Inactive)
REMARK    1  A    between atoms: C_2  and  C_14
REMARK    2  A    between atoms: N_3  and  C_4
REMARK    3  A    between atoms: N_19  and  C_20
REMARK                            x       y       z     vdW  Elec       q    Type
REMARK                         _______ _______ _______ _____ _____    ______ ____
ROOT
ATOM      1  O   UNL     1       1.120   8.528  21.711  0.00  0.00    +0.000 OA
ATOM      2  C   UNL     1       1.163   8.714  20.503  0.00  0.00    +0.000 C 
ATOM      3  N   UNL     1       1.701   7.843  19.585  0.00  0.00    +0.000 N 
ATOM      4  H   UNL     1       1.812   8.210  18.643  0.00  0.00    +0.000 HD
ENDROOT
BRANCH   3   5
ATOM      5  C   UNL     1       2.503   6.719  20.008  0.00  0.00    +0.000 C 
ATOM      6  C   UNL     1       1.689   5.566  20.638  0.00  0.00    +0.000 C 
ATOM      7  C   UNL     1       1.469   4.493  19.561  0.00  0.00    +0.000 C 
ATOM      8  C   UNL     1       2.559   4.790  18.584  0.00  0.00    +0.000 A 
ATOM      9  C   UNL     1       2.960   4.010  17.509  0.00  0.00    +0.000 A 
ATOM     10  C   UNL     1       3.973   4.494  16.679  0.00  0.00    +0.000 A 
ATOM     11  C   UNL     1       4.558   5.737  16.940  0.00  0.00    +0.000 A 
ATOM     12  F   UNL     1       5.525   6.187  16.129  0.00  0.00    +0.000 F 
ATOM     13  C   UNL     1       4.151   6.525  18.014  0.00  0.00    +0.000 A 
ATOM     14  C   UNL     1       3.142   6.039  18.832  0.00  0.00    +0.000 A 
ENDBRANCH   3   5
BRANCH   2  15
ATOM     15  C   UNL     1       0.654  10.033  19.921  0.00  0.00    +0.000 A 
ATOM     16  C   UNL     1       1.644  11.116  19.801  0.00  0.00    +0.000 A 
ATOM     17  C   UNL     1       1.246  12.215  19.165  0.00  0.00    +0.000 A 
ATOM     18  C   UNL     1      -0.129  12.342  18.630  0.00  0.00    +0.000 A 
ATOM     19  O   UNL     1      -0.399  13.383  18.035  0.00  0.00    +0.000 OA
ATOM     20  N   UNL     1      -0.994  11.274  18.904  0.00  0.00    +0.000 N 
ATOM     21  N   UNL     1      -0.583  10.106  19.535  0.00  0.00    +0.000 NA
BRANCH  20  22
ATOM     22  C   UNL     1      -2.346  11.231  18.433  0.00  0.00    +0.000 A 
ATOM     23  C   UNL     1      -3.383  11.878  19.127  0.00  0.00    +0.000 A 
ATOM     24  C   UNL     1      -4.696  11.876  18.641  0.00  0.00    +0.000 A 
ATOM     25  C   UNL     1      -5.006  11.207  17.460  0.00  0.00    +0.000 A 
ATOM     26  C   UNL     1      -4.000  10.542  16.766  0.00  0.00    +0.000 A 
ATOM     27  C   UNL     1      -2.686  10.564  17.243  0.00  0.00    +0.000 A 
ATOM     28  F   UNL     1      -1.771   9.868  16.550  0.00  0.00    +0.000 F 
ENDBRANCH  20  22
ENDBRANCH   2  15
TORSDOF 3
ENDMDL
MODEL 6
REMARK VINA RESULT:      -7.7      2.194      8.550
REMARK  Name = 
REMARK  3 active torsions:
REMARK  status: ('A' for Active; 'I' for Inactive)
REMARK    1  A    between atoms: C_2  and  C_14
REMARK    2  A    between atoms: N_3  and  C_4
REMARK    3  A    between atoms: N_19  and  C_20
REMARK                            x       y       z     vdW  Elec       q    Type
REMARK                         _______ _______ _______ _____ _____    ______ ____
ROOT
ATOM      1  O   UNL     1       1.365   7.488  20.903  0.00  0.00    +0.000 OA
ATOM      2  C   UNL     1       1.763   8.027  19.881  0.00  0.00    +0.000 C 
ATOM      3  N   UNL     1       1.476   9.316  19.499  0.00  0.00    +0.000 N 
ATOM      4  H   UNL     1       1.740   9.564  18.549  0.00  0.00    +0.000 HD
ENDROOT
BRANCH   3   5
ATOM      5  C   UNL     1       0.449  10.078  20.171  0.00  0.00    +0.000 C 
ATOM      6  C   UNL     1       0.925  11.455  20.689  0.00  0.00    +0.000 C 
ATOM      7  C   UNL     1       0.493  12.522  19.674  0.00  0.00    +0.000 C 
ATOM      8  C   UNL     1      -0.617  11.840  18.942  0.00  0.00    +0.000 A 
ATOM      9  C   UNL     1      -1.506  12.411  18.043  0.00  0.00    +0.000 A 
ATOM     10  C   UNL     1      -2.446  11.584  17.424  0.00  0.00    +0.000 A 
ATOM     11  C   UNL     1      -2.474  10.216  17.715  0.00  0.00    +0.000 A 
ATOM     12  F   UNL     1      -3.379   9.438  17.106  0.00  0.00    +0.000 F 
ATOM     13  C   UNL     1      -1.576   9.641  18.611  0.00  0.00    +0.000 A 
ATOM     14  C   UNL     1      -0.644  10.469  19.220  0.00  0.00    +0.000 A 
ENDBRANCH   3   5
BRANCH   2  15
ATOM     15  C   UNL     1       2.594   7.227  18.877  0.00  0.00    +0.000 A 
ATOM     16  C   UNL     1       3.235   7.999  17.801  0.00  0.00    +0.000 A 
ATOM     17  C   UNL     1       4.073   7.331  17.010  0.00  0.00    +0.000 A 
ATOM     18  C   UNL     1       4.323   5.884  17.198  0.00  0.00    +0.000 A 
ATOM     19  O   UNL     1       5.132   5.358  16.437  0.00  0.00    +0.000 OA
ATOM     20  N   UNL     1       3.568   5.257  18.199  0.00  0.00    +0.000 N 
ATOM     21  N   UNL     1       2.718   5.947  19.053  0.00  0.00    +0.000 NA
BRANCH  20  22
ATOM     22  C   UNL     1       3.714   3.868  18.523  0.00  0.00    +0.000 A 
ATOM     23  C   UNL     1       4.440   3.454  19.652  0.00  0.00    +0.000 A 
ATOM     24  C   UNL     1       4.542   2.100  19.995  0.00  0.00    +0.000 A 
ATOM     25  C   UNL     1       3.939   1.128  19.202  0.00  0.00    +0.000 A 
ATOM     26  C   UNL     1       3.232   1.513  18.067  0.00  0.00    +0.000 A 
ATOM     27  C   UNL     1       3.114   2.867  17.740  0.00  0.00    +0.000 A 
ATOM     28  F   UNL     1       2.456   3.169  16.609  0.00  0.00    +0.000 F 
ENDBRANCH  20  22
ENDBRANCH   2  15
TORSDOF 3
ENDMDL
MODEL 7
REMARK VINA RESULT:      -7.7      2.060      8.470
REMARK  Name = 
REMARK  3 active torsions:
REMARK  status: ('A' for Active; 'I' for Inactive)
REMARK    1  A    between atoms: C_2  and  C_14
REMARK    2  A    between atoms: N_3  and  C_4
REMARK    3  A    between atoms: N_19  and  C_20
REMARK                            x       y       z     vdW  Elec       q    Type
REMARK                         _______ _______ _______ _____ _____    ______ ____
ROOT
ATOM      1  O   UNL     1       1.919  10.553  18.105  0.00  0.00    +0.000 OA
ATOM      2  C   UNL     1       1.101   9.883  18.718  0.00  0.00    +0.000 C 
ATOM      3  N   UNL     1      -0.210  10.235  18.937  0.00  0.00    +0.000 N 
ATOM      4  H   UNL     1      -0.716   9.657  19.602  0.00  0.00    +0.000 HD
ENDROOT
BRANCH   3   5
ATOM      5  C   UNL     1      -0.673  11.576  18.665  0.00  0.00    +0.000 C 
ATOM      6  C   UNL     1      -1.844  11.645  17.658  0.00  0.00    +0.000 C 
ATOM      7  C   UNL     1      -3.150  11.783  18.452  0.00  0.00    +0.000 C 
ATOM      8  C   UNL     1      -2.674  12.309  19.767  0.00  0.00    +0.000 A 
ATOM      9  C   UNL     1      -3.450  12.805  20.804  0.00  0.00    +0.000 A 
ATOM     10  C   UNL     1      -2.809  13.204  21.979  0.00  0.00    +0.000 A 
ATOM     11  C   UNL     1      -1.419  13.097  22.090  0.00  0.00    +0.000 A 
ATOM     12  F   UNL     1      -0.824  13.479  23.228  0.00  0.00    +0.000 F 
ATOM     13  C   UNL     1      -0.641  12.591  21.052  0.00  0.00    +0.000 A 
ATOM     14  C   UNL     1      -1.284  12.195  19.889  0.00  0.00    +0.000 A 
ENDBRANCH   3   5
BRANCH   2  15
ATOM     15  C   UNL     1       1.535   8.572  19.375  0.00  0.00    +0.000 A 
ATOM     16  C   UNL     1       1.066   8.347  20.751  0.00  0.00    +0.000 A 
ATOM     17  C   UNL     1       1.318   7.150  21.275  0.00  0.00    +0.000 A 
ATOM     18  C   UNL     1       2.053   6.114  20.514  0.00  0.00    +0.000 A 
ATOM     19  O   UNL     1       2.217   5.029  21.070  0.00  0.00    +0.000 OA
ATOM     20  N   UNL     1       2.527   6.500  19.254  0.00  0.00    +0.000 N 
ATOM     21  N   UNL     1       2.241   7.733  18.680  0.00  0.00    +0.000 NA
BRANCH  20  22
ATOM     22  C   UNL     1       3.231   5.606  18.383  0.00  0.00    +0.000 A 
ATOM     23  C   UNL     1       4.608   5.753  18.142  0.00  0.00    +0.000 A 
ATOM     24  C   UNL     1       5.305   4.852  17.328  0.00  0.00    +0.000 A 
ATOM     25  C   UNL     1       4.635   3.794  16.719  0.00  0.00    +0.000 A 
ATOM     26  C   UNL     1       3.267   3.640  16.928  0.00  0.00    +0.000 A 
ATOM     27  C   UNL     1       2.579   4.529  17.757  0.00  0.00    +0.000 A 
ATOM     28  F   UNL     1       1.254   4.351  17.882  0.00  0.00    +0.000 F 
ENDBRANCH  20  22
ENDBRANCH   2  15
TORSDOF 3
ENDMDL
MODEL 8
REMARK VINA RESULT:      -7.7      2.416      8.297
REMARK  Name = 
REMARK  3 active torsions:
REMARK  status: ('A' for Active; 'I' for Inactive)
REMARK    1  A    between atoms: C_2  and  C_14
REMARK    2  A    between atoms: N_3  and  C_4
REMARK    3  A    between atoms: N_19  and  C_20
REMARK                            x       y       z     vdW  Elec       q    Type
REMARK                         _______ _______ _______ _____ _____    ______ ____
ROOT
ATOM      1  O   UNL     1       1.315  11.393  18.249  0.00  0.00    +0.000 OA
ATOM      2  C   UNL     1       0.636  10.382  18.350  0.00  0.00    +0.000 C 
ATOM      3  N   UNL     1      -0.659  10.248  17.906  0.00  0.00    +0.000 N 
ATOM      4  H   UNL     1      -1.144   9.407  18.210  0.00  0.00    +0.000 HD
ENDROOT
BRANCH   3   5
ATOM      5  C   UNL     1      -1.425  11.400  17.493  0.00  0.00    +0.000 C 
ATOM      6  C   UNL     1      -2.499  11.092  16.425  0.00  0.00    +0.000 C 
ATOM      7  C   UNL     1      -3.852  10.945  17.136  0.00  0.00    +0.000 C 
ATOM      8  C   UNL     1      -3.621  11.669  18.422  0.00  0.00    +0.000 A 
ATOM      9  C   UNL     1      -4.570  12.022  19.370  0.00  0.00    +0.000 A 
ATOM     10  C   UNL     1      -4.138  12.657  20.536  0.00  0.00    +0.000 A 
ATOM     11  C   UNL     1      -2.777  12.920  20.727  0.00  0.00    +0.000 A 
ATOM     12  F   UNL     1      -2.382  13.524  21.856  0.00  0.00    +0.000 F 
ATOM     13  C   UNL     1      -1.823  12.559  19.779  0.00  0.00    +0.000 A 
ATOM     14  C   UNL     1      -2.260  11.927  18.625  0.00  0.00    +0.000 A 
ENDBRANCH   3   5
BRANCH   2  15
ATOM     15  C   UNL     1       1.196   9.163  19.083  0.00  0.00    +0.000 A 
ATOM     16  C   UNL     1       0.807   9.016  20.495  0.00  0.00    +0.000 A 
ATOM     17  C   UNL     1       1.172   7.886  21.096  0.00  0.00    +0.000 A 
ATOM     18  C   UNL     1       1.948   6.848  20.381  0.00  0.00    +0.000 A 
ATOM     19  O   UNL     1       2.218   5.826  21.010  0.00  0.00    +0.000 OA
ATOM     20  N   UNL     1       2.335   7.165  19.072  0.00  0.00    +0.000 N 
ATOM     21  N   UNL     1       1.931   8.323  18.421  0.00  0.00    +0.000 NA
BRANCH  20  22
ATOM     22  C   UNL     1       3.065   6.256  18.239  0.00  0.00    +0.000 A 
ATOM     23  C   UNL     1       4.343   6.578  17.751  0.00  0.00    +0.000 A 
ATOM     24  C   UNL     1       5.076   5.671  16.975  0.00  0.00    +0.000 A 
ATOM     25  C   UNL     1       4.536   4.429  16.651  0.00  0.00    +0.000 A 
ATOM     26  C   UNL     1       3.264   4.096  17.107  0.00  0.00    +0.000 A 
ATOM     27  C   UNL     1       2.544   4.996  17.898  0.00  0.00    +0.000 A 
ATOM     28  F   UNL     1       1.306   4.632  18.268  0.00  0.00    +0.000 F 
ENDBRANCH  20  22
ENDBRANCH   2  15
TORSDOF 3
ENDMDL
MODEL 9
REMARK VINA RESULT:      -7.6      2.615      3.476
REMARK  Name = 
REMARK  3 active torsions:
REMARK  status: ('A' for Active; 'I' for Inactive)
REMARK    1  A    between atoms: C_2  and  C_14
REMARK    2  A    between atoms: N_3  and  C_4
REMARK    3  A    between atoms: N_19  and  C_20
REMARK                            x       y       z     vdW  Elec       q    Type
REMARK                         _______ _______ _______ _____ _____    ______ ____
ROOT
ATOM      1  O   UNL     1       1.487   6.696  20.762  0.00  0.00    +0.000 OA
ATOM      2  C   UNL     1       1.869   7.187  19.711  0.00  0.00    +0.000 C 
ATOM      3  N   UNL     1       2.564   6.520  18.729  0.00  0.00    +0.000 N 
ATOM      4  H   UNL     1       2.956   7.102  17.993  0.00  0.00    +0.000 HD
ENDROOT
BRANCH   3   5
ATOM      5  C   UNL     1       3.129   5.213  18.976  0.00  0.00    +0.000 C 
ATOM      6  C   UNL     1       2.257   4.044  18.465  0.00  0.00    +0.000 C 
ATOM      7  C   UNL     1       2.816   3.589  17.109  0.00  0.00    +0.000 C 
ATOM      8  C   UNL     1       4.218   4.105  17.149  0.00  0.00    +0.000 A 
ATOM      9  C   UNL     1       5.246   3.813  16.265  0.00  0.00    +0.000 A 
ATOM     10  C   UNL     1       6.479   4.443  16.450  0.00  0.00    +0.000 A 
ATOM     11  C   UNL     1       6.652   5.344  17.505  0.00  0.00    +0.000 A 
ATOM     12  F   UNL     1       7.841   5.944  17.662  0.00  0.00    +0.000 F 
ATOM     13  C   UNL     1       5.618   5.644  18.388  0.00  0.00    +0.000 A 
ATOM     14  C   UNL     1       4.396   5.016  18.196  0.00  0.00    +0.000 A 
ENDBRANCH   3   5
BRANCH   2  15
ATOM     15  C   UNL     1       1.646   8.676  19.444  0.00  0.00    +0.000 A 
ATOM     16  C   UNL     1       2.362   9.245  18.292  0.00  0.00    +0.000 A 
ATOM     17  C   UNL     1       2.062  10.501  17.969  0.00  0.00    +0.000 A 
ATOM     18  C   UNL     1       1.075  11.283  18.747  0.00  0.00    +0.000 A 
ATOM     19  O   UNL     1       0.842  12.427  18.359  0.00  0.00    +0.000 OA
ATOM     20  N   UNL     1       0.545  10.648  19.878  0.00  0.00    +0.000 N 
ATOM     21  N   UNL     1       0.822   9.327  20.207  0.00  0.00    +0.000 NA
BRANCH  20  22
ATOM     22  C   UNL     1      -0.442  11.259  20.719  0.00  0.00    +0.000 A 
ATOM     23  C   UNL     1      -0.212  11.455  22.091  0.00  0.00    +0.000 A 
ATOM     24  C   UNL     1      -1.157  12.094  22.903  0.00  0.00    +0.000 A 
ATOM     25  C   UNL     1      -2.364  12.531  22.364  0.00  0.00    +0.000 A 
ATOM     26  C   UNL     1      -2.622  12.330  21.012  0.00  0.00    +0.000 A 
ATOM     27  C   UNL     1      -1.668  11.710  20.200  0.00  0.00    +0.000 A 
ATOM     28  F   UNL     1      -1.996  11.507  18.914  0.00  0.00    +0.000 F 
ENDBRANCH  20  22
ENDBRANCH   2  15
TORSDOF 3
ENDMDL
