MODEL 1
REMARK VINA RESULT:      -8.7      0.000      0.000
REMARK  Name = 
REMARK  8 active torsions:
REMARK  status: ('A' for Active; 'I' for Inactive)
REMARK    1  A    between atoms: C_1  and  N_2
REMARK    2  A    between atoms: C_6  and  C_7
REMARK    3  A    between atoms: C_7  and  C_8
REMARK    4  A    between atoms: C_8  and  C_9
REMARK    5  A    between atoms: C_9  and  C_10
REMARK    6  A    between atoms: C_14  and  N_15
REMARK    7  A    between atoms: C_20  and  C_21
REMARK    8  A    between atoms: C_25  and  C_26
REMARK                            x       y       z     vdW  Elec       q    Type
REMARK                         _______ _______ _______ _____ _____    ______ ____
ROOT
ATOM      1  N   UNL     1       6.078   5.377  15.631  0.00  0.00    +0.000 N 
ATOM      2  C   UNL     1       4.952   6.343  15.756  0.00  0.00    +0.000 C 
ATOM      3  C   UNL     1       4.135   5.726  16.855  0.00  0.00    +0.000 A 
ATOM      4  C   UNL     1       4.394   4.345  16.818  0.00  0.00    +0.000 A 
ATOM      5  C   UNL     1       3.936   3.475  17.785  0.00  0.00    +0.000 A 
ATOM      6  C   UNL     1       3.194   4.029  18.822  0.00  0.00    +0.000 A 
ATOM      7  C   UNL     1       2.913   5.410  18.872  0.00  0.00    +0.000 A 
ATOM      8  C   UNL     1       3.404   6.291  17.887  0.00  0.00    +0.000 A 
ATOM      9  C   UNL     1       5.506   4.106  15.885  0.00  0.00    +0.000 C 
ATOM     10  O   UNL     1       5.939   3.006  15.594  0.00  0.00    +0.000 OA
ENDROOT
BRANCH   1  15
ATOM     11  C   UNL     1       7.800   7.673  17.853  0.00  0.00    +0.000 A 
ATOM     12  C   UNL     1       7.874   6.858  18.989  0.00  0.00    +0.000 A 
ATOM     13  C   UNL     1       7.758   5.478  18.867  0.00  0.00    +0.000 A 
ATOM     14  C   UNL     1       7.470   4.917  17.628  0.00  0.00    +0.000 A 
ATOM     15  C   UNL     1       7.145   5.755  16.548  0.00  0.00    +0.000 A 
ATOM     16  C   UNL     1       7.465   7.109  16.620  0.00  0.00    +0.000 A 
BRANCH  11  17
ATOM     17  C   UNL     1       8.060   9.150  17.955  0.00  0.00    +0.000 C 
BRANCH  17  18
ATOM     18  C   UNL     1       9.187   9.442  18.951  0.00  0.00    +0.000 C 
BRANCH  18  19
ATOM     19  C   UNL     1       9.208  10.879  19.501  0.00  0.00    +0.000 C 
BRANCH  19  25
ATOM     20  C   UNL     1      12.236  11.672  19.733  0.00  0.00    +0.000 C 
ATOM     21  N   UNL     1      11.296  12.131  18.745  0.00  0.00    +0.000 N 
ATOM     22  C   UNL     1      11.573  13.000  17.734  0.00  0.00    +0.000 A 
ATOM     23  N   UNL     1      10.492  13.209  17.023  0.00  0.00    +0.000 NA
ATOM     24  N   UNL     1       9.477  12.472  17.587  0.00  0.00    +0.000 NA
ATOM     25  C   UNL     1       9.965  11.814  18.622  0.00  0.00    +0.000 A 
ENDBRANCH  19  25
ENDBRANCH  18  19
ENDBRANCH  17  18
ENDBRANCH  11  17
ENDBRANCH   1  15
BRANCH   6  26
ATOM     26  C   UNL     1       2.383   3.086  19.697  0.00  0.00    +0.000 C 
ATOM     27  C   UNL     1       1.305   2.500  19.186  0.00  0.00    +0.000 C 
ATOM     28  N   UNL     1       1.600   2.173  20.543  0.00  0.00    +0.000 N 
ATOM     29  H   UNL     1       0.977   2.706  21.155  0.00  0.00    +0.000 HD
ENDBRANCH   6  26
BRANCH   8  30
ATOM     30  C   UNL     1       3.164   7.772  18.040  0.00  0.00    +0.000 C 
ATOM     31  F   UNL     1       4.290   8.528  17.946  0.00  0.00    +0.000 F 
ATOM     32  F   UNL     1       2.315   8.255  17.094  0.00  0.00    +0.000 F 
ATOM     33  F   UNL     1       2.603   8.085  19.240  0.00  0.00    +0.000 F 
ENDBRANCH   8  30
TORSDOF 7
ENDMDL
MODEL 2
REMARK VINA RESULT:      -8.5      4.506      7.544
REMARK  Name = 
REMARK  8 active torsions:
REMARK  status: ('A' for Active; 'I' for Inactive)
REMARK    1  A    between atoms: C_1  and  N_2
REMARK    2  A    between atoms: C_6  and  C_7
REMARK    3  A    between atoms: C_7  and  C_8
REMARK    4  A    between atoms: C_8  and  C_9
REMARK    5  A    between atoms: C_9  and  C_10
REMARK    6  A    between atoms: C_14  and  N_15
REMARK    7  A    between atoms: C_20  and  C_21
REMARK    8  A    between atoms: C_25  and  C_26
REMARK                            x       y       z     vdW  Elec       q    Type
REMARK                         _______ _______ _______ _____ _____    ______ ____
ROOT
ATOM      1  N   UNL     1       4.097   4.514  19.221  0.00  0.00    +0.000 N 
ATOM      2  C   UNL     1       5.451   5.133  19.259  0.00  0.00    +0.000 C 
ATOM      3  C   UNL     1       5.892   5.002  17.830  0.00  0.00    +0.000 A 
ATOM      4  C   UNL     1       5.210   3.893  17.301  0.00  0.00    +0.000 A 
ATOM      5  C   UNL     1       5.248   3.563  15.963  0.00  0.00    +0.000 A 
ATOM      6  C   UNL     1       6.002   4.390  15.137  0.00  0.00    +0.000 A 
ATOM      7  C   UNL     1       6.704   5.501  15.649  0.00  0.00    +0.000 A 
ATOM      8  C   UNL     1       6.640   5.838  17.017  0.00  0.00    +0.000 A 
ATOM      9  C   UNL     1       4.196   3.462  18.277  0.00  0.00    +0.000 C 
ATOM     10  O   UNL     1       3.471   2.495  18.138  0.00  0.00    +0.000 OA
ENDROOT
BRANCH   1  15
ATOM     11  C   UNL     1       1.957   7.344  19.985  0.00  0.00    +0.000 A 
ATOM     12  C   UNL     1       2.365   8.205  18.959  0.00  0.00    +0.000 A 
ATOM     13  C   UNL     1       2.986   7.696  17.825  0.00  0.00    +0.000 A 
ATOM     14  C   UNL     1       3.289   6.341  17.756  0.00  0.00    +0.000 A 
ATOM     15  C   UNL     1       3.108   5.532  18.890  0.00  0.00    +0.000 A 
ATOM     16  C   UNL     1       2.305   5.993  19.931  0.00  0.00    +0.000 A 
BRANCH  11  17
ATOM     17  C   UNL     1       1.165   7.867  21.151  0.00  0.00    +0.000 C 
BRANCH  17  18
ATOM     18  C   UNL     1       1.078   9.396  21.114  0.00  0.00    +0.000 C 
BRANCH  18  19
ATOM     19  C   UNL     1      -0.280   9.955  20.653  0.00  0.00    +0.000 C 
BRANCH  19  25
ATOM     20  C   UNL     1      -2.282  12.245  19.875  0.00  0.00    +0.000 C 
ATOM     21  N   UNL     1      -1.650  12.047  21.153  0.00  0.00    +0.000 N 
ATOM     22  C   UNL     1      -1.822  12.835  22.250  0.00  0.00    +0.000 A 
ATOM     23  N   UNL     1      -1.096  12.376  23.241  0.00  0.00    +0.000 NA
ATOM     24  N   UNL     1      -0.421  11.270  22.781  0.00  0.00    +0.000 NA
ATOM     25  C   UNL     1      -0.764  11.066  21.523  0.00  0.00    +0.000 A 
ENDBRANCH  19  25
ENDBRANCH  18  19
ENDBRANCH  17  18
ENDBRANCH  11  17
ENDBRANCH   1  15
BRANCH   6  26
ATOM     26  C   UNL     1       6.359   3.875  13.752  0.00  0.00    +0.000 C 
ATOM     27  C   UNL     1       5.380   3.603  12.894  0.00  0.00    +0.000 C 
ATOM     28  N   UNL     1       6.704   3.378  12.412  0.00  0.00    +0.000 N 
ATOM     29  H   UNL     1       6.904   2.376  12.448  0.00  0.00    +0.000 HD
ENDBRANCH   6  26
BRANCH   8  30
ATOM     30  C   UNL     1       7.323   7.094  17.497  0.00  0.00    +0.000 C 
ATOM     31  F   UNL     1       8.074   6.921  18.618  0.00  0.00    +0.000 F 
ATOM     32  F   UNL     1       8.168   7.609  16.563  0.00  0.00    +0.000 F 
ATOM     33  F   UNL     1       6.439   8.086  17.789  0.00  0.00    +0.000 F 
ENDBRANCH   8  30
TORSDOF 7
ENDMDL
MODEL 3
REMARK VINA RESULT:      -8.5      1.072      1.501
REMARK  Name = 
REMARK  8 active torsions:
REMARK  status: ('A' for Active; 'I' for Inactive)
REMARK    1  A    between atoms: C_1  and  N_2
REMARK    2  A    between atoms: C_6  and  C_7
REMARK    3  A    between atoms: C_7  and  C_8
REMARK    4  A    between atoms: C_8  and  C_9
REMARK    5  A    between atoms: C_9  and  C_10
REMARK    6  A    between atoms: C_14  and  N_15
REMARK    7  A    between atoms: C_20  and  C_21
REMARK    8  A    between atoms: C_25  and  C_26
REMARK                            x       y       z     vdW  Elec       q    Type
REMARK                         _______ _______ _______ _____ _____    ______ ____
ROOT
ATOM      1  N   UNL     1       5.672   4.797  15.878  0.00  0.00    +0.000 N 
ATOM      2  C   UNL     1       4.552   5.774  15.976  0.00  0.00    +0.000 C 
ATOM      3  C   UNL     1       3.903   5.373  17.269  0.00  0.00    +0.000 A 
ATOM      4  C   UNL     1       4.184   4.009  17.451  0.00  0.00    +0.000 A 
ATOM      5  C   UNL     1       3.877   3.333  18.614  0.00  0.00    +0.000 A 
ATOM      6  C   UNL     1       3.269   4.072  19.624  0.00  0.00    +0.000 A 
ATOM      7  C   UNL     1       2.968   5.440  19.457  0.00  0.00    +0.000 A 
ATOM      8  C   UNL     1       3.305   6.123  18.270  0.00  0.00    +0.000 A 
ATOM      9  C   UNL     1       5.166   3.596  16.436  0.00  0.00    +0.000 C 
ATOM     10  O   UNL     1       5.578   2.461  16.296  0.00  0.00    +0.000 OA
ENDROOT
BRANCH   1  15
ATOM     11  C   UNL     1       7.515   7.378  17.643  0.00  0.00    +0.000 A 
ATOM     12  C   UNL     1       7.893   6.639  18.771  0.00  0.00    +0.000 A 
ATOM     13  C   UNL     1       7.910   5.250  18.723  0.00  0.00    +0.000 A 
ATOM     14  C   UNL     1       7.458   4.595  17.583  0.00  0.00    +0.000 A 
ATOM     15  C   UNL     1       6.843   5.333  16.558  0.00  0.00    +0.000 A 
ATOM     16  C   UNL     1       7.018   6.715  16.519  0.00  0.00    +0.000 A 
BRANCH  11  17
ATOM     17  C   UNL     1       7.622   8.877  17.641  0.00  0.00    +0.000 C 
BRANCH  17  18
ATOM     18  C   UNL     1       8.725   9.350  18.594  0.00  0.00    +0.000 C 
BRANCH  18  19
ATOM     19  C   UNL     1       9.413  10.665  18.186  0.00  0.00    +0.000 C 
BRANCH  19  25
ATOM     20  C   UNL     1      11.733  12.775  18.296  0.00  0.00    +0.000 C 
ATOM     21  N   UNL     1      10.859  12.396  19.374  0.00  0.00    +0.000 N 
ATOM     22  C   UNL     1      10.898  12.900  20.639  0.00  0.00    +0.000 A 
ATOM     23  N   UNL     1       9.969  12.333  21.369  0.00  0.00    +0.000 NA
ATOM     24  N   UNL     1       9.312  11.426  20.571  0.00  0.00    +0.000 NA
ATOM     25  C   UNL     1       9.844  11.471  19.364  0.00  0.00    +0.000 A 
ENDBRANCH  19  25
ENDBRANCH  18  19
ENDBRANCH  17  18
ENDBRANCH  11  17
ENDBRANCH   1  15
BRANCH   6  26
ATOM     26  C   UNL     1       2.603   3.310  20.758  0.00  0.00    +0.000 C 
ATOM     27  C   UNL     1       1.347   2.899  20.608  0.00  0.00    +0.000 C 
ATOM     28  N   UNL     1       1.959   2.572  21.855  0.00  0.00    +0.000 N 
ATOM     29  H   UNL     1       1.624   3.223  22.569  0.00  0.00    +0.000 HD
ENDBRANCH   6  26
BRANCH   8  30
ATOM     30  C   UNL     1       3.056   7.607  18.180  0.00  0.00    +0.000 C 
ATOM     31  F   UNL     1       2.540   8.151  19.315  0.00  0.00    +0.000 F 
ATOM     32  F   UNL     1       4.196   8.304  17.922  0.00  0.00    +0.000 F 
ATOM     33  F   UNL     1       2.187   7.928  17.184  0.00  0.00    +0.000 F 
ENDBRANCH   8  30
TORSDOF 7
ENDMDL
MODEL 4
REMARK VINA RESULT:      -8.5      4.167      6.834
REMARK  Name = 
REMARK  8 active torsions:
REMARK  status: ('A' for Active; 'I' for Inactive)
REMARK    1  A    between atoms: C_1  and  N_2
REMARK    2  A    between atoms: C_6  and  C_7
REMARK    3  A    between atoms: C_7  and  C_8
REMARK    4  A    between atoms: C_8  and  C_9
REMARK    5  A    between atoms: C_9  and  C_10
REMARK    6  A    between atoms: C_14  and  N_15
REMARK    7  A    between atoms: C_20  and  C_21
REMARK    8  A    between atoms: C_25  and  C_26
REMARK                            x       y       z     vdW  Elec       q    Type
REMARK                         _______ _______ _______ _____ _____    ______ ____
ROOT
ATOM      1  N   UNL     1       4.072   4.463  19.241  0.00  0.00    +0.000 N 
ATOM      2  C   UNL     1       5.417   5.099  19.291  0.00  0.00    +0.000 C 
ATOM      3  C   UNL     1       5.861   4.997  17.860  0.00  0.00    +0.000 A 
ATOM      4  C   UNL     1       5.195   3.888  17.313  0.00  0.00    +0.000 A 
ATOM      5  C   UNL     1       5.240   3.581  15.969  0.00  0.00    +0.000 A 
ATOM      6  C   UNL     1       5.984   4.432  15.158  0.00  0.00    +0.000 A 
ATOM      7  C   UNL     1       6.669   5.544  15.689  0.00  0.00    +0.000 A 
ATOM      8  C   UNL     1       6.599   5.858  17.062  0.00  0.00    +0.000 A 
ATOM      9  C   UNL     1       4.187   3.427  18.280  0.00  0.00    +0.000 C 
ATOM     10  O   UNL     1       3.475   2.454  18.124  0.00  0.00    +0.000 OA
ENDROOT
BRANCH   1  15
ATOM     11  C   UNL     1       1.828   7.193  20.068  0.00  0.00    +0.000 A 
ATOM     12  C   UNL     1       2.252   8.119  19.107  0.00  0.00    +0.000 A 
ATOM     13  C   UNL     1       2.931   7.687  17.973  0.00  0.00    +0.000 A 
ATOM     14  C   UNL     1       3.273   6.346  17.844  0.00  0.00    +0.000 A 
ATOM     15  C   UNL     1       3.070   5.472  18.926  0.00  0.00    +0.000 A 
ATOM     16  C   UNL     1       2.214   5.856  19.956  0.00  0.00    +0.000 A 
BRANCH  11  17
ATOM     17  C   UNL     1       0.978   7.632  21.227  0.00  0.00    +0.000 C 
BRANCH  17  18
ATOM     18  C   UNL     1       1.458   8.977  21.782  0.00  0.00    +0.000 C 
BRANCH  18  19
ATOM     19  C   UNL     1       0.371  10.064  21.873  0.00  0.00    +0.000 C 
BRANCH  19  25
ATOM     20  C   UNL     1      -0.757  10.317  18.955  0.00  0.00    +0.000 C 
ATOM     21  N   UNL     1       0.080  11.264  19.642  0.00  0.00    +0.000 N 
ATOM     22  C   UNL     1       0.527  12.443  19.129  0.00  0.00    +0.000 A 
ATOM     23  N   UNL     1       1.270  13.058  20.016  0.00  0.00    +0.000 NA
ATOM     24  N   UNL     1       1.326  12.259  21.134  0.00  0.00    +0.000 NA
ATOM     25  C   UNL     1       0.600  11.179  20.911  0.00  0.00    +0.000 A 
ENDBRANCH  19  25
ENDBRANCH  18  19
ENDBRANCH  17  18
ENDBRANCH  11  17
ENDBRANCH   1  15
BRANCH   6  26
ATOM     26  C   UNL     1       6.349   3.944  13.765  0.00  0.00    +0.000 C 
ATOM     27  C   UNL     1       5.381   3.527  12.955  0.00  0.00    +0.000 C 
ATOM     28  N   UNL     1       6.702   3.473  12.418  0.00  0.00    +0.000 N 
ATOM     29  H   UNL     1       7.037   2.509  12.458  0.00  0.00    +0.000 HD
ENDBRANCH   6  26
BRANCH   8  30
ATOM     30  C   UNL     1       7.265   7.114  17.564  0.00  0.00    +0.000 C 
ATOM     31  F   UNL     1       8.134   7.671  16.678  0.00  0.00    +0.000 F 
ATOM     32  F   UNL     1       6.363   8.090  17.859  0.00  0.00    +0.000 F 
ATOM     33  F   UNL     1       7.976   6.905  18.704  0.00  0.00    +0.000 F 
ENDBRANCH   8  30
TORSDOF 7
ENDMDL
MODEL 5
REMARK VINA RESULT:      -8.4      1.015      1.183
REMARK  Name = 
REMARK  8 active torsions:
REMARK  status: ('A' for Active; 'I' for Inactive)
REMARK    1  A    between atoms: C_1  and  N_2
REMARK    2  A    between atoms: C_6  and  C_7
REMARK    3  A    between atoms: C_7  and  C_8
REMARK    4  A    between atoms: C_8  and  C_9
REMARK    5  A    between atoms: C_9  and  C_10
REMARK    6  A    between atoms: C_14  and  N_15
REMARK    7  A    between atoms: C_20  and  C_21
REMARK    8  A    between atoms: C_25  and  C_26
REMARK                            x       y       z     vdW  Elec       q    Type
REMARK                         _______ _______ _______ _____ _____    ______ ____
ROOT
ATOM      1  N   UNL     1       5.966   5.190  15.721  0.00  0.00    +0.000 N 
ATOM      2  C   UNL     1       4.846   6.166  15.822  0.00  0.00    +0.000 C 
ATOM      3  C   UNL     1       4.084   5.643  17.005  0.00  0.00    +0.000 A 
ATOM      4  C   UNL     1       4.342   4.264  17.069  0.00  0.00    +0.000 A 
ATOM      5  C   UNL     1       3.932   3.477  18.125  0.00  0.00    +0.000 A 
ATOM      6  C   UNL     1       3.240   4.116  19.149  0.00  0.00    +0.000 A 
ATOM      7  C   UNL     1       2.961   5.498  19.098  0.00  0.00    +0.000 A 
ATOM      8  C   UNL     1       3.403   6.294  18.022  0.00  0.00    +0.000 A 
ATOM      9  C   UNL     1       5.408   3.945  16.106  0.00  0.00    +0.000 C 
ATOM     10  O   UNL     1       5.827   2.825  15.886  0.00  0.00    +0.000 OA
ENDROOT
BRANCH   1  15
ATOM     11  C   UNL     1       7.745   7.627  17.738  0.00  0.00    +0.000 A 
ATOM     12  C   UNL     1       7.921   6.860  18.897  0.00  0.00    +0.000 A 
ATOM     13  C   UNL     1       7.845   5.474  18.835  0.00  0.00    +0.000 A 
ATOM     14  C   UNL     1       7.498   4.855  17.639  0.00  0.00    +0.000 A 
ATOM     15  C   UNL     1       7.075   5.639  16.552  0.00  0.00    +0.000 A 
ATOM     16  C   UNL     1       7.351   7.004  16.552  0.00  0.00    +0.000 A 
BRANCH  11  17
ATOM     17  C   UNL     1       7.959   9.114  17.768  0.00  0.00    +0.000 C 
BRANCH  17  18
ATOM     18  C   UNL     1       8.863   9.516  18.938  0.00  0.00    +0.000 C 
BRANCH  18  19
ATOM     19  C   UNL     1       9.854  10.652  18.628  0.00  0.00    +0.000 C 
BRANCH  19  25
ATOM     20  C   UNL     1       9.736  12.657  21.040  0.00  0.00    +0.000 C 
ATOM     21  N   UNL     1       9.184  12.854  19.726  0.00  0.00    +0.000 N 
ATOM     22  C   UNL     1       8.509  13.960  19.309  0.00  0.00    +0.000 A 
ATOM     23  N   UNL     1       8.139  13.808  18.061  0.00  0.00    +0.000 NA
ATOM     24  N   UNL     1       8.569  12.568  17.651  0.00  0.00    +0.000 NA
ATOM     25  C   UNL     1       9.207  11.995  18.655  0.00  0.00    +0.000 A 
ENDBRANCH  19  25
ENDBRANCH  18  19
ENDBRANCH  17  18
ENDBRANCH  11  17
ENDBRANCH   1  15
BRANCH   6  26
ATOM     26  C   UNL     1       2.474   3.250  20.136  0.00  0.00    +0.000 C 
ATOM     27  C   UNL     1       1.817   3.837  21.132  0.00  0.00    +0.000 C 
ATOM     28  N   UNL     1       1.733   2.413  21.091  0.00  0.00    +0.000 N 
ATOM     29  H   UNL     1       2.371   2.023  21.788  0.00  0.00    +0.000 HD
ENDBRANCH   6  26
BRANCH   8  30
ATOM     30  C   UNL     1       3.169   7.783  18.065  0.00  0.00    +0.000 C 
ATOM     31  F   UNL     1       4.303   8.525  17.952  0.00  0.00    +0.000 F 
ATOM     32  F   UNL     1       2.352   8.204  17.061  0.00  0.00    +0.000 F 
ATOM     33  F   UNL     1       2.575   8.182  19.223  0.00  0.00    +0.000 F 
ENDBRANCH   8  30
TORSDOF 7
ENDMDL
MODEL 6
REMARK VINA RESULT:      -8.4      1.123      1.716
REMARK  Name = 
REMARK  8 active torsions:
REMARK  status: ('A' for Active; 'I' for Inactive)
REMARK    1  A    between atoms: C_1  and  N_2
REMARK    2  A    between atoms: C_6  and  C_7
REMARK    3  A    between atoms: C_7  and  C_8
REMARK    4  A    between atoms: C_8  and  C_9
REMARK    5  A    between atoms: C_9  and  C_10
REMARK    6  A    between atoms: C_14  and  N_15
REMARK    7  A    between atoms: C_20  and  C_21
REMARK    8  A    between atoms: C_25  and  C_26
REMARK                            x       y       z     vdW  Elec       q    Type
REMARK                         _______ _______ _______ _____ _____    ______ ____
ROOT
ATOM      1  N   UNL     1       5.934   5.127  15.721  0.00  0.00    +0.000 N 
ATOM      2  C   UNL     1       4.817   6.108  15.810  0.00  0.00    +0.000 C 
ATOM      3  C   UNL     1       4.053   5.600  16.999  0.00  0.00    +0.000 A 
ATOM      4  C   UNL     1       4.308   4.221  17.078  0.00  0.00    +0.000 A 
ATOM      5  C   UNL     1       3.895   3.447  18.143  0.00  0.00    +0.000 A 
ATOM      6  C   UNL     1       3.205   4.099  19.159  0.00  0.00    +0.000 A 
ATOM      7  C   UNL     1       2.929   5.480  19.093  0.00  0.00    +0.000 A 
ATOM      8  C   UNL     1       3.374   6.264  18.008  0.00  0.00    +0.000 A 
ATOM      9  C   UNL     1       5.373   3.889  16.119  0.00  0.00    +0.000 C 
ATOM     10  O   UNL     1       5.789   2.765  15.911  0.00  0.00    +0.000 OA
ENDROOT
BRANCH   1  15
ATOM     11  C   UNL     1       7.696   7.565  17.752  0.00  0.00    +0.000 A 
ATOM     12  C   UNL     1       7.894   6.787  18.899  0.00  0.00    +0.000 A 
ATOM     13  C   UNL     1       7.838   5.400  18.820  0.00  0.00    +0.000 A 
ATOM     14  C   UNL     1       7.489   4.791  17.620  0.00  0.00    +0.000 A 
ATOM     15  C   UNL     1       7.044   5.582  16.547  0.00  0.00    +0.000 A 
ATOM     16  C   UNL     1       7.300   6.952  16.562  0.00  0.00    +0.000 A 
BRANCH  11  17
ATOM     17  C   UNL     1       7.888   9.055  17.799  0.00  0.00    +0.000 C 
BRANCH  17  18
ATOM     18  C   UNL     1       8.901   9.445  18.881  0.00  0.00    +0.000 C 
BRANCH  18  19
ATOM     19  C   UNL     1       9.719  10.712  18.574  0.00  0.00    +0.000 C 
BRANCH  19  25
ATOM     20  C   UNL     1       8.441  13.562  18.266  0.00  0.00    +0.000 C 
ATOM     21  N   UNL     1       8.996  12.990  19.463  0.00  0.00    +0.000 N 
ATOM     22  C   UNL     1       9.058  13.602  20.677  0.00  0.00    +0.000 A 
ATOM     23  N   UNL     1       9.629  12.804  21.546  0.00  0.00    +0.000 NA
ATOM     24  N   UNL     1       9.962  11.645  20.886  0.00  0.00    +0.000 NA
ATOM     25  C   UNL     1       9.572  11.754  19.630  0.00  0.00    +0.000 A 
ENDBRANCH  19  25
ENDBRANCH  18  19
ENDBRANCH  17  18
ENDBRANCH  11  17
ENDBRANCH   1  15
BRANCH   6  26
ATOM     26  C   UNL     1       2.436   3.246  20.155  0.00  0.00    +0.000 C 
ATOM     27  C   UNL     1       1.137   3.042  19.960  0.00  0.00    +0.000 C 
ATOM     28  N   UNL     1       1.692   2.421  21.119  0.00  0.00    +0.000 N 
ATOM     29  H   UNL     1       1.446   2.975  21.942  0.00  0.00    +0.000 HD
ENDBRANCH   6  26
BRANCH   8  30
ATOM     30  C   UNL     1       3.144   7.754  18.035  0.00  0.00    +0.000 C 
ATOM     31  F   UNL     1       2.348   8.209  17.030  0.00  0.00    +0.000 F 
ATOM     32  F   UNL     1       2.550   8.161  19.189  0.00  0.00    +0.000 F 
ATOM     33  F   UNL     1       4.304   8.459  17.941  0.00  0.00    +0.000 F 
ENDBRANCH   8  30
TORSDOF 7
ENDMDL
MODEL 7
REMARK VINA RESULT:      -8.4      4.585      7.359
REMARK  Name = 
REMARK  8 active torsions:
REMARK  status: ('A' for Active; 'I' for Inactive)
REMARK    1  A    between atoms: C_1  and  N_2
REMARK    2  A    between atoms: C_6  and  C_7
REMARK    3  A    between atoms: C_7  and  C_8
REMARK    4  A    between atoms: C_8  and  C_9
REMARK    5  A    between atoms: C_9  and  C_10
REMARK    6  A    between atoms: C_14  and  N_15
REMARK    7  A    between atoms: C_20  and  C_21
REMARK    8  A    between atoms: C_25  and  C_26
REMARK                            x       y       z     vdW  Elec       q    Type
REMARK                         _______ _______ _______ _____ _____    ______ ____
ROOT
ATOM      1  N   UNL     1       3.813   4.426  19.319  0.00  0.00    +0.000 N 
ATOM      2  C   UNL     1       5.177   5.022  19.341  0.00  0.00    +0.000 C 
ATOM      3  C   UNL     1       5.596   4.888  17.905  0.00  0.00    +0.000 A 
ATOM      4  C   UNL     1       4.888   3.793  17.382  0.00  0.00    +0.000 A 
ATOM      5  C   UNL     1       4.902   3.468  16.042  0.00  0.00    +0.000 A 
ATOM      6  C   UNL     1       5.659   4.285  15.209  0.00  0.00    +0.000 A 
ATOM      7  C   UNL     1       6.386   5.382  15.715  0.00  0.00    +0.000 A 
ATOM      8  C   UNL     1       6.347   5.715  17.085  0.00  0.00    +0.000 A 
ATOM      9  C   UNL     1       3.881   3.376  18.371  0.00  0.00    +0.000 C 
ATOM     10  O   UNL     1       3.138   2.422  18.238  0.00  0.00    +0.000 OA
ENDROOT
BRANCH   1  15
ATOM     11  C   UNL     1       1.860   7.393  20.066  0.00  0.00    +0.000 A 
ATOM     12  C   UNL     1       2.204   8.164  18.949  0.00  0.00    +0.000 A 
ATOM     13  C   UNL     1       2.699   7.552  17.804  0.00  0.00    +0.000 A 
ATOM     14  C   UNL     1       2.943   6.183  17.805  0.00  0.00    +0.000 A 
ATOM     15  C   UNL     1       2.837   5.462  19.006  0.00  0.00    +0.000 A 
ATOM     16  C   UNL     1       2.150   6.027  20.078  0.00  0.00    +0.000 A 
BRANCH  11  17
ATOM     17  C   UNL     1       1.199   8.028  21.257  0.00  0.00    +0.000 C 
BRANCH  17  18
ATOM     18  C   UNL     1       0.764   9.464  20.944  0.00  0.00    +0.000 C 
BRANCH  18  19
ATOM     19  C   UNL     1      -0.305  10.037  21.891  0.00  0.00    +0.000 C 
BRANCH  19  25
ATOM     20  C   UNL     1      -2.396  11.949  23.241  0.00  0.00    +0.000 C 
ATOM     21  N   UNL     1      -1.160  12.329  22.612  0.00  0.00    +0.000 N 
ATOM     22  C   UNL     1      -0.688  13.600  22.498  0.00  0.00    +0.000 A 
ATOM     23  N   UNL     1       0.461  13.591  21.866  0.00  0.00    +0.000 NA
ATOM     24  N   UNL     1       0.745  12.285  21.544  0.00  0.00    +0.000 NA
ATOM     25  C   UNL     1      -0.230  11.521  22.003  0.00  0.00    +0.000 A 
ENDBRANCH  19  25
ENDBRANCH  18  19
ENDBRANCH  17  18
ENDBRANCH  11  17
ENDBRANCH   1  15
BRANCH   6  26
ATOM     26  C   UNL     1       5.988   3.769  13.817  0.00  0.00    +0.000 C 
ATOM     27  C   UNL     1       7.100   4.188  13.221  0.00  0.00    +0.000 C 
ATOM     28  N   UNL     1       6.305   3.270  12.471  0.00  0.00    +0.000 N 
ATOM     29  H   UNL     1       5.775   3.789  11.768  0.00  0.00    +0.000 HD
ENDBRANCH   6  26
BRANCH   8  30
ATOM     30  C   UNL     1       7.058   6.957  17.559  0.00  0.00    +0.000 C 
ATOM     31  F   UNL     1       7.715   6.802  18.740  0.00  0.00    +0.000 F 
ATOM     32  F   UNL     1       7.995   7.385  16.670  0.00  0.00    +0.000 F 
ATOM     33  F   UNL     1       6.208   8.005  17.739  0.00  0.00    +0.000 F 
ENDBRANCH   8  30
TORSDOF 7
ENDMDL
MODEL 8
REMARK VINA RESULT:      -8.3      0.961      1.376
REMARK  Name = 
REMARK  8 active torsions:
REMARK  status: ('A' for Active; 'I' for Inactive)
REMARK    1  A    between atoms: C_1  and  N_2
REMARK    2  A    between atoms: C_6  and  C_7
REMARK    3  A    between atoms: C_7  and  C_8
REMARK    4  A    between atoms: C_8  and  C_9
REMARK    5  A    between atoms: C_9  and  C_10
REMARK    6  A    between atoms: C_14  and  N_15
REMARK    7  A    between atoms: C_20  and  C_21
REMARK    8  A    between atoms: C_25  and  C_26
REMARK                            x       y       z     vdW  Elec       q    Type
REMARK                         _______ _______ _______ _____ _____    ______ ____
ROOT
ATOM      1  N   UNL     1       6.293   5.612  15.424  0.00  0.00    +0.000 N 
ATOM      2  C   UNL     1       5.176   6.552  15.715  0.00  0.00    +0.000 C 
ATOM      3  C   UNL     1       4.262   5.699  16.547  0.00  0.00    +0.000 A 
ATOM      4  C   UNL     1       4.502   4.368  16.168  0.00  0.00    +0.000 A 
ATOM      5  C   UNL     1       3.952   3.293  16.834  0.00  0.00    +0.000 A 
ATOM      6  C   UNL     1       3.136   3.582  17.921  0.00  0.00    +0.000 A 
ATOM      7  C   UNL     1       2.873   4.912  18.312  0.00  0.00    +0.000 A 
ATOM      8  C   UNL     1       3.457   6.002  17.634  0.00  0.00    +0.000 A 
ATOM      9  C   UNL     1       5.683   4.340  15.291  0.00  0.00    +0.000 C 
ATOM     10  O   UNL     1       6.121   3.340  14.754  0.00  0.00    +0.000 OA
ENDROOT
BRANCH   1  15
ATOM     11  C   UNL     1       7.895   7.209  18.263  0.00  0.00    +0.000 A 
ATOM     12  C   UNL     1       7.835   6.144  19.171  0.00  0.00    +0.000 A 
ATOM     13  C   UNL     1       7.677   4.842  18.711  0.00  0.00    +0.000 A 
ATOM     14  C   UNL     1       7.481   4.610  17.354  0.00  0.00    +0.000 A 
ATOM     15  C   UNL     1       7.287   5.698  16.486  0.00  0.00    +0.000 A 
ATOM     16  C   UNL     1       7.651   6.975  16.908  0.00  0.00    +0.000 A 
BRANCH  11  17
ATOM     17  C   UNL     1       8.201   8.601  18.739  0.00  0.00    +0.000 C 
BRANCH  17  18
ATOM     18  C   UNL     1       8.432   9.548  17.557  0.00  0.00    +0.000 C 
BRANCH  18  19
ATOM     19  C   UNL     1       8.556  11.035  17.934  0.00  0.00    +0.000 C 
BRANCH  19  25
ATOM     20  C   UNL     1       9.452  11.320  20.929  0.00  0.00    +0.000 C 
ATOM     21  N   UNL     1      10.275  11.489  19.761  0.00  0.00    +0.000 N 
ATOM     22  C   UNL     1      11.599  11.805  19.766  0.00  0.00    +0.000 A 
ATOM     23  N   UNL     1      12.039  11.887  18.534  0.00  0.00    +0.000 NA
ATOM     24  N   UNL     1      10.977  11.632  17.698  0.00  0.00    +0.000 NA
ATOM     25  C   UNL     1       9.914  11.383  18.440  0.00  0.00    +0.000 A 
ENDBRANCH  19  25
ENDBRANCH  18  19
ENDBRANCH  17  18
ENDBRANCH  11  17
ENDBRANCH   1  15
BRANCH   6  26
ATOM     26  C   UNL     1       2.242   2.474  18.453  0.00  0.00    +0.000 C 
ATOM     27  C   UNL     1       1.097   2.799  19.046  0.00  0.00    +0.000 C 
ATOM     28  N   UNL     1       1.377   1.401  18.967  0.00  0.00    +0.000 N 
ATOM     29  H   UNL     1       1.716   1.080  19.877  0.00  0.00    +0.000 HD
ENDBRANCH   6  26
BRANCH   8  30
ATOM     30  C   UNL     1       3.228   7.399  18.153  0.00  0.00    +0.000 C 
ATOM     31  F   UNL     1       2.273   8.091  17.476  0.00  0.00    +0.000 F 
ATOM     32  F   UNL     1       2.835   7.404  19.456  0.00  0.00    +0.000 F 
ATOM     33  F   UNL     1       4.353   8.163  18.099  0.00  0.00    +0.000 F 
ENDBRANCH   8  30
TORSDOF 7
ENDMDL
MODEL 9
REMARK VINA RESULT:      -8.3      4.321      6.982
REMARK  Name = 
REMARK  8 active torsions:
REMARK  status: ('A' for Active; 'I' for Inactive)
REMARK    1  A    between atoms: C_1  and  N_2
REMARK    2  A    between atoms: C_6  and  C_7
REMARK    3  A    between atoms: C_7  and  C_8
REMARK    4  A    between atoms: C_8  and  C_9
REMARK    5  A    between atoms: C_9  and  C_10
REMARK    6  A    between atoms: C_14  and  N_15
REMARK    7  A    between atoms: C_20  and  C_21
REMARK    8  A    between atoms: C_25  and  C_26
REMARK                            x       y       z     vdW  Elec       q    Type
REMARK                         _______ _______ _______ _____ _____    ______ ____
ROOT
ATOM      1  N   UNL     1       3.959   4.560  19.274  0.00  0.00    +0.000 N 
ATOM      2  C   UNL     1       5.323   5.155  19.335  0.00  0.00    +0.000 C 
ATOM      3  C   UNL     1       5.783   5.022  17.913  0.00  0.00    +0.000 A 
ATOM      4  C   UNL     1       5.091   3.927  17.369  0.00  0.00    +0.000 A 
ATOM      5  C   UNL     1       5.145   3.601  16.030  0.00  0.00    +0.000 A 
ATOM      6  C   UNL     1       5.926   4.417  15.219  0.00  0.00    +0.000 A 
ATOM      7  C   UNL     1       6.638   5.515  15.747  0.00  0.00    +0.000 A 
ATOM      8  C   UNL     1       6.559   5.848  17.115  0.00  0.00    +0.000 A 
ATOM      9  C   UNL     1       4.056   3.509  18.328  0.00  0.00    +0.000 C 
ATOM     10  O   UNL     1       3.316   2.556  18.174  0.00  0.00    +0.000 OA
ENDROOT
BRANCH   1  15
ATOM     11  C   UNL     1       2.039   7.568  19.936  0.00  0.00    +0.000 A 
ATOM     12  C   UNL     1       2.388   8.301  18.795  0.00  0.00    +0.000 A 
ATOM     13  C   UNL     1       2.873   7.650  17.667  0.00  0.00    +0.000 A 
ATOM     14  C   UNL     1       3.104   6.279  17.709  0.00  0.00    +0.000 A 
ATOM     15  C   UNL     1       2.994   5.596  18.932  0.00  0.00    +0.000 A 
ATOM     16  C   UNL     1       2.315   6.200  19.988  0.00  0.00    +0.000 A 
BRANCH  11  17
ATOM     17  C   UNL     1       1.387   8.245  21.109  0.00  0.00    +0.000 C 
BRANCH  17  18
ATOM     18  C   UNL     1       0.232   9.143  20.653  0.00  0.00    +0.000 C 
BRANCH  18  19
ATOM     19  C   UNL     1       0.457  10.649  20.876  0.00  0.00    +0.000 C 
BRANCH  19  25
ATOM     20  C   UNL     1       1.226  13.590  20.093  0.00  0.00    +0.000 C 
ATOM     21  N   UNL     1       0.227  12.764  19.470  0.00  0.00    +0.000 N 
ATOM     22  C   UNL     1      -0.561  13.130  18.422  0.00  0.00    +0.000 A 
ATOM     23  N   UNL     1      -1.364  12.144  18.107  0.00  0.00    +0.000 NA
ATOM     24  N   UNL     1      -1.110  11.109  18.976  0.00  0.00    +0.000 NA
ATOM     25  C   UNL     1      -0.142  11.481  19.794  0.00  0.00    +0.000 A 
ENDBRANCH  19  25
ENDBRANCH  18  19
ENDBRANCH  17  18
ENDBRANCH  11  17
ENDBRANCH   1  15
BRANCH   6  26
ATOM     26  C   UNL     1       6.295   3.901  13.838  0.00  0.00    +0.000 C 
ATOM     27  C   UNL     1       5.324   3.549  13.001  0.00  0.00    +0.000 C 
ATOM     28  N   UNL     1       6.653   3.402  12.502  0.00  0.00    +0.000 N 
ATOM     29  H   UNL     1       6.918   2.417  12.553  0.00  0.00    +0.000 HD
ENDBRANCH   6  26
BRANCH   8  30
ATOM     30  C   UNL     1       7.255   7.090  17.610  0.00  0.00    +0.000 C 
ATOM     31  F   UNL     1       7.969   6.906  18.753  0.00  0.00    +0.000 F 
ATOM     32  F   UNL     1       8.138   7.582  16.699  0.00  0.00    +0.000 F 
ATOM     33  F   UNL     1       6.385   8.103  17.872  0.00  0.00    +0.000 F 
ENDBRANCH   8  30
TORSDOF 7
ENDMDL
