MODEL 1
REMARK VINA RESULT:      -8.7      0.000      0.000
REMARK  Name = 
REMARK  7 active torsions:
REMARK  status: ('A' for Active; 'I' for Inactive)
REMARK    1  A    between atoms: C_1  and  C_2
REMARK    2  A    between atoms: C_4  and  C_5
REMARK    3  A    between atoms: N_6  and  C_7
REMARK    4  A    between atoms: C_10  and  C_11
REMARK    5  A    between atoms: C_11  and  N_12
REMARK    6  A    between atoms: C_13  and  C_15
REMARK    7  A    between atoms: C_17  and  C_18
REMARK                            x       y       z     vdW  Elec       q    Type
REMARK                         _______ _______ _______ _____ _____    ______ ____
ROOT
ATOM      1  N   UNL     1       3.974   5.816  18.586  0.00  0.00    +0.000 N 
ATOM      2  C   UNL     1       4.790   4.708  18.579  0.00  0.00    +0.000 C 
ATOM      3  O   UNL     1       4.793   3.884  19.485  0.00  0.00    +0.000 OA
ATOM      4  H   UNL     1       3.943   6.428  17.785  0.00  0.00    +0.000 HD
ENDROOT
BRANCH   2   5
ATOM      5  C   UNL     1       5.635   4.582  17.423  0.00  0.00    +0.000 A 
ATOM      6  C   UNL     1       5.379   4.597  16.064  0.00  0.00    +0.000 A 
ATOM      7  C   UNL     1       6.634   4.413  15.443  0.00  0.00    +0.000 A 
ATOM      8  N   UNL     1       7.621   4.299  16.338  0.00  0.00    +0.000 NA
ATOM      9  N   UNL     1       6.991   4.412  17.523  0.00  0.00    +0.000 N 
ATOM     10  H   UNL     1       7.537   4.364  18.379  0.00  0.00    +0.000 HD
BRANCH   7  11
ATOM     11  C   UNL     1       6.831   4.349  14.000  0.00  0.00    +0.000 A 
ATOM     12  C   UNL     1       6.125   3.508  13.104  0.00  0.00    +0.000 A 
ATOM     13  C   UNL     1       6.626   3.779  11.851  0.00  0.00    +0.000 A 
ATOM     14  O   UNL     1       7.592   4.732  11.919  0.00  0.00    +0.000 OA
ATOM     15  C   UNL     1       7.712   5.075  13.229  0.00  0.00    +0.000 A 
ENDBRANCH   7  11
ENDBRANCH   2   5
BRANCH   1  16
ATOM     16  C   UNL     1       3.045   6.050  19.661  0.00  0.00    +0.000 C 
BRANCH  16  20
ATOM     17  C   UNL     1       0.831   9.723  19.052  0.00  0.00    +0.000 A 
ATOM     18  C   UNL     1       1.544   9.136  18.001  0.00  0.00    +0.000 A 
ATOM     19  C   UNL     1       2.266   7.955  18.204  0.00  0.00    +0.000 A 
ATOM     20  C   UNL     1       2.284   7.334  19.458  0.00  0.00    +0.000 A 
ATOM     21  C   UNL     1       1.611   7.949  20.523  0.00  0.00    +0.000 A 
ATOM     22  C   UNL     1       0.897   9.139  20.325  0.00  0.00    +0.000 A 
BRANCH  17  28
ATOM     23  C   UNL     1      -0.086  14.460  19.210  0.00  0.00    +0.000 C 
ATOM     24  C   UNL     1      -0.316  13.025  18.917  0.00  0.00    +0.000 A 
ATOM     25  C   UNL     1      -1.370  12.459  18.181  0.00  0.00    +0.000 A 
ATOM     26  C   UNL     1      -1.144  11.099  18.198  0.00  0.00    +0.000 A 
ATOM     27  C   UNL     1      -2.040  10.020  17.710  0.00  0.00    +0.000 C 
ATOM     28  N   UNL     1       0.065  10.914  18.864  0.00  0.00    +0.000 N 
ATOM     29  N   UNL     1       0.512  12.090  19.390  0.00  0.00    +0.000 NA
ENDBRANCH  17  28
ENDBRANCH  16  20
ENDBRANCH   1  16
TORSDOF 5
ENDMDL
MODEL 2
REMARK VINA RESULT:      -8.5      0.402      1.180
REMARK  Name = 
REMARK  7 active torsions:
REMARK  status: ('A' for Active; 'I' for Inactive)
REMARK    1  A    between atoms: C_1  and  C_2
REMARK    2  A    between atoms: C_4  and  C_5
REMARK    3  A    between atoms: N_6  and  C_7
REMARK    4  A    between atoms: C_10  and  C_11
REMARK    5  A    between atoms: C_11  and  N_12
REMARK    6  A    between atoms: C_13  and  C_15
REMARK    7  A    between atoms: C_17  and  C_18
REMARK                            x       y       z     vdW  Elec       q    Type
REMARK                         _______ _______ _______ _____ _____    ______ ____
ROOT
ATOM      1  N   UNL     1       3.981   5.825  18.585  0.00  0.00    +0.000 N 
ATOM      2  C   UNL     1       4.819   4.734  18.588  0.00  0.00    +0.000 C 
ATOM      3  O   UNL     1       4.858   3.933  19.515  0.00  0.00    +0.000 OA
ATOM      4  H   UNL     1       3.920   6.415  17.770  0.00  0.00    +0.000 HD
ENDROOT
BRANCH   2   5
ATOM      5  C   UNL     1       5.640   4.593  17.417  0.00  0.00    +0.000 A 
ATOM      6  C   UNL     1       5.358   4.596  16.063  0.00  0.00    +0.000 A 
ATOM      7  C   UNL     1       6.600   4.402  15.419  0.00  0.00    +0.000 A 
ATOM      8  N   UNL     1       7.603   4.293  16.296  0.00  0.00    +0.000 NA
ATOM      9  N   UNL     1       6.997   4.419  17.492  0.00  0.00    +0.000 N 
ATOM     10  H   UNL     1       7.560   4.377  18.338  0.00  0.00    +0.000 HD
BRANCH   7  11
ATOM     11  C   UNL     1       6.768   4.324  13.974  0.00  0.00    +0.000 A 
ATOM     12  C   UNL     1       7.672   5.098  13.203  0.00  0.00    +0.000 A 
ATOM     13  C   UNL     1       7.500   4.695  11.897  0.00  0.00    +0.000 A 
ATOM     14  O   UNL     1       6.552   3.727  11.817  0.00  0.00    +0.000 OA
ATOM     15  C   UNL     1       6.111   3.505  13.083  0.00  0.00    +0.000 A 
ENDBRANCH   7  11
ENDBRANCH   2   5
BRANCH   1  16
ATOM     16  C   UNL     1       3.071   6.069  19.674  0.00  0.00    +0.000 C 
BRANCH  16  20
ATOM     17  C   UNL     1       0.864   9.752  19.097  0.00  0.00    +0.000 A 
ATOM     18  C   UNL     1       0.897   9.126  20.348  0.00  0.00    +0.000 A 
ATOM     19  C   UNL     1       1.603   7.932  20.529  0.00  0.00    +0.000 A 
ATOM     20  C   UNL     1       2.295   7.343  19.465  0.00  0.00    +0.000 A 
ATOM     21  C   UNL     1       2.221   7.942  18.200  0.00  0.00    +0.000 A 
ATOM     22  C   UNL     1       1.504   9.132  18.014  0.00  0.00    +0.000 A 
BRANCH  17  28
ATOM     23  C   UNL     1       0.321  14.547  18.978  0.00  0.00    +0.000 C 
ATOM     24  C   UNL     1      -0.044  13.119  18.820  0.00  0.00    +0.000 A 
ATOM     25  C   UNL     1      -1.207  12.590  18.236  0.00  0.00    +0.000 A 
ATOM     26  C   UNL     1      -1.081  11.220  18.335  0.00  0.00    +0.000 A 
ATOM     27  C   UNL     1      -2.100  10.187  18.021  0.00  0.00    +0.000 C 
ATOM     28  N   UNL     1       0.173  10.985  18.893  0.00  0.00    +0.000 N 
ATOM     29  N   UNL     1       0.757  12.154  19.281  0.00  0.00    +0.000 NA
ENDBRANCH  17  28
ENDBRANCH  16  20
ENDBRANCH   1  16
TORSDOF 5
ENDMDL
MODEL 3
REMARK VINA RESULT:      -8.3      1.007      1.586
REMARK  Name = 
REMARK  7 active torsions:
REMARK  status: ('A' for Active; 'I' for Inactive)
REMARK    1  A    between atoms: C_1  and  C_2
REMARK    2  A    between atoms: C_4  and  C_5
REMARK    3  A    between atoms: N_6  and  C_7
REMARK    4  A    between atoms: C_10  and  C_11
REMARK    5  A    between atoms: C_11  and  N_12
REMARK    6  A    between atoms: C_13  and  C_15
REMARK    7  A    between atoms: C_17  and  C_18
REMARK                            x       y       z     vdW  Elec       q    Type
REMARK                         _______ _______ _______ _____ _____    ______ ____
ROOT
ATOM      1  N   UNL     1       3.807   5.348  18.596  0.00  0.00    +0.000 N 
ATOM      2  C   UNL     1       5.171   5.234  18.735  0.00  0.00    +0.000 C 
ATOM      3  O   UNL     1       5.739   5.377  19.812  0.00  0.00    +0.000 OA
ATOM      4  H   UNL     1       3.369   5.145  17.710  0.00  0.00    +0.000 HD
ENDROOT
BRANCH   2   5
ATOM      5  C   UNL     1       5.883   4.924  17.526  0.00  0.00    +0.000 A 
ATOM      6  C   UNL     1       5.518   4.929  16.192  0.00  0.00    +0.000 A 
ATOM      7  C   UNL     1       6.670   4.515  15.486  0.00  0.00    +0.000 A 
ATOM      8  N   UNL     1       7.697   4.274  16.307  0.00  0.00    +0.000 NA
ATOM      9  N   UNL     1       7.197   4.536  17.530  0.00  0.00    +0.000 N 
ATOM     10  H   UNL     1       7.799   4.431  18.343  0.00  0.00    +0.000 HD
BRANCH   7  11
ATOM     11  C   UNL     1       6.731   4.363  14.038  0.00  0.00    +0.000 A 
ATOM     12  C   UNL     1       7.624   5.043  13.171  0.00  0.00    +0.000 A 
ATOM     13  C   UNL     1       7.337   4.596  11.901  0.00  0.00    +0.000 A 
ATOM     14  O   UNL     1       6.328   3.687  11.932  0.00  0.00    +0.000 OA
ATOM     15  C   UNL     1       5.965   3.550  13.234  0.00  0.00    +0.000 A 
ENDBRANCH   7  11
ENDBRANCH   2   5
BRANCH   1  16
ATOM     16  C   UNL     1       2.961   5.615  19.731  0.00  0.00    +0.000 C 
BRANCH  16  20
ATOM     17  C   UNL     1       1.034   9.478  19.379  0.00  0.00    +0.000 A 
ATOM     18  C   UNL     1       1.693   8.905  18.285  0.00  0.00    +0.000 A 
ATOM     19  C   UNL     1       2.323   7.662  18.405  0.00  0.00    +0.000 A 
ATOM     20  C   UNL     1       2.301   6.963  19.617  0.00  0.00    +0.000 A 
ATOM     21  C   UNL     1       1.684   7.560  20.726  0.00  0.00    +0.000 A 
ATOM     22  C   UNL     1       1.063   8.811  20.612  0.00  0.00    +0.000 A 
BRANCH  17  28
ATOM     23  C   UNL     1      -2.649  12.569  19.810  0.00  0.00    +0.000 C 
ATOM     24  C   UNL     1      -1.277  12.102  19.498  0.00  0.00    +0.000 A 
ATOM     25  C   UNL     1      -0.167  12.882  19.137  0.00  0.00    +0.000 A 
ATOM     26  C   UNL     1       0.866  11.989  18.945  0.00  0.00    +0.000 A 
ATOM     27  C   UNL     1       2.219  12.265  18.397  0.00  0.00    +0.000 C 
ATOM     28  N   UNL     1       0.362  10.734  19.275  0.00  0.00    +0.000 N 
ATOM     29  N   UNL     1      -0.979  10.799  19.513  0.00  0.00    +0.000 NA
ENDBRANCH  17  28
ENDBRANCH  16  20
ENDBRANCH   1  16
TORSDOF 5
ENDMDL
MODEL 4
REMARK VINA RESULT:      -8.1      1.173      1.631
REMARK  Name = 
REMARK  7 active torsions:
REMARK  status: ('A' for Active; 'I' for Inactive)
REMARK    1  A    between atoms: C_1  and  C_2
REMARK    2  A    between atoms: C_4  and  C_5
REMARK    3  A    between atoms: N_6  and  C_7
REMARK    4  A    between atoms: C_10  and  C_11
REMARK    5  A    between atoms: C_11  and  N_12
REMARK    6  A    between atoms: C_13  and  C_15
REMARK    7  A    between atoms: C_17  and  C_18
REMARK                            x       y       z     vdW  Elec       q    Type
REMARK                         _______ _______ _______ _____ _____    ______ ____
ROOT
ATOM      1  N   UNL     1       3.991   5.648  17.926  0.00  0.00    +0.000 N 
ATOM      2  C   UNL     1       5.355   5.724  17.765  0.00  0.00    +0.000 C 
ATOM      3  O   UNL     1       6.106   6.105  18.655  0.00  0.00    +0.000 OA
ATOM      4  H   UNL     1       3.415   5.254  17.197  0.00  0.00    +0.000 HD
ENDROOT
BRANCH   2   5
ATOM      5  C   UNL     1       5.840   5.312  16.475  0.00  0.00    +0.000 A 
ATOM      6  C   UNL     1       5.290   4.545  15.464  0.00  0.00    +0.000 A 
ATOM      7  C   UNL     1       6.274   4.498  14.452  0.00  0.00    +0.000 A 
ATOM      8  N   UNL     1       7.367   5.191  14.787  0.00  0.00    +0.000 NA
ATOM      9  N   UNL     1       7.075   5.678  16.008  0.00  0.00    +0.000 N 
ATOM     10  H   UNL     1       7.760   6.258  16.485  0.00  0.00    +0.000 HD
BRANCH   7  11
ATOM     11  C   UNL     1       6.120   3.775  13.195  0.00  0.00    +0.000 A 
ATOM     12  C   UNL     1       7.170   3.417  12.312  0.00  0.00    +0.000 A 
ATOM     13  C   UNL     1       6.576   2.749  11.265  0.00  0.00    +0.000 A 
ATOM     14  O   UNL     1       5.232   2.673  11.448  0.00  0.00    +0.000 OA
ATOM     15  C   UNL     1       4.961   3.299  12.624  0.00  0.00    +0.000 A 
ENDBRANCH   7  11
ENDBRANCH   2   5
BRANCH   1  16
ATOM     16  C   UNL     1       3.368   5.989  19.179  0.00  0.00    +0.000 C 
BRANCH  16  20
ATOM     17  C   UNL     1       1.106   9.671  18.884  0.00  0.00    +0.000 A 
ATOM     18  C   UNL     1       1.160   8.959  20.088  0.00  0.00    +0.000 A 
ATOM     19  C   UNL     1       1.884   7.766  20.177  0.00  0.00    +0.000 A 
ATOM     20  C   UNL     1       2.573   7.263  19.068  0.00  0.00    +0.000 A 
ATOM     21  C   UNL     1       2.477   7.948  17.848  0.00  0.00    +0.000 A 
ATOM     22  C   UNL     1       1.742   9.138  17.754  0.00  0.00    +0.000 A 
BRANCH  17  28
ATOM     23  C   UNL     1       0.549  14.466  18.896  0.00  0.00    +0.000 C 
ATOM     24  C   UNL     1       0.170  13.039  18.757  0.00  0.00    +0.000 A 
ATOM     25  C   UNL     1      -1.048  12.517  18.293  0.00  0.00    +0.000 A 
ATOM     26  C   UNL     1      -0.911  11.146  18.358  0.00  0.00    +0.000 A 
ATOM     27  C   UNL     1      -1.958  10.115  18.140  0.00  0.00    +0.000 C 
ATOM     28  N   UNL     1       0.396  10.905  18.774  0.00  0.00    +0.000 N 
ATOM     29  N   UNL     1       1.017  12.070  19.114  0.00  0.00    +0.000 NA
ENDBRANCH  17  28
ENDBRANCH  16  20
ENDBRANCH   1  16
TORSDOF 5
ENDMDL
MODEL 5
REMARK VINA RESULT:      -8.0      1.394      1.999
REMARK  Name = 
REMARK  7 active torsions:
REMARK  status: ('A' for Active; 'I' for Inactive)
REMARK    1  A    between atoms: C_1  and  C_2
REMARK    2  A    between atoms: C_4  and  C_5
REMARK    3  A    between atoms: N_6  and  C_7
REMARK    4  A    between atoms: C_10  and  C_11
REMARK    5  A    between atoms: C_11  and  N_12
REMARK    6  A    between atoms: C_13  and  C_15
REMARK    7  A    between atoms: C_17  and  C_18
REMARK                            x       y       z     vdW  Elec       q    Type
REMARK                         _______ _______ _______ _____ _____    ______ ____
ROOT
ATOM      1  N   UNL     1       4.243   5.606  17.891  0.00  0.00    +0.000 N 
ATOM      2  C   UNL     1       5.540   5.920  17.556  0.00  0.00    +0.000 C 
ATOM      3  O   UNL     1       6.279   6.555  18.299  0.00  0.00    +0.000 OA
ATOM      4  H   UNL     1       3.693   5.013  17.288  0.00  0.00    +0.000 HD
ENDROOT
BRANCH   2   5
ATOM      5  C   UNL     1       5.972   5.439  16.272  0.00  0.00    +0.000 A 
ATOM      6  C   UNL     1       5.378   4.626  15.324  0.00  0.00    +0.000 A 
ATOM      7  C   UNL     1       6.322   4.518  14.278  0.00  0.00    +0.000 A 
ATOM      8  N   UNL     1       7.431   5.217  14.535  0.00  0.00    +0.000 NA
ATOM      9  N   UNL     1       7.190   5.769  15.740  0.00  0.00    +0.000 N 
ATOM     10  H   UNL     1       7.897   6.366  16.160  0.00  0.00    +0.000 HD
BRANCH   7  11
ATOM     11  C   UNL     1       6.114   3.734  13.067  0.00  0.00    +0.000 A 
ATOM     12  C   UNL     1       4.857   3.345  12.538  0.00  0.00    +0.000 A 
ATOM     13  C   UNL     1       5.130   2.629  11.394  0.00  0.00    +0.000 A 
ATOM     14  O   UNL     1       6.470   2.554  11.187  0.00  0.00    +0.000 OA
ATOM     15  C   UNL     1       7.063   3.228  12.208  0.00  0.00    +0.000 A 
ENDBRANCH   7  11
ENDBRANCH   2   5
BRANCH   1  16
ATOM     16  C   UNL     1       3.689   5.987  19.164  0.00  0.00    +0.000 C 
BRANCH  16  20
ATOM     17  C   UNL     1       1.036   9.387  18.753  0.00  0.00    +0.000 A 
ATOM     18  C   UNL     1       1.822   8.958  17.677  0.00  0.00    +0.000 A 
ATOM     19  C   UNL     1       2.685   7.866  17.816  0.00  0.00    +0.000 A 
ATOM     20  C   UNL     1       2.774   7.176  19.030  0.00  0.00    +0.000 A 
ATOM     21  C   UNL     1       2.025   7.636  20.122  0.00  0.00    +0.000 A 
ATOM     22  C   UNL     1       1.169   8.737  19.988  0.00  0.00    +0.000 A 
BRANCH  17  28
ATOM     23  C   UNL     1      -3.156  11.563  17.753  0.00  0.00    +0.000 C 
ATOM     24  C   UNL     1      -1.750  11.431  18.205  0.00  0.00    +0.000 A 
ATOM     25  C   UNL     1      -0.950  12.410  18.816  0.00  0.00    +0.000 A 
ATOM     26  C   UNL     1       0.271  11.806  19.036  0.00  0.00    +0.000 A 
ATOM     27  C   UNL     1       1.528  12.440  19.509  0.00  0.00    +0.000 C 
ATOM     28  N   UNL     1       0.129  10.482  18.628  0.00  0.00    +0.000 N 
ATOM     29  N   UNL     1      -1.079  10.289  18.026  0.00  0.00    +0.000 NA
ENDBRANCH  17  28
ENDBRANCH  16  20
ENDBRANCH   1  16
TORSDOF 5
ENDMDL
MODEL 6
REMARK VINA RESULT:      -8.0      1.332      2.129
REMARK  Name = 
REMARK  7 active torsions:
REMARK  status: ('A' for Active; 'I' for Inactive)
REMARK    1  A    between atoms: C_1  and  C_2
REMARK    2  A    between atoms: C_4  and  C_5
REMARK    3  A    between atoms: N_6  and  C_7
REMARK    4  A    between atoms: C_10  and  C_11
REMARK    5  A    between atoms: C_11  and  N_12
REMARK    6  A    between atoms: C_13  and  C_15
REMARK    7  A    between atoms: C_17  and  C_18
REMARK                            x       y       z     vdW  Elec       q    Type
REMARK                         _______ _______ _______ _____ _____    ______ ____
ROOT
ATOM      1  N   UNL     1       4.127   5.685  17.997  0.00  0.00    +0.000 N 
ATOM      2  C   UNL     1       5.492   5.649  17.829  0.00  0.00    +0.000 C 
ATOM      3  O   UNL     1       6.276   5.909  18.735  0.00  0.00    +0.000 OA
ATOM      4  H   UNL     1       3.517   5.387  17.251  0.00  0.00    +0.000 HD
ENDROOT
BRANCH   2   5
ATOM      5  C   UNL     1       5.935   5.275  16.514  0.00  0.00    +0.000 A 
ATOM      6  C   UNL     1       5.381   4.484  15.524  0.00  0.00    +0.000 A 
ATOM      7  C   UNL     1       6.314   4.499  14.464  0.00  0.00    +0.000 A 
ATOM      8  N   UNL     1       7.381   5.252  14.751  0.00  0.00    +0.000 NA
ATOM      9  N   UNL     1       7.122   5.713  15.990  0.00  0.00    +0.000 N 
ATOM     10  H   UNL     1       7.796   6.329  16.438  0.00  0.00    +0.000 HD
BRANCH   7  11
ATOM     11  C   UNL     1       6.140   3.777  13.210  0.00  0.00    +0.000 A 
ATOM     12  C   UNL     1       7.169   3.454  12.290  0.00  0.00    +0.000 A 
ATOM     13  C   UNL     1       6.560   2.772  11.261  0.00  0.00    +0.000 A 
ATOM     14  O   UNL     1       5.226   2.655  11.489  0.00  0.00    +0.000 OA
ATOM     15  C   UNL     1       4.977   3.268  12.677  0.00  0.00    +0.000 A 
ENDBRANCH   7  11
ENDBRANCH   2   5
BRANCH   1  16
ATOM     16  C   UNL     1       3.541   6.003  19.273  0.00  0.00    +0.000 C 
BRANCH  16  20
ATOM     17  C   UNL     1       0.959   9.472  19.018  0.00  0.00    +0.000 A 
ATOM     18  C   UNL     1       1.105   8.776  20.224  0.00  0.00    +0.000 A 
ATOM     19  C   UNL     1       1.932   7.650  20.300  0.00  0.00    +0.000 A 
ATOM     20  C   UNL     1       2.635   7.202  19.176  0.00  0.00    +0.000 A 
ATOM     21  C   UNL     1       2.450   7.869  17.957  0.00  0.00    +0.000 A 
ATOM     22  C   UNL     1       1.612   8.990  17.875  0.00  0.00    +0.000 A 
BRANCH  17  28
ATOM     23  C   UNL     1      -3.158  11.993  18.954  0.00  0.00    +0.000 C 
ATOM     24  C   UNL     1      -1.696  11.749  18.922  0.00  0.00    +0.000 A 
ATOM     25  C   UNL     1      -0.666  12.703  18.943  0.00  0.00    +0.000 A 
ATOM     26  C   UNL     1       0.508  11.982  18.890  0.00  0.00    +0.000 A 
ATOM     27  C   UNL     1       1.889  12.502  18.724  0.00  0.00    +0.000 C 
ATOM     28  N   UNL     1       0.142  10.639  18.921  0.00  0.00    +0.000 N 
ATOM     29  N   UNL     1      -1.212  10.506  18.837  0.00  0.00    +0.000 NA
ENDBRANCH  17  28
ENDBRANCH  16  20
ENDBRANCH   1  16
TORSDOF 5
ENDMDL
MODEL 7
REMARK VINA RESULT:      -7.9      1.062      1.474
REMARK  Name = 
REMARK  7 active torsions:
REMARK  status: ('A' for Active; 'I' for Inactive)
REMARK    1  A    between atoms: C_1  and  C_2
REMARK    2  A    between atoms: C_4  and  C_5
REMARK    3  A    between atoms: N_6  and  C_7
REMARK    4  A    between atoms: C_10  and  C_11
REMARK    5  A    between atoms: C_11  and  N_12
REMARK    6  A    between atoms: C_13  and  C_15
REMARK    7  A    between atoms: C_17  and  C_18
REMARK                            x       y       z     vdW  Elec       q    Type
REMARK                         _______ _______ _______ _____ _____    ______ ____
ROOT
ATOM      1  N   UNL     1       3.727   4.867  18.580  0.00  0.00    +0.000 N 
ATOM      2  C   UNL     1       5.088   5.001  18.728  0.00  0.00    +0.000 C 
ATOM      3  O   UNL     1       5.613   5.270  19.802  0.00  0.00    +0.000 OA
ATOM      4  H   UNL     1       3.340   4.567  17.698  0.00  0.00    +0.000 HD
ENDROOT
BRANCH   2   5
ATOM      5  C   UNL     1       5.855   4.793  17.530  0.00  0.00    +0.000 A 
ATOM      6  C   UNL     1       5.518   4.777  16.188  0.00  0.00    +0.000 A 
ATOM      7  C   UNL     1       6.723   4.507  15.502  0.00  0.00    +0.000 A 
ATOM      8  N   UNL     1       7.754   4.371  16.341  0.00  0.00    +0.000 NA
ATOM      9  N   UNL     1       7.204   4.555  17.557  0.00  0.00    +0.000 N 
ATOM     10  H   UNL     1       7.797   4.506  18.380  0.00  0.00    +0.000 HD
BRANCH   7  11
ATOM     11  C   UNL     1       6.830   4.387  14.053  0.00  0.00    +0.000 A 
ATOM     12  C   UNL     1       6.054   3.527  13.235  0.00  0.00    +0.000 A 
ATOM     13  C   UNL     1       6.482   3.742  11.944  0.00  0.00    +0.000 A 
ATOM     14  O   UNL     1       7.467   4.677  11.917  0.00  0.00    +0.000 OA
ATOM     15  C   UNL     1       7.674   5.065  13.203  0.00  0.00    +0.000 A 
ENDBRANCH   7  11
ENDBRANCH   2   5
BRANCH   1  16
ATOM     16  C   UNL     1       2.838   5.007  19.704  0.00  0.00    +0.000 C 
BRANCH  16  20
ATOM     17  C   UNL     1       1.181   9.005  19.907  0.00  0.00    +0.000 A 
ATOM     18  C   UNL     1       1.843   8.562  18.756  0.00  0.00    +0.000 A 
ATOM     19  C   UNL     1       2.385   7.274  18.697  0.00  0.00    +0.000 A 
ATOM     20  C   UNL     1       2.271   6.400  19.784  0.00  0.00    +0.000 A 
ATOM     21  C   UNL     1       1.653   6.861  20.956  0.00  0.00    +0.000 A 
ATOM     22  C   UNL     1       1.120   8.155  21.021  0.00  0.00    +0.000 A 
BRANCH  17  28
ATOM     23  C   UNL     1      -0.220  13.322  18.265  0.00  0.00    +0.000 C 
ATOM     24  C   UNL     1      -0.044  12.210  19.230  0.00  0.00    +0.000 A 
ATOM     25  C   UNL     1      -0.593  12.098  20.517  0.00  0.00    +0.000 A 
ATOM     26  C   UNL     1      -0.133  10.895  21.011  0.00  0.00    +0.000 A 
ATOM     27  C   UNL     1      -0.278  10.361  22.390  0.00  0.00    +0.000 C 
ATOM     28  N   UNL     1       0.596  10.305  19.982  0.00  0.00    +0.000 N 
ATOM     29  N   UNL     1       0.731  11.163  18.931  0.00  0.00    +0.000 NA
ENDBRANCH  17  28
ENDBRANCH  16  20
ENDBRANCH   1  16
TORSDOF 5
ENDMDL
MODEL 8
REMARK VINA RESULT:      -7.8      1.706      2.461
REMARK  Name = 
REMARK  7 active torsions:
REMARK  status: ('A' for Active; 'I' for Inactive)
REMARK    1  A    between atoms: C_1  and  C_2
REMARK    2  A    between atoms: C_4  and  C_5
REMARK    3  A    between atoms: N_6  and  C_7
REMARK    4  A    between atoms: C_10  and  C_11
REMARK    5  A    between atoms: C_11  and  N_12
REMARK    6  A    between atoms: C_13  and  C_15
REMARK    7  A    between atoms: C_17  and  C_18
REMARK                            x       y       z     vdW  Elec       q    Type
REMARK                         _______ _______ _______ _____ _____    ______ ____
ROOT
ATOM      1  N   UNL     1       2.588   6.315  19.950  0.00  0.00    +0.000 N 
ATOM      2  C   UNL     1       2.293   5.112  19.350  0.00  0.00    +0.000 C 
ATOM      3  O   UNL     1       1.280   4.474  19.614  0.00  0.00    +0.000 OA
ATOM      4  H   UNL     1       3.390   6.848  19.648  0.00  0.00    +0.000 HD
ENDROOT
BRANCH   2   5
ATOM      5  C   UNL     1       3.254   4.661  18.382  0.00  0.00    +0.000 A 
ATOM      6  C   UNL     1       4.118   5.328  17.532  0.00  0.00    +0.000 A 
ATOM      7  C   UNL     1       4.799   4.317  16.818  0.00  0.00    +0.000 A 
ATOM      8  N   UNL     1       4.407   3.095  17.191  0.00  0.00    +0.000 NA
ATOM      9  N   UNL     1       3.481   3.332  18.141  0.00  0.00    +0.000 N 
ATOM     10  H   UNL     1       3.027   2.544  18.596  0.00  0.00    +0.000 HD
BRANCH   7  11
ATOM     11  C   UNL     1       5.804   4.574  15.794  0.00  0.00    +0.000 A 
ATOM     12  C   UNL     1       5.734   4.154  14.442  0.00  0.00    +0.000 A 
ATOM     13  C   UNL     1       6.883   4.615  13.840  0.00  0.00    +0.000 A 
ATOM     14  O   UNL     1       7.652   5.290  14.734  0.00  0.00    +0.000 OA
ATOM     15  C   UNL     1       6.990   5.261  15.920  0.00  0.00    +0.000 A 
ENDBRANCH   7  11
ENDBRANCH   2   5
BRANCH   1  16
ATOM     16  C   UNL     1       1.694   6.910  20.909  0.00  0.00    +0.000 C 
BRANCH  16  20
ATOM     17  C   UNL     1       0.759  11.009  19.869  0.00  0.00    +0.000 A 
ATOM     18  C   UNL     1       0.548  10.535  21.169  0.00  0.00    +0.000 A 
ATOM     19  C   UNL     1       0.842   9.208  21.499  0.00  0.00    +0.000 A 
ATOM     20  C   UNL     1       1.359   8.330  20.539  0.00  0.00    +0.000 A 
ATOM     21  C   UNL     1       1.524   8.791  19.225  0.00  0.00    +0.000 A 
ATOM     22  C   UNL     1       1.218  10.117  18.890  0.00  0.00    +0.000 A 
BRANCH  17  28
ATOM     23  C   UNL     1       1.673  15.731  19.451  0.00  0.00    +0.000 C 
ATOM     24  C   UNL     1       0.924  14.459  19.311  0.00  0.00    +0.000 A 
ATOM     25  C   UNL     1      -0.265  14.238  18.598  0.00  0.00    +0.000 A 
ATOM     26  C   UNL     1      -0.561  12.903  18.778  0.00  0.00    +0.000 A 
ATOM     27  C   UNL     1      -1.795  12.182  18.375  0.00  0.00    +0.000 C 
ATOM     28  N   UNL     1       0.492  12.367  19.514  0.00  0.00    +0.000 N 
ATOM     29  N   UNL     1       1.345  13.348  19.923  0.00  0.00    +0.000 NA
ENDBRANCH  17  28
ENDBRANCH  16  20
ENDBRANCH   1  16
TORSDOF 5
ENDMDL
MODEL 9
REMARK VINA RESULT:      -7.8      4.181     10.410
REMARK  Name = 
REMARK  7 active torsions:
REMARK  status: ('A' for Active; 'I' for Inactive)
REMARK    1  A    between atoms: C_1  and  C_2
REMARK    2  A    between atoms: C_4  and  C_5
REMARK    3  A    between atoms: N_6  and  C_7
REMARK    4  A    between atoms: C_10  and  C_11
REMARK    5  A    between atoms: C_11  and  N_12
REMARK    6  A    between atoms: C_13  and  C_15
REMARK    7  A    between atoms: C_17  and  C_18
REMARK                            x       y       z     vdW  Elec       q    Type
REMARK                         _______ _______ _______ _____ _____    ______ ____
ROOT
ATOM      1  N   UNL     1      -0.339  10.049  19.773  0.00  0.00    +0.000 N 
ATOM      2  C   UNL     1      -0.459  11.119  18.916  0.00  0.00    +0.000 C 
ATOM      3  O   UNL     1       0.477  11.868  18.660  0.00  0.00    +0.000 OA
ATOM      4  H   UNL     1      -1.109   9.410  19.896  0.00  0.00    +0.000 HD
ENDROOT
BRANCH   2   5
ATOM      5  C   UNL     1      -1.761  11.290  18.332  0.00  0.00    +0.000 A 
ATOM      6  C   UNL     1      -2.987  11.656  18.858  0.00  0.00    +0.000 A 
ATOM      7  C   UNL     1      -3.885  11.632  17.768  0.00  0.00    +0.000 A 
ATOM      8  N   UNL     1      -3.277  11.286  16.629  0.00  0.00    +0.000 NA
ATOM      9  N   UNL     1      -1.995  11.093  16.997  0.00  0.00    +0.000 N 
ATOM     10  H   UNL     1      -1.314  10.824  16.292  0.00  0.00    +0.000 HD
BRANCH   7  11
ATOM     11  C   UNL     1      -5.306  11.941  17.872  0.00  0.00    +0.000 A 
ATOM     12  C   UNL     1      -6.168  11.529  18.919  0.00  0.00    +0.000 A 
ATOM     13  C   UNL     1      -7.408  12.045  18.617  0.00  0.00    +0.000 A 
ATOM     14  O   UNL     1      -7.363  12.746  17.455  0.00  0.00    +0.000 OA
ATOM     15  C   UNL     1      -6.082  12.679  17.007  0.00  0.00    +0.000 A 
ENDBRANCH   7  11
ENDBRANCH   2   5
BRANCH   1  16
ATOM     16  C   UNL     1       0.919   9.732  20.398  0.00  0.00    +0.000 C 
BRANCH  16  20
ATOM     17  C   UNL     1       2.888   6.462  18.352  0.00  0.00    +0.000 A 
ATOM     18  C   UNL     1       2.471   6.326  19.681  0.00  0.00    +0.000 A 
ATOM     19  C   UNL     1       1.844   7.388  20.341  0.00  0.00    +0.000 A 
ATOM     20  C   UNL     1       1.615   8.603  19.686  0.00  0.00    +0.000 A 
ATOM     21  C   UNL     1       2.078   8.755  18.371  0.00  0.00    +0.000 A 
ATOM     22  C   UNL     1       2.717   7.697  17.712  0.00  0.00    +0.000 A 
BRANCH  17  28
ATOM     23  C   UNL     1       6.349   4.245  15.819  0.00  0.00    +0.000 C 
ATOM     24  C   UNL     1       5.066   4.405  16.544  0.00  0.00    +0.000 A 
ATOM     25  C   UNL     1       4.137   3.405  16.874  0.00  0.00    +0.000 A 
ATOM     26  C   UNL     1       3.115   4.053  17.536  0.00  0.00    +0.000 A 
ATOM     27  C   UNL     1       1.806   3.494  17.959  0.00  0.00    +0.000 C 
ATOM     28  N   UNL     1       3.507   5.384  17.647  0.00  0.00    +0.000 N 
ATOM     29  N   UNL     1       4.655   5.611  16.948  0.00  0.00    +0.000 NA
ENDBRANCH  17  28
ENDBRANCH  16  20
ENDBRANCH   1  16
TORSDOF 5
ENDMDL
