MODEL 1
REMARK VINA RESULT:      -8.8      0.000      0.000
REMARK  Name = 
REMARK  4 active torsions:
REMARK  status: ('A' for Active; 'I' for Inactive)
REMARK    1  A    between atoms: C_2  and  C_20
REMARK    2  A    between atoms: N_3  and  C_4
REMARK    3  A    between atoms: C_7  and  N_8
REMARK    4  A    between atoms: C_26  and  C_27
REMARK                            x       y       z     vdW  Elec       q    Type
REMARK                         _______ _______ _______ _____ _____    ______ ____
ROOT
ATOM      1  C   UNL     1       2.948   7.503  18.505  0.00  0.00    +0.000 A 
ATOM      2  C   UNL     1       2.478   8.502  17.653  0.00  0.00    +0.000 A 
ATOM      3  C   UNL     1       1.472   9.382  18.069  0.00  0.00    +0.000 A 
ATOM      4  C   UNL     1       0.922   9.279  19.353  0.00  0.00    +0.000 A 
ATOM      5  C   UNL     1       1.357   8.243  20.188  0.00  0.00    +0.000 A 
ATOM      6  C   UNL     1       2.355   7.355  19.759  0.00  0.00    +0.000 A 
ENDROOT
BRANCH   4   7
ATOM      7  N   UNL     1      -0.048  10.239  19.776  0.00  0.00    +0.000 N 
ATOM      8  N   UNL     1       0.023  10.774  21.038  0.00  0.00    +0.000 NA
ATOM      9  C   UNL     1      -1.017  11.607  21.122  0.00  0.00    +0.000 A 
ATOM     10  C   UNL     1      -1.767  11.624  19.952  0.00  0.00    +0.000 A 
ATOM     11  C   UNL     1      -2.957  12.306  19.531  0.00  0.00    +0.000 A 
ATOM     12  O   UNL     1      -3.568  13.116  20.211  0.00  0.00    +0.000 OA
ATOM     13  N   UNL     1      -3.349  11.947  18.256  0.00  0.00    +0.000 N 
ATOM     14  C   UNL     1      -2.656  11.044  17.479  0.00  0.00    +0.000 A 
ATOM     15  N   UNL     1      -1.571  10.431  17.834  0.00  0.00    +0.000 NA
ATOM     16  C   UNL     1      -1.148  10.745  19.091  0.00  0.00    +0.000 A 
ATOM     17  H   UNL     1      -4.188  12.391  17.911  0.00  0.00    +0.000 HD
ENDBRANCH   4   7
BRANCH   1  20
ATOM     18  O   UNL     1       2.810   4.687  17.686  0.00  0.00    +0.000 OA
ATOM     19  C   UNL     1       3.867   5.293  17.822  0.00  0.00    +0.000 C 
ATOM     20  N   UNL     1       4.002   6.627  18.167  0.00  0.00    +0.000 N 
ATOM     21  H   UNL     1       4.906   7.060  18.019  0.00  0.00    +0.000 HD
BRANCH  19  22
ATOM     22  C   UNL     1       5.195   4.604  17.581  0.00  0.00    +0.000 C 
ATOM     23  C   UNL     1       5.222   3.805  16.275  0.00  0.00    +0.000 C 
ATOM     24  C   UNL     1       4.794   4.620  15.056  0.00  0.00    +0.000 C 
ATOM     25  C   UNL     1       5.955   5.598  14.906  0.00  0.00    +0.000 C 
ATOM     26  C   UNL     1       6.910   5.142  16.017  0.00  0.00    +0.000 C 
ATOM     27  O   UNL     1       6.649   3.720  16.045  0.00  0.00    +0.000 OA
ATOM     28  C   UNL     1       6.385   5.582  17.384  0.00  0.00    +0.000 C 
BRANCH  28  29
ATOM     29  C   UNL     1       7.445   5.464  18.468  0.00  0.00    +0.000 C 
ATOM     30  F   UNL     1       8.287   4.423  18.287  0.00  0.00    +0.000 F 
ATOM     31  F   UNL     1       8.200   6.577  18.583  0.00  0.00    +0.000 F 
ATOM     32  F   UNL     1       6.850   5.277  19.672  0.00  0.00    +0.000 F 
ENDBRANCH  28  29
ENDBRANCH  19  22
ENDBRANCH   1  20
TORSDOF 4
ENDMDL
MODEL 2
REMARK VINA RESULT:      -8.8      4.185      9.359
REMARK  Name = 
REMARK  4 active torsions:
REMARK  status: ('A' for Active; 'I' for Inactive)
REMARK    1  A    between atoms: C_2  and  C_20
REMARK    2  A    between atoms: N_3  and  C_4
REMARK    3  A    between atoms: C_7  and  N_8
REMARK    4  A    between atoms: C_26  and  C_27
REMARK                            x       y       z     vdW  Elec       q    Type
REMARK                         _______ _______ _______ _____ _____    ______ ____
ROOT
ATOM      1  C   UNL     1       1.395   9.309  19.312  0.00  0.00    +0.000 A 
ATOM      2  C   UNL     1       2.006   8.905  18.125  0.00  0.00    +0.000 A 
ATOM      3  C   UNL     1       2.599   7.641  18.021  0.00  0.00    +0.000 A 
ATOM      4  C   UNL     1       2.581   6.754  19.105  0.00  0.00    +0.000 A 
ATOM      5  C   UNL     1       2.014   7.181  20.311  0.00  0.00    +0.000 A 
ATOM      6  C   UNL     1       1.436   8.456  20.414  0.00  0.00    +0.000 A 
ENDROOT
BRANCH   4   7
ATOM      7  N   UNL     1       3.125   5.443  18.944  0.00  0.00    +0.000 N 
ATOM      8  N   UNL     1       4.476   5.278  18.769  0.00  0.00    +0.000 NA
ATOM      9  C   UNL     1       4.652   3.962  18.634  0.00  0.00    +0.000 A 
ATOM     10  C   UNL     1       3.452   3.265  18.709  0.00  0.00    +0.000 A 
ATOM     11  C   UNL     1       3.085   1.882  18.610  0.00  0.00    +0.000 A 
ATOM     12  O   UNL     1       3.877   0.965  18.456  0.00  0.00    +0.000 OA
ATOM     13  N   UNL     1       1.721   1.688  18.707  0.00  0.00    +0.000 N 
ATOM     14  C   UNL     1       0.823   2.717  18.894  0.00  0.00    +0.000 A 
ATOM     15  N   UNL     1       1.136   3.970  19.003  0.00  0.00    +0.000 NA
ATOM     16  C   UNL     1       2.472   4.214  18.904  0.00  0.00    +0.000 A 
ATOM     17  H   UNL     1       1.404   0.732  18.635  0.00  0.00    +0.000 HD
ENDBRANCH   4   7
BRANCH   1  20
ATOM     18  O   UNL     1      -1.416   9.960  18.766  0.00  0.00    +0.000 OA
ATOM     19  C   UNL     1      -0.599  10.790  19.147  0.00  0.00    +0.000 C 
ATOM     20  N   UNL     1       0.727  10.544  19.459  0.00  0.00    +0.000 N 
ATOM     21  H   UNL     1       1.226  11.257  19.978  0.00  0.00    +0.000 HD
BRANCH  19  22
ATOM     22  C   UNL     1      -0.999  12.237  19.352  0.00  0.00    +0.000 C 
ATOM     23  C   UNL     1      -2.080  12.409  20.424  0.00  0.00    +0.000 C 
ATOM     24  C   UNL     1      -1.729  11.741  21.752  0.00  0.00    +0.000 C 
ATOM     25  C   UNL     1      -0.580  12.612  22.251  0.00  0.00    +0.000 C 
ATOM     26  C   UNL     1      -0.501  13.696  21.168  0.00  0.00    +0.000 C 
ATOM     27  O   UNL     1      -1.888  13.801  20.773  0.00  0.00    +0.000 OA
ATOM     28  C   UNL     1       0.143  13.135  19.900  0.00  0.00    +0.000 C 
BRANCH  28  29
ATOM     29  C   UNL     1       0.557  14.235  18.935  0.00  0.00    +0.000 C 
ATOM     30  F   UNL     1      -0.460  14.699  18.177  0.00  0.00    +0.000 F 
ATOM     31  F   UNL     1       1.110  15.296  19.560  0.00  0.00    +0.000 F 
ATOM     32  F   UNL     1       1.496  13.763  18.078  0.00  0.00    +0.000 F 
ENDBRANCH  28  29
ENDBRANCH  19  22
ENDBRANCH   1  20
TORSDOF 4
ENDMDL
MODEL 3
REMARK VINA RESULT:      -8.8      4.453      9.570
REMARK  Name = 
REMARK  4 active torsions:
REMARK  status: ('A' for Active; 'I' for Inactive)
REMARK    1  A    between atoms: C_2  and  C_20
REMARK    2  A    between atoms: N_3  and  C_4
REMARK    3  A    between atoms: C_7  and  N_8
REMARK    4  A    between atoms: C_26  and  C_27
REMARK                            x       y       z     vdW  Elec       q    Type
REMARK                         _______ _______ _______ _____ _____    ______ ____
ROOT
ATOM      1  C   UNL     1       1.050   9.053  20.099  0.00  0.00    +0.000 A 
ATOM      2  C   UNL     1       1.639   8.840  18.854  0.00  0.00    +0.000 A 
ATOM      3  C   UNL     1       2.313   7.644  18.577  0.00  0.00    +0.000 A 
ATOM      4  C   UNL     1       2.400   6.635  19.545  0.00  0.00    +0.000 A 
ATOM      5  C   UNL     1       1.853   6.872  20.811  0.00  0.00    +0.000 A 
ATOM      6  C   UNL     1       1.194   8.079  21.087  0.00  0.00    +0.000 A 
ENDROOT
BRANCH   4   7
ATOM      7  N   UNL     1       3.026   5.396  19.207  0.00  0.00    +0.000 N 
ATOM      8  N   UNL     1       4.380   5.348  18.993  0.00  0.00    +0.000 NA
ATOM      9  C   UNL     1       4.641   4.075  18.687  0.00  0.00    +0.000 A 
ATOM     10  C   UNL     1       3.491   3.294  18.688  0.00  0.00    +0.000 A 
ATOM     11  C   UNL     1       3.215   1.912  18.417  0.00  0.00    +0.000 A 
ATOM     12  O   UNL     1       4.062   1.079  18.134  0.00  0.00    +0.000 OA
ATOM     13  N   UNL     1       1.870   1.614  18.508  0.00  0.00    +0.000 N 
ATOM     14  C   UNL     1       0.910   2.547  18.839  0.00  0.00    +0.000 A 
ATOM     15  N   UNL     1       1.141   3.794  19.105  0.00  0.00    +0.000 NA
ATOM     16  C   UNL     1       2.456   4.140  19.019  0.00  0.00    +0.000 A 
ATOM     17  H   UNL     1       1.616   0.655  18.317  0.00  0.00    +0.000 HD
ENDBRANCH   4   7
BRANCH   1  20
ATOM     18  O   UNL     1       1.897  11.864  20.034  0.00  0.00    +0.000 OA
ATOM     19  C   UNL     1       0.781  11.509  20.399  0.00  0.00    +0.000 C 
ATOM     20  N   UNL     1       0.305  10.209  20.417  0.00  0.00    +0.000 N 
ATOM     21  H   UNL     1      -0.695  10.078  20.515  0.00  0.00    +0.000 HD
BRANCH  19  22
ATOM     22  C   UNL     1      -0.245  12.524  20.859  0.00  0.00    +0.000 C 
ATOM     23  C   UNL     1      -0.717  13.447  19.730  0.00  0.00    +0.000 C 
ATOM     24  C   UNL     1      -1.202  12.693  18.494  0.00  0.00    +0.000 C 
ATOM     25  C   UNL     1      -2.491  12.051  19.000  0.00  0.00    +0.000 C 
ATOM     26  C   UNL     1      -2.588  12.601  20.429  0.00  0.00    +0.000 C 
ATOM     27  O   UNL     1      -1.980  13.903  20.271  0.00  0.00    +0.000 OA
ATOM     28  C   UNL     1      -1.582  11.896  21.340  0.00  0.00    +0.000 C 
BRANCH  28  29
ATOM     29  C   UNL     1      -1.869  12.149  22.811  0.00  0.00    +0.000 C 
ATOM     30  F   UNL     1      -1.004  13.010  23.389  0.00  0.00    +0.000 F 
ATOM     31  F   UNL     1      -3.114  12.623  23.026  0.00  0.00    +0.000 F 
ATOM     32  F   UNL     1      -1.777  10.985  23.502  0.00  0.00    +0.000 F 
ENDBRANCH  28  29
ENDBRANCH  19  22
ENDBRANCH   1  20
TORSDOF 4
ENDMDL
MODEL 4
REMARK VINA RESULT:      -8.7      4.088      9.318
REMARK  Name = 
REMARK  4 active torsions:
REMARK  status: ('A' for Active; 'I' for Inactive)
REMARK    1  A    between atoms: C_2  and  C_20
REMARK    2  A    between atoms: N_3  and  C_4
REMARK    3  A    between atoms: C_7  and  N_8
REMARK    4  A    between atoms: C_26  and  C_27
REMARK                            x       y       z     vdW  Elec       q    Type
REMARK                         _______ _______ _______ _____ _____    ______ ____
ROOT
ATOM      1  C   UNL     1       1.391   9.258  19.326  0.00  0.00    +0.000 A 
ATOM      2  C   UNL     1       1.371   8.373  20.403  0.00  0.00    +0.000 A 
ATOM      3  C   UNL     1       1.918   7.089  20.283  0.00  0.00    +0.000 A 
ATOM      4  C   UNL     1       2.503   6.673  19.080  0.00  0.00    +0.000 A 
ATOM      5  C   UNL     1       2.475   7.544  17.985  0.00  0.00    +0.000 A 
ATOM      6  C   UNL     1       1.910   8.823  18.107  0.00  0.00    +0.000 A 
ENDROOT
BRANCH   4   7
ATOM      7  N   UNL     1       3.122   5.388  19.012  0.00  0.00    +0.000 N 
ATOM      8  N   UNL     1       4.491   5.284  19.029  0.00  0.00    +0.000 NA
ATOM      9  C   UNL     1       4.743   3.977  18.937  0.00  0.00    +0.000 A 
ATOM     10  C   UNL     1       3.576   3.226  18.853  0.00  0.00    +0.000 A 
ATOM     11  C   UNL     1       3.289   1.827  18.721  0.00  0.00    +0.000 A 
ATOM     12  O   UNL     1       4.135   0.946  18.691  0.00  0.00    +0.000 OA
ATOM     13  N   UNL     1       1.935   1.571  18.631  0.00  0.00    +0.000 N 
ATOM     14  C   UNL     1       0.974   2.559  18.678  0.00  0.00    +0.000 A 
ATOM     15  N   UNL     1       1.212   3.825  18.813  0.00  0.00    +0.000 NA
ATOM     16  C   UNL     1       2.538   4.130  18.898  0.00  0.00    +0.000 A 
ATOM     17  H   UNL     1       1.674   0.601  18.527  0.00  0.00    +0.000 HD
ENDBRANCH   4   7
BRANCH   1  20
ATOM     18  O   UNL     1      -1.216  10.326  18.495  0.00  0.00    +0.000 OA
ATOM     19  C   UNL     1      -0.322  11.026  18.957  0.00  0.00    +0.000 C 
ATOM     20  N   UNL     1       0.912  10.584  19.403  0.00  0.00    +0.000 N 
ATOM     21  H   UNL     1       1.461  11.220  19.970  0.00  0.00    +0.000 HD
BRANCH  19  22
ATOM     22  C   UNL     1      -0.511  12.521  19.119  0.00  0.00    +0.000 C 
ATOM     23  C   UNL     1      -1.691  12.875  20.030  0.00  0.00    +0.000 C 
ATOM     24  C   UNL     1      -1.641  12.176  21.386  0.00  0.00    +0.000 C 
ATOM     25  C   UNL     1      -0.451  12.859  22.052  0.00  0.00    +0.000 C 
ATOM     26  C   UNL     1      -0.048  13.904  21.003  0.00  0.00    +0.000 C 
ATOM     27  O   UNL     1      -1.330  14.224  20.417  0.00  0.00    +0.000 OA
ATOM     28  C   UNL     1       0.671  13.232  19.832  0.00  0.00    +0.000 C 
BRANCH  28  29
ATOM     29  C   UNL     1       1.387  14.240  18.947  0.00  0.00    +0.000 C 
ATOM     30  F   UNL     1       0.573  15.198  18.454  0.00  0.00    +0.000 F 
ATOM     31  F   UNL     1       2.402  14.863  19.582  0.00  0.00    +0.000 F 
ATOM     32  F   UNL     1       1.932  13.607  17.879  0.00  0.00    +0.000 F 
ENDBRANCH  28  29
ENDBRANCH  19  22
ENDBRANCH   1  20
TORSDOF 4
ENDMDL
MODEL 5
REMARK VINA RESULT:      -8.7      3.011      3.738
REMARK  Name = 
REMARK  4 active torsions:
REMARK  status: ('A' for Active; 'I' for Inactive)
REMARK    1  A    between atoms: C_2  and  C_20
REMARK    2  A    between atoms: N_3  and  C_4
REMARK    3  A    between atoms: C_7  and  N_8
REMARK    4  A    between atoms: C_26  and  C_27
REMARK                            x       y       z     vdW  Elec       q    Type
REMARK                         _______ _______ _______ _____ _____    ______ ____
ROOT
ATOM      1  C   UNL     1       2.034   7.259  19.019  0.00  0.00    +0.000 A 
ATOM      2  C   UNL     1       2.263   7.961  17.836  0.00  0.00    +0.000 A 
ATOM      3  C   UNL     1       2.003   9.335  17.758  0.00  0.00    +0.000 A 
ATOM      4  C   UNL     1       1.515  10.032  18.872  0.00  0.00    +0.000 A 
ATOM      5  C   UNL     1       1.236   9.316  20.041  0.00  0.00    +0.000 A 
ATOM      6  C   UNL     1       1.484   7.936  20.107  0.00  0.00    +0.000 A 
ENDROOT
BRANCH   4   7
ATOM      7  N   UNL     1       1.333  11.445  18.785  0.00  0.00    +0.000 N 
ATOM      8  N   UNL     1       2.369  12.246  18.371  0.00  0.00    +0.000 NA
ATOM      9  C   UNL     1       1.888  13.490  18.416  0.00  0.00    +0.000 A 
ATOM     10  C   UNL     1       0.569  13.524  18.855  0.00  0.00    +0.000 A 
ATOM     11  C   UNL     1      -0.383  14.568  19.097  0.00  0.00    +0.000 A 
ATOM     12  O   UNL     1      -0.174  15.756  18.899  0.00  0.00    +0.000 OA
ATOM     13  N   UNL     1      -1.582  14.088  19.586  0.00  0.00    +0.000 N 
ATOM     14  C   UNL     1      -1.830  12.749  19.798  0.00  0.00    +0.000 A 
ATOM     15  N   UNL     1      -0.990  11.790  19.570  0.00  0.00    +0.000 NA
ATOM     16  C   UNL     1       0.215  12.214  19.095  0.00  0.00    +0.000 A 
ATOM     17  H   UNL     1      -2.289  14.783  19.783  0.00  0.00    +0.000 HD
ENDBRANCH   4   7
BRANCH   1  20
ATOM     18  O   UNL     1       1.135   4.977  17.404  0.00  0.00    +0.000 OA
ATOM     19  C   UNL     1       1.844   4.856  18.397  0.00  0.00    +0.000 C 
ATOM     20  N   UNL     1       2.334   5.889  19.178  0.00  0.00    +0.000 N 
ATOM     21  H   UNL     1       3.088   5.673  19.820  0.00  0.00    +0.000 HD
BRANCH  19  22
ATOM     22  C   UNL     1       2.298   3.489  18.866  0.00  0.00    +0.000 C 
ATOM     23  C   UNL     1       3.206   2.785  17.852  0.00  0.00    +0.000 C 
ATOM     24  C   UNL     1       4.392   3.637  17.405  0.00  0.00    +0.000 C 
ATOM     25  C   UNL     1       5.238   3.692  18.673  0.00  0.00    +0.000 C 
ATOM     26  C   UNL     1       4.445   2.795  19.632  0.00  0.00    +0.000 C 
ATOM     27  O   UNL     1       3.877   1.834  18.714  0.00  0.00    +0.000 OA
ATOM     28  C   UNL     1       3.197   3.524  20.132  0.00  0.00    +0.000 C 
BRANCH  28  29
ATOM     29  C   UNL     1       2.571   2.828  21.331  0.00  0.00    +0.000 C 
ATOM     30  F   UNL     1       1.424   2.178  21.039  0.00  0.00    +0.000 F 
ATOM     31  F   UNL     1       3.403   1.937  21.910  0.00  0.00    +0.000 F 
ATOM     32  F   UNL     1       2.266   3.744  22.283  0.00  0.00    +0.000 F 
ENDBRANCH  28  29
ENDBRANCH  19  22
ENDBRANCH   1  20
TORSDOF 4
ENDMDL
MODEL 6
REMARK VINA RESULT:      -8.6      2.205      3.079
REMARK  Name = 
REMARK  4 active torsions:
REMARK  status: ('A' for Active; 'I' for Inactive)
REMARK    1  A    between atoms: C_2  and  C_20
REMARK    2  A    between atoms: N_3  and  C_4
REMARK    3  A    between atoms: C_7  and  N_8
REMARK    4  A    between atoms: C_26  and  C_27
REMARK                            x       y       z     vdW  Elec       q    Type
REMARK                         _______ _______ _______ _____ _____    ______ ____
ROOT
ATOM      1  C   UNL     1       2.117   7.366  19.711  0.00  0.00    +0.000 A 
ATOM      2  C   UNL     1       1.601   7.594  20.986  0.00  0.00    +0.000 A 
ATOM      3  C   UNL     1       0.914   8.778  21.278  0.00  0.00    +0.000 A 
ATOM      4  C   UNL     1       0.725   9.754  20.291  0.00  0.00    +0.000 A 
ATOM      5  C   UNL     1       1.289   9.547  19.027  0.00  0.00    +0.000 A 
ATOM      6  C   UNL     1       1.991   8.365  18.746  0.00  0.00    +0.000 A 
ENDROOT
BRANCH   4   7
ATOM      7  N   UNL     1      -0.047  10.916  20.597  0.00  0.00    +0.000 N 
ATOM      8  N   UNL     1       0.298  11.706  21.665  0.00  0.00    +0.000 NA
ATOM      9  C   UNL     1      -0.614  12.681  21.688  0.00  0.00    +0.000 A 
ATOM     10  C   UNL     1      -1.548  12.543  20.668  0.00  0.00    +0.000 A 
ATOM     11  C   UNL     1      -2.711  13.280  20.264  0.00  0.00    +0.000 A 
ATOM     12  O   UNL     1      -3.104  14.303  20.803  0.00  0.00    +0.000 OA
ATOM     13  N   UNL     1      -3.354  12.704  19.186  0.00  0.00    +0.000 N 
ATOM     14  C   UNL     1      -2.908  11.557  18.565  0.00  0.00    +0.000 A 
ATOM     15  N   UNL     1      -1.852  10.888  18.903  0.00  0.00    +0.000 NA
ATOM     16  C   UNL     1      -1.187  11.411  19.971  0.00  0.00    +0.000 A 
ATOM     17  H   UNL     1      -4.186  13.177  18.864  0.00  0.00    +0.000 HD
ENDBRANCH   4   7
BRANCH   1  20
ATOM     18  O   UNL     1       2.398   4.874  21.238  0.00  0.00    +0.000 OA
ATOM     19  C   UNL     1       2.890   5.037  20.127  0.00  0.00    +0.000 C 
ATOM     20  N   UNL     1       2.764   6.168  19.338  0.00  0.00    +0.000 N 
ATOM     21  H   UNL     1       3.016   6.087  18.360  0.00  0.00    +0.000 HD
BRANCH  19  22
ATOM     22  C   UNL     1       3.700   3.940  19.467  0.00  0.00    +0.000 C 
ATOM     23  C   UNL     1       3.258   2.536  19.894  0.00  0.00    +0.000 C 
ATOM     24  C   UNL     1       1.761   2.293  19.724  0.00  0.00    +0.000 C 
ATOM     25  C   UNL     1       1.613   2.274  18.205  0.00  0.00    +0.000 C 
ATOM     26  C   UNL     1       3.066   2.430  17.736  0.00  0.00    +0.000 C 
ATOM     27  O   UNL     1       3.778   1.749  18.794  0.00  0.00    +0.000 OA
ATOM     28  C   UNL     1       3.533   3.874  17.925  0.00  0.00    +0.000 C 
BRANCH  28  29
ATOM     29  C   UNL     1       4.821   4.160  17.169  0.00  0.00    +0.000 C 
ATOM     30  F   UNL     1       5.901   4.281  17.970  0.00  0.00    +0.000 F 
ATOM     31  F   UNL     1       5.107   3.216  16.248  0.00  0.00    +0.000 F 
ATOM     32  F   UNL     1       4.706   5.331  16.494  0.00  0.00    +0.000 F 
ENDBRANCH  28  29
ENDBRANCH  19  22
ENDBRANCH   1  20
TORSDOF 4
ENDMDL
MODEL 7
REMARK VINA RESULT:      -8.6      0.676      1.316
REMARK  Name = 
REMARK  4 active torsions:
REMARK  status: ('A' for Active; 'I' for Inactive)
REMARK    1  A    between atoms: C_2  and  C_20
REMARK    2  A    between atoms: N_3  and  C_4
REMARK    3  A    between atoms: C_7  and  N_8
REMARK    4  A    between atoms: C_26  and  C_27
REMARK                            x       y       z     vdW  Elec       q    Type
REMARK                         _______ _______ _______ _____ _____    ______ ____
ROOT
ATOM      1  C   UNL     1       2.939   7.663  18.509  0.00  0.00    +0.000 A 
ATOM      2  C   UNL     1       2.211   7.618  19.697  0.00  0.00    +0.000 A 
ATOM      3  C   UNL     1       1.145   8.501  19.915  0.00  0.00    +0.000 A 
ATOM      4  C   UNL     1       0.786   9.440  18.940  0.00  0.00    +0.000 A 
ATOM      5  C   UNL     1       1.552   9.518  17.771  0.00  0.00    +0.000 A 
ATOM      6  C   UNL     1       2.629   8.642  17.565  0.00  0.00    +0.000 A 
ENDROOT
BRANCH   4   7
ATOM      7  N   UNL     1      -0.352  10.273  19.159  0.00  0.00    +0.000 N 
ATOM      8  N   UNL     1      -0.406  11.084  20.265  0.00  0.00    +0.000 NA
ATOM      9  C   UNL     1      -1.584  11.707  20.184  0.00  0.00    +0.000 A 
ATOM     10  C   UNL     1      -2.303  11.318  19.060  0.00  0.00    +0.000 A 
ATOM     11  C   UNL     1      -3.591  11.654  18.525  0.00  0.00    +0.000 A 
ATOM     12  O   UNL     1      -4.355  12.469  19.019  0.00  0.00    +0.000 OA
ATOM     13  N   UNL     1      -3.886  10.949  17.375  0.00  0.00    +0.000 N 
ATOM     14  C   UNL     1      -3.023  10.038  16.805  0.00  0.00    +0.000 A 
ATOM     15  N   UNL     1      -1.850   9.734  17.262  0.00  0.00    +0.000 NA
ATOM     16  C   UNL     1      -1.515  10.398  18.404  0.00  0.00    +0.000 A 
ATOM     17  H   UNL     1      -4.787  11.139  16.959  0.00  0.00    +0.000 HD
ENDBRANCH   4   7
BRANCH   1  20
ATOM     18  O   UNL     1       2.806   4.754  18.131  0.00  0.00    +0.000 OA
ATOM     19  C   UNL     1       3.854   5.389  18.075  0.00  0.00    +0.000 C 
ATOM     20  N   UNL     1       3.982   6.762  18.204  0.00  0.00    +0.000 N 
ATOM     21  H   UNL     1       4.856   7.180  17.908  0.00  0.00    +0.000 HD
BRANCH  19  22
ATOM     22  C   UNL     1       5.173   4.691  17.813  0.00  0.00    +0.000 C 
ATOM     23  C   UNL     1       5.159   3.858  16.527  0.00  0.00    +0.000 C 
ATOM     24  C   UNL     1       4.696   4.641  15.301  0.00  0.00    +0.000 C 
ATOM     25  C   UNL     1       5.854   5.613  15.091  0.00  0.00    +0.000 C 
ATOM     26  C   UNL     1       6.841   5.183  16.184  0.00  0.00    +0.000 C 
ATOM     27  O   UNL     1       6.578   3.763  16.257  0.00  0.00    +0.000 OA
ATOM     28  C   UNL     1       6.358   5.660  17.554  0.00  0.00    +0.000 C 
BRANCH  28  29
ATOM     29  C   UNL     1       7.450   5.568  18.608  0.00  0.00    +0.000 C 
ATOM     30  F   UNL     1       6.976   5.423  19.864  0.00  0.00    +0.000 F 
ATOM     31  F   UNL     1       8.309   4.551  18.382  0.00  0.00    +0.000 F 
ATOM     32  F   UNL     1       8.190   6.704  18.602  0.00  0.00    +0.000 F 
ENDBRANCH  28  29
ENDBRANCH  19  22
ENDBRANCH   1  20
TORSDOF 4
ENDMDL
MODEL 8
REMARK VINA RESULT:      -8.6      0.934      1.988
REMARK  Name = 
REMARK  4 active torsions:
REMARK  status: ('A' for Active; 'I' for Inactive)
REMARK    1  A    between atoms: C_2  and  C_20
REMARK    2  A    between atoms: N_3  and  C_4
REMARK    3  A    between atoms: C_7  and  N_8
REMARK    4  A    between atoms: C_26  and  C_27
REMARK                            x       y       z     vdW  Elec       q    Type
REMARK                         _______ _______ _______ _____ _____    ______ ____
ROOT
ATOM      1  C   UNL     1       2.902   7.594  18.477  0.00  0.00    +0.000 A 
ATOM      2  C   UNL     1       2.429   8.560  17.589  0.00  0.00    +0.000 A 
ATOM      3  C   UNL     1       1.423   9.454  17.973  0.00  0.00    +0.000 A 
ATOM      4  C   UNL     1       0.876   9.400  19.262  0.00  0.00    +0.000 A 
ATOM      5  C   UNL     1       1.314   8.397  20.134  0.00  0.00    +0.000 A 
ATOM      6  C   UNL     1       2.312   7.493  19.737  0.00  0.00    +0.000 A 
ENDROOT
BRANCH   4   7
ATOM      7  N   UNL     1      -0.093  10.374  19.651  0.00  0.00    +0.000 N 
ATOM      8  N   UNL     1      -0.645  11.205  18.709  0.00  0.00    +0.000 NA
ATOM      9  C   UNL     1      -1.484  11.992  19.387  0.00  0.00    +0.000 A 
ATOM     10  C   UNL     1      -1.488  11.701  20.746  0.00  0.00    +0.000 A 
ATOM     11  C   UNL     1      -2.170  12.241  21.887  0.00  0.00    +0.000 A 
ATOM     12  O   UNL     1      -2.992  13.143  21.840  0.00  0.00    +0.000 OA
ATOM     13  N   UNL     1      -1.796  11.626  23.065  0.00  0.00    +0.000 N 
ATOM     14  C   UNL     1      -0.879  10.599  23.124  0.00  0.00    +0.000 A 
ATOM     15  N   UNL     1      -0.266  10.086  22.104  0.00  0.00    +0.000 NA
ATOM     16  C   UNL     1      -0.595  10.666  20.916  0.00  0.00    +0.000 A 
ATOM     17  H   UNL     1      -2.239  11.973  23.904  0.00  0.00    +0.000 HD
ENDBRANCH   4   7
BRANCH   1  20
ATOM     18  O   UNL     1       2.769   4.736  17.817  0.00  0.00    +0.000 OA
ATOM     19  C   UNL     1       3.824   5.355  17.902  0.00  0.00    +0.000 C 
ATOM     20  N   UNL     1       3.955   6.707  18.170  0.00  0.00    +0.000 N 
ATOM     21  H   UNL     1       4.854   7.136  17.983  0.00  0.00    +0.000 HD
BRANCH  19  22
ATOM     22  C   UNL     1       5.152   4.662  17.677  0.00  0.00    +0.000 C 
ATOM     23  C   UNL     1       5.183   3.842  16.383  0.00  0.00    +0.000 C 
ATOM     24  C   UNL     1       4.761   4.638  15.150  0.00  0.00    +0.000 C 
ATOM     25  C   UNL     1       5.923   5.614  14.990  0.00  0.00    +0.000 C 
ATOM     26  C   UNL     1       6.873   5.173  16.111  0.00  0.00    +0.000 C 
ATOM     27  O   UNL     1       6.611   3.752  16.160  0.00  0.00    +0.000 OA
ATOM     28  C   UNL     1       6.344   5.635  17.469  0.00  0.00    +0.000 C 
BRANCH  28  29
ATOM     29  C   UNL     1       7.400   5.533  18.559  0.00  0.00    +0.000 C 
ATOM     30  F   UNL     1       6.883   5.407  19.800  0.00  0.00    +0.000 F 
ATOM     31  F   UNL     1       8.247   4.500  18.368  0.00  0.00    +0.000 F 
ATOM     32  F   UNL     1       8.160   6.656  18.567  0.00  0.00    +0.000 F 
ENDBRANCH  28  29
ENDBRANCH  19  22
ENDBRANCH   1  20
TORSDOF 4
ENDMDL
MODEL 9
REMARK VINA RESULT:      -8.6      2.002      2.805
REMARK  Name = 
REMARK  4 active torsions:
REMARK  status: ('A' for Active; 'I' for Inactive)
REMARK    1  A    between atoms: C_2  and  C_20
REMARK    2  A    between atoms: N_3  and  C_4
REMARK    3  A    between atoms: C_7  and  N_8
REMARK    4  A    between atoms: C_26  and  C_27
REMARK                            x       y       z     vdW  Elec       q    Type
REMARK                         _______ _______ _______ _____ _____    ______ ____
ROOT
ATOM      1  C   UNL     1       1.993   7.768  19.907  0.00  0.00    +0.000 A 
ATOM      2  C   UNL     1       1.798   8.835  19.031  0.00  0.00    +0.000 A 
ATOM      3  C   UNL     1       0.971   9.908  19.384  0.00  0.00    +0.000 A 
ATOM      4  C   UNL     1       0.329   9.933  20.629  0.00  0.00    +0.000 A 
ATOM      5  C   UNL     1       0.484   8.837  21.485  0.00  0.00    +0.000 A 
ATOM      6  C   UNL     1       1.302   7.757  21.118  0.00  0.00    +0.000 A 
ENDROOT
BRANCH   4   7
ATOM      7  N   UNL     1      -0.446  11.076  20.992  0.00  0.00    +0.000 N 
ATOM      8  N   UNL     1      -0.156  11.763  22.144  0.00  0.00    +0.000 NA
ATOM      9  C   UNL     1      -1.057  12.747  22.200  0.00  0.00    +0.000 A 
ATOM     10  C   UNL     1      -1.930  12.716  21.119  0.00  0.00    +0.000 A 
ATOM     11  C   UNL     1      -3.059  13.504  20.715  0.00  0.00    +0.000 A 
ATOM     12  O   UNL     1      -3.471  14.483  21.319  0.00  0.00    +0.000 OA
ATOM     13  N   UNL     1      -3.642  13.037  19.554  0.00  0.00    +0.000 N 
ATOM     14  C   UNL     1      -3.174  11.942  18.861  0.00  0.00    +0.000 A 
ATOM     15  N   UNL     1      -2.147  11.228  19.199  0.00  0.00    +0.000 NA
ATOM     16  C   UNL     1      -1.541  11.644  20.346  0.00  0.00    +0.000 A 
ATOM     17  H   UNL     1      -4.449  13.551  19.228  0.00  0.00    +0.000 HD
ENDBRANCH   4   7
BRANCH   1  20
ATOM     18  O   UNL     1       1.797   5.732  17.800  0.00  0.00    +0.000 OA
ATOM     19  C   UNL     1       2.689   5.741  18.641  0.00  0.00    +0.000 C 
ATOM     20  N   UNL     1       2.862   6.690  19.634  0.00  0.00    +0.000 N 
ATOM     21  H   UNL     1       3.757   6.712  20.110  0.00  0.00    +0.000 HD
BRANCH  19  22
ATOM     22  C   UNL     1       3.760   4.669  18.649  0.00  0.00    +0.000 C 
ATOM     23  C   UNL     1       3.455   3.531  19.628  0.00  0.00    +0.000 C 
ATOM     24  C   UNL     1       2.068   2.922  19.437  0.00  0.00    +0.000 C 
ATOM     25  C   UNL     1       2.215   2.215  18.093  0.00  0.00    +0.000 C 
ATOM     26  C   UNL     1       3.691   2.462  17.756  0.00  0.00    +0.000 C 
ATOM     27  O   UNL     1       4.281   2.478  19.076  0.00  0.00    +0.000 OA
ATOM     28  C   UNL     1       3.899   3.907  17.304  0.00  0.00    +0.000 C 
BRANCH  28  29
ATOM     29  C   UNL     1       5.252   4.108  16.637  0.00  0.00    +0.000 C 
ATOM     30  F   UNL     1       5.271   5.129  15.754  0.00  0.00    +0.000 F 
ATOM     31  F   UNL     1       6.244   4.324  17.526  0.00  0.00    +0.000 F 
ATOM     32  F   UNL     1       5.591   2.991  15.946  0.00  0.00    +0.000 F 
ENDBRANCH  28  29
ENDBRANCH  19  22
ENDBRANCH   1  20
TORSDOF 4
ENDMDL
