MODEL 1
REMARK VINA RESULT:      -9.2      0.000      0.000
REMARK  Name = 
REMARK  6 active torsions:
REMARK  status: ('A' for Active; 'I' for Inactive)
REMARK    1  A    between atoms: C_1  and  C_2
REMARK    2  A    between atoms: C_2  and  N_3
REMARK    3  A    between atoms: C_10  and  N_11
REMARK    4  A    between atoms: N_11  and  C_12
REMARK    5  A    between atoms: C_19  and  S_20
REMARK    6  A    between atoms: S_20  and  C_21
REMARK                            x       y       z     vdW  Elec       q    Type
REMARK                         _______ _______ _______ _____ _____    ______ ____
ROOT
ATOM      1  N   UNL     1       2.538   6.950  20.403  0.00  0.00    +0.000 N 
ATOM      2  H   UNL     1       3.169   6.962  21.196  0.00  0.00    +0.000 HD
ENDROOT
BRANCH   1  10
ATOM      3  N   UNL     1      -0.937  11.442  20.376  0.00  0.00    +0.000 N 
ATOM      4  C   UNL     1      -1.410  11.989  21.569  0.00  0.00    +0.000 C 
ATOM      5  O   UNL     1      -2.138  12.982  21.616  0.00  0.00    +0.000 OA
ATOM      6  C   UNL     1      -0.879  11.387  22.849  0.00  0.00    +0.000 C 
ATOM      7  C   UNL     1      -0.715   9.889  22.749  0.00  0.00    +0.000 C 
ATOM      8  C   UNL     1       0.086   9.538  21.527  0.00  0.00    +0.000 A 
ATOM      9  C   UNL     1       0.943   8.417  21.538  0.00  0.00    +0.000 A 
ATOM     10  C   UNL     1       1.605   8.009  20.378  0.00  0.00    +0.000 A 
ATOM     11  C   UNL     1       1.400   8.757  19.214  0.00  0.00    +0.000 A 
ATOM     12  C   UNL     1       0.554   9.866  19.195  0.00  0.00    +0.000 A 
ATOM     13  C   UNL     1      -0.100  10.286  20.353  0.00  0.00    +0.000 A 
BRANCH   3  15
ATOM     14  C   UNL     1      -2.503  11.613  18.458  0.00  0.00    +0.000 C 
ATOM     15  C   UNL     1      -1.251  12.158  19.136  0.00  0.00    +0.000 C 
ENDBRANCH   3  15
ENDBRANCH   1  10
BRANCH   1  16
ATOM     16  C   UNL     1       2.265   5.620  19.996  0.00  0.00    +0.000 A 
ATOM     17  N   UNL     1       1.293   4.951  20.645  0.00  0.00    +0.000 NA
ATOM     18  C   UNL     1       0.999   3.728  20.204  0.00  0.00    +0.000 A 
ATOM     19  N   UNL     1       1.571   3.112  19.169  0.00  0.00    +0.000 NA
ATOM     20  C   UNL     1       2.539   3.775  18.533  0.00  0.00    +0.000 A 
ATOM     21  C   UNL     1       3.130   3.173  17.430  0.00  0.00    +0.000 A 
ATOM     22  C   UNL     1       4.143   3.797  16.698  0.00  0.00    +0.000 A 
ATOM     23  C   UNL     1       4.574   5.063  17.080  0.00  0.00    +0.000 A 
ATOM     24  C   UNL     1       4.004   5.695  18.188  0.00  0.00    +0.000 A 
ATOM     25  C   UNL     1       2.969   5.056  18.918  0.00  0.00    +0.000 A 
BRANCH  23  26
ATOM     26  S   UNL     1       5.903   5.847  16.197  0.00  0.00    +0.000 S 
ATOM     27  C   UNL     1       6.644   4.521  15.283  0.00  0.00    +0.000 C 
ATOM     28  O   UNL     1       5.301   6.768  15.255  0.00  0.00    +0.000 OA
ATOM     29  O   UNL     1       6.862   6.310  17.183  0.00  0.00    +0.000 OA
ENDBRANCH  23  26
ENDBRANCH   1  16
TORSDOF 4
ENDMDL
MODEL 2
REMARK VINA RESULT:      -9.2      0.904      1.042
REMARK  Name = 
REMARK  6 active torsions:
REMARK  status: ('A' for Active; 'I' for Inactive)
REMARK    1  A    between atoms: C_1  and  C_2
REMARK    2  A    between atoms: C_2  and  N_3
REMARK    3  A    between atoms: C_10  and  N_11
REMARK    4  A    between atoms: N_11  and  C_12
REMARK    5  A    between atoms: C_19  and  S_20
REMARK    6  A    between atoms: S_20  and  C_21
REMARK                            x       y       z     vdW  Elec       q    Type
REMARK                         _______ _______ _______ _____ _____    ______ ____
ROOT
ATOM      1  N   UNL     1       2.610   6.742  20.414  0.00  0.00    +0.000 N 
ATOM      2  H   UNL     1       3.097   6.657  21.299  0.00  0.00    +0.000 HD
ENDROOT
BRANCH   1  10
ATOM      3  N   UNL     1      -0.690  11.358  20.181  0.00  0.00    +0.000 N 
ATOM      4  C   UNL     1      -1.205  11.930  21.345  0.00  0.00    +0.000 C 
ATOM      5  O   UNL     1      -1.897  12.949  21.349  0.00  0.00    +0.000 OA
ATOM      6  C   UNL     1      -0.766  11.317  22.654  0.00  0.00    +0.000 C 
ATOM      7  C   UNL     1      -0.651   9.813  22.569  0.00  0.00    +0.000 C 
ATOM      8  C   UNL     1       0.200   9.426  21.394  0.00  0.00    +0.000 A 
ATOM      9  C   UNL     1       1.012   8.274  21.455  0.00  0.00    +0.000 A 
ATOM     10  C   UNL     1       1.720   7.834  20.334  0.00  0.00    +0.000 A 
ATOM     11  C   UNL     1       1.605   8.582  19.158  0.00  0.00    +0.000 A 
ATOM     12  C   UNL     1       0.802   9.721  19.088  0.00  0.00    +0.000 A 
ATOM     13  C   UNL     1       0.104  10.172  20.208  0.00  0.00    +0.000 A 
BRANCH   3  15
ATOM     14  C   UNL     1      -2.156  11.588  18.192  0.00  0.00    +0.000 C 
ATOM     15  C   UNL     1      -0.911  12.077  18.923  0.00  0.00    +0.000 C 
ENDBRANCH   3  15
ENDBRANCH   1  10
BRANCH   1  16
ATOM     16  C   UNL     1       2.381   5.466  19.841  0.00  0.00    +0.000 A 
ATOM     17  N   UNL     1       1.265   4.806  20.205  0.00  0.00    +0.000 NA
ATOM     18  C   UNL     1       1.027   3.639  19.605  0.00  0.00    +0.000 A 
ATOM     19  N   UNL     1       1.786   3.074  18.664  0.00  0.00    +0.000 NA
ATOM     20  C   UNL     1       2.894   3.729  18.312  0.00  0.00    +0.000 A 
ATOM     21  C   UNL     1       3.687   3.182  17.311  0.00  0.00    +0.000 A 
ATOM     22  C   UNL     1       4.859   3.802  16.871  0.00  0.00    +0.000 A 
ATOM     23  C   UNL     1       5.245   5.008  17.448  0.00  0.00    +0.000 A 
ATOM     24  C   UNL     1       4.473   5.583  18.460  0.00  0.00    +0.000 A 
ATOM     25  C   UNL     1       3.280   4.949  18.892  0.00  0.00    +0.000 A 
BRANCH  23  26
ATOM     26  S   UNL     1       6.765   5.781  16.943  0.00  0.00    +0.000 S 
ATOM     27  C   UNL     1       7.598   6.115  18.471  0.00  0.00    +0.000 C 
ATOM     28  O   UNL     1       7.527   4.784  16.218  0.00  0.00    +0.000 OA
ATOM     29  O   UNL     1       6.421   7.048  16.327  0.00  0.00    +0.000 OA
ENDBRANCH  23  26
ENDBRANCH   1  16
TORSDOF 4
ENDMDL
MODEL 3
REMARK VINA RESULT:      -8.7      1.398      1.580
REMARK  Name = 
REMARK  6 active torsions:
REMARK  status: ('A' for Active; 'I' for Inactive)
REMARK    1  A    between atoms: C_1  and  C_2
REMARK    2  A    between atoms: C_2  and  N_3
REMARK    3  A    between atoms: C_10  and  N_11
REMARK    4  A    between atoms: N_11  and  C_12
REMARK    5  A    between atoms: C_19  and  S_20
REMARK    6  A    between atoms: S_20  and  C_21
REMARK                            x       y       z     vdW  Elec       q    Type
REMARK                         _______ _______ _______ _____ _____    ______ ____
ROOT
ATOM      1  N   UNL     1       2.491   5.958  20.542  0.00  0.00    +0.000 N 
ATOM      2  H   UNL     1       2.688   5.642  21.485  0.00  0.00    +0.000 HD
ENDROOT
BRANCH   1  10
ATOM      3  N   UNL     1      -0.126  10.995  20.376  0.00  0.00    +0.000 N 
ATOM      4  C   UNL     1      -0.722  11.530  21.519  0.00  0.00    +0.000 C 
ATOM      5  O   UNL     1      -1.272  12.633  21.541  0.00  0.00    +0.000 OA
ATOM      6  C   UNL     1      -0.553  10.751  22.802  0.00  0.00    +0.000 C 
ATOM      7  C   UNL     1      -0.621   9.259  22.575  0.00  0.00    +0.000 C 
ATOM      8  C   UNL     1       0.330   8.859  21.483  0.00  0.00    +0.000 A 
ATOM      9  C   UNL     1       0.972   7.603  21.526  0.00  0.00    +0.000 A 
ATOM     10  C   UNL     1       1.768   7.167  20.464  0.00  0.00    +0.000 A 
ATOM     11  C   UNL     1       1.915   8.022  19.368  0.00  0.00    +0.000 A 
ATOM     12  C   UNL     1       1.283   9.265  19.317  0.00  0.00    +0.000 A 
ATOM     13  C   UNL     1       0.497   9.711  20.380  0.00  0.00    +0.000 A 
BRANCH   3  15
ATOM     14  C   UNL     1      -1.302  11.666  18.296  0.00  0.00    +0.000 C 
ATOM     15  C   UNL     1      -0.075  11.844  19.183  0.00  0.00    +0.000 C 
ENDBRANCH   3  15
ENDBRANCH   1  10
BRANCH   1  16
ATOM     16  C   UNL     1       2.322   4.855  19.667  0.00  0.00    +0.000 A 
ATOM     17  N   UNL     1       1.111   4.269  19.622  0.00  0.00    +0.000 NA
ATOM     18  C   UNL     1       0.947   3.279  18.744  0.00  0.00    +0.000 A 
ATOM     19  N   UNL     1       1.870   2.828  17.893  0.00  0.00    +0.000 NA
ATOM     20  C   UNL     1       3.071   3.407  17.946  0.00  0.00    +0.000 A 
ATOM     21  C   UNL     1       4.043   2.982  17.050  0.00  0.00    +0.000 A 
ATOM     22  C   UNL     1       5.325   3.538  17.026  0.00  0.00    +0.000 A 
ATOM     23  C   UNL     1       5.640   4.552  17.923  0.00  0.00    +0.000 A 
ATOM     24  C   UNL     1       4.687   5.001  18.841  0.00  0.00    +0.000 A 
ATOM     25  C   UNL     1       3.386   4.436  18.850  0.00  0.00    +0.000 A 
BRANCH  23  26
ATOM     26  S   UNL     1       7.284   5.230  17.947  0.00  0.00    +0.000 S 
ATOM     27  C   UNL     1       7.074   6.872  17.315  0.00  0.00    +0.000 C 
ATOM     28  O   UNL     1       7.683   5.325  19.337  0.00  0.00    +0.000 OA
ATOM     29  O   UNL     1       8.076   4.475  16.995  0.00  0.00    +0.000 OA
ENDBRANCH  23  26
ENDBRANCH   1  16
TORSDOF 4
ENDMDL
MODEL 4
REMARK VINA RESULT:      -8.6      0.674      1.939
REMARK  Name = 
REMARK  6 active torsions:
REMARK  status: ('A' for Active; 'I' for Inactive)
REMARK    1  A    between atoms: C_1  and  C_2
REMARK    2  A    between atoms: C_2  and  N_3
REMARK    3  A    between atoms: C_10  and  N_11
REMARK    4  A    between atoms: N_11  and  C_12
REMARK    5  A    between atoms: C_19  and  S_20
REMARK    6  A    between atoms: S_20  and  C_21
REMARK                            x       y       z     vdW  Elec       q    Type
REMARK                         _______ _______ _______ _____ _____    ______ ____
ROOT
ATOM      1  N   UNL     1       2.622   6.998  20.367  0.00  0.00    +0.000 N 
ATOM      2  H   UNL     1       3.332   6.953  21.089  0.00  0.00    +0.000 HD
ENDROOT
BRANCH   1  10
ATOM      3  N   UNL     1      -1.159  11.219  20.750  0.00  0.00    +0.000 N 
ATOM      4  C   UNL     1      -1.812  11.701  19.615  0.00  0.00    +0.000 C 
ATOM      5  O   UNL     1      -2.663  12.591  19.652  0.00  0.00    +0.000 OA
ATOM      6  C   UNL     1      -1.530  10.986  18.314  0.00  0.00    +0.000 C 
ATOM      7  C   UNL     1      -0.084  10.561  18.200  0.00  0.00    +0.000 C 
ATOM      8  C   UNL     1       0.327   9.794  19.424  0.00  0.00    +0.000 A 
ATOM      9  C   UNL     1       1.272   8.751  19.324  0.00  0.00    +0.000 A 
ATOM     10  C   UNL     1       1.753   8.106  20.465  0.00  0.00    +0.000 A 
ATOM     11  C   UNL     1       1.255   8.520  21.704  0.00  0.00    +0.000 A 
ATOM     12  C   UNL     1       0.322   9.551  21.813  0.00  0.00    +0.000 A 
ATOM     13  C   UNL     1      -0.172  10.191  20.675  0.00  0.00    +0.000 A 
BRANCH   3  15
ATOM     14  C   UNL     1      -0.785  12.956  22.483  0.00  0.00    +0.000 C 
ATOM     15  C   UNL     1      -1.595  11.739  22.049  0.00  0.00    +0.000 C 
ENDBRANCH   3  15
ENDBRANCH   1  10
BRANCH   1  16
ATOM     16  C   UNL     1       2.233   5.696  19.961  0.00  0.00    +0.000 A 
ATOM     17  N   UNL     1       1.229   5.102  20.633  0.00  0.00    +0.000 NA
ATOM     18  C   UNL     1       0.827   3.909  20.195  0.00  0.00    +0.000 A 
ATOM     19  N   UNL     1       1.319   3.257  19.140  0.00  0.00    +0.000 NA
ATOM     20  C   UNL     1       2.318   3.847  18.481  0.00  0.00    +0.000 A 
ATOM     21  C   UNL     1       2.829   3.208  17.358  0.00  0.00    +0.000 A 
ATOM     22  C   UNL     1       3.868   3.756  16.601  0.00  0.00    +0.000 A 
ATOM     23  C   UNL     1       4.408   4.981  16.978  0.00  0.00    +0.000 A 
ATOM     24  C   UNL     1       3.921   5.648  18.104  0.00  0.00    +0.000 A 
ATOM     25  C   UNL     1       2.859   5.087  18.860  0.00  0.00    +0.000 A 
BRANCH  23  26
ATOM     26  S   UNL     1       5.770   5.664  16.062  0.00  0.00    +0.000 S 
ATOM     27  C   UNL     1       6.217   4.367  14.938  0.00  0.00    +0.000 C 
ATOM     28  O   UNL     1       5.249   6.774  15.291  0.00  0.00    +0.000 OA
ATOM     29  O   UNL     1       6.866   5.853  16.994  0.00  0.00    +0.000 OA
ENDBRANCH  23  26
ENDBRANCH   1  16
TORSDOF 4
ENDMDL
MODEL 5
REMARK VINA RESULT:      -8.5      1.137      2.221
REMARK  Name = 
REMARK  6 active torsions:
REMARK  status: ('A' for Active; 'I' for Inactive)
REMARK    1  A    between atoms: C_1  and  C_2
REMARK    2  A    between atoms: C_2  and  N_3
REMARK    3  A    between atoms: C_10  and  N_11
REMARK    4  A    between atoms: N_11  and  C_12
REMARK    5  A    between atoms: C_19  and  S_20
REMARK    6  A    between atoms: S_20  and  C_21
REMARK                            x       y       z     vdW  Elec       q    Type
REMARK                         _______ _______ _______ _____ _____    ______ ____
ROOT
ATOM      1  N   UNL     1       2.660   6.651  20.554  0.00  0.00    +0.000 N 
ATOM      2  H   UNL     1       3.113   6.481  21.445  0.00  0.00    +0.000 HD
ENDROOT
BRANCH   1  10
ATOM      3  N   UNL     1      -0.944  11.039  20.423  0.00  0.00    +0.000 N 
ATOM      4  C   UNL     1      -1.548  11.433  19.229  0.00  0.00    +0.000 C 
ATOM      5  O   UNL     1      -2.361  12.356  19.156  0.00  0.00    +0.000 OA
ATOM      6  C   UNL     1      -1.267  10.583  18.012  0.00  0.00    +0.000 C 
ATOM      7  C   UNL     1       0.161  10.091  17.979  0.00  0.00    +0.000 C 
ATOM      8  C   UNL     1       0.510   9.432  19.282  0.00  0.00    +0.000 A 
ATOM      9  C   UNL     1       1.412   8.347  19.309  0.00  0.00    +0.000 A 
ATOM     10  C   UNL     1       1.837   7.797  20.521  0.00  0.00    +0.000 A 
ATOM     11  C   UNL     1       1.329   8.350  21.700  0.00  0.00    +0.000 A 
ATOM     12  C   UNL     1       0.439   9.424  21.682  0.00  0.00    +0.000 A 
ATOM     13  C   UNL     1       0.000   9.969  20.475  0.00  0.00    +0.000 A 
BRANCH   3  15
ATOM     14  C   UNL     1      -0.492  12.877  22.028  0.00  0.00    +0.000 C 
ATOM     15  C   UNL     1      -1.386  11.701  21.653  0.00  0.00    +0.000 C 
ENDBRANCH   3  15
ENDBRANCH   1  10
BRANCH   1  16
ATOM     16  C   UNL     1       2.374   5.428  19.895  0.00  0.00    +0.000 A 
ATOM     17  N   UNL     1       1.231   4.794  20.216  0.00  0.00    +0.000 NA
ATOM     18  C   UNL     1       0.941   3.683  19.536  0.00  0.00    +0.000 A 
ATOM     19  N   UNL     1       1.674   3.154  18.556  0.00  0.00    +0.000 NA
ATOM     20  C   UNL     1       2.809   3.783  18.245  0.00  0.00    +0.000 A 
ATOM     21  C   UNL     1       3.577   3.273  17.206  0.00  0.00    +0.000 A 
ATOM     22  C   UNL     1       4.774   3.872  16.805  0.00  0.00    +0.000 A 
ATOM     23  C   UNL     1       5.213   5.015  17.464  0.00  0.00    +0.000 A 
ATOM     24  C   UNL     1       4.468   5.551  18.516  0.00  0.00    +0.000 A 
ATOM     25  C   UNL     1       3.249   4.941  18.908  0.00  0.00    +0.000 A 
BRANCH  23  26
ATOM     26  S   UNL     1       6.764   5.755  17.008  0.00  0.00    +0.000 S 
ATOM     27  C   UNL     1       7.580   6.019  18.559  0.00  0.00    +0.000 C 
ATOM     28  O   UNL     1       7.508   4.757  16.267  0.00  0.00    +0.000 OA
ATOM     29  O   UNL     1       6.470   7.050  16.423  0.00  0.00    +0.000 OA
ENDBRANCH  23  26
ENDBRANCH   1  16
TORSDOF 4
ENDMDL
MODEL 6
REMARK VINA RESULT:      -8.1      1.306      1.507
REMARK  Name = 
REMARK  6 active torsions:
REMARK  status: ('A' for Active; 'I' for Inactive)
REMARK    1  A    between atoms: C_1  and  C_2
REMARK    2  A    between atoms: C_2  and  N_3
REMARK    3  A    between atoms: C_10  and  N_11
REMARK    4  A    between atoms: N_11  and  C_12
REMARK    5  A    between atoms: C_19  and  S_20
REMARK    6  A    between atoms: S_20  and  C_21
REMARK                            x       y       z     vdW  Elec       q    Type
REMARK                         _______ _______ _______ _____ _____    ______ ____
ROOT
ATOM      1  N   UNL     1       2.447   7.753  19.118  0.00  0.00    +0.000 N 
ATOM      2  H   UNL     1       3.361   8.175  18.996  0.00  0.00    +0.000 HD
ENDROOT
BRANCH   1  10
ATOM      3  N   UNL     1      -1.405  11.645  20.627  0.00  0.00    +0.000 N 
ATOM      4  C   UNL     1      -1.689  11.887  21.971  0.00  0.00    +0.000 C 
ATOM      5  O   UNL     1      -2.492  12.743  22.349  0.00  0.00    +0.000 OA
ATOM      6  C   UNL     1      -0.862  11.135  22.987  0.00  0.00    +0.000 C 
ATOM      7  C   UNL     1      -0.569   9.719  22.547  0.00  0.00    +0.000 C 
ATOM      8  C   UNL     1       0.010   9.719  21.161  0.00  0.00    +0.000 A 
ATOM      9  C   UNL     1       0.962   8.746  20.790  0.00  0.00    +0.000 A 
ATOM     10  C   UNL     1       1.424   8.658  19.475  0.00  0.00    +0.000 A 
ATOM     11  C   UNL     1       0.922   9.576  18.547  0.00  0.00    +0.000 A 
ATOM     12  C   UNL     1      -0.020  10.540  18.905  0.00  0.00    +0.000 A 
ATOM     13  C   UNL     1      -0.475  10.641  20.220  0.00  0.00    +0.000 A 
BRANCH   3  15
ATOM     14  C   UNL     1      -3.334  11.964  19.098  0.00  0.00    +0.000 C 
ATOM     15  C   UNL     1      -2.025  12.530  19.637  0.00  0.00    +0.000 C 
ENDBRANCH   3  15
ENDBRANCH   1  10
BRANCH   1  16
ATOM     16  C   UNL     1       2.565   6.429  19.610  0.00  0.00    +0.000 A 
ATOM     17  N   UNL     1       1.627   5.993  20.473  0.00  0.00    +0.000 NA
ATOM     18  C   UNL     1       1.712   4.724  20.871  0.00  0.00    +0.000 A 
ATOM     19  N   UNL     1       2.631   3.841  20.479  0.00  0.00    +0.000 NA
ATOM     20  C   UNL     1       3.562   4.279  19.629  0.00  0.00    +0.000 A 
ATOM     21  C   UNL     1       4.514   3.374  19.176  0.00  0.00    +0.000 A 
ATOM     22  C   UNL     1       5.520   3.740  18.278  0.00  0.00    +0.000 A 
ATOM     23  C   UNL     1       5.570   5.052  17.818  0.00  0.00    +0.000 A 
ATOM     24  C   UNL     1       4.632   5.989  18.256  0.00  0.00    +0.000 A 
ATOM     25  C   UNL     1       3.609   5.602  19.160  0.00  0.00    +0.000 A 
BRANCH  23  26
ATOM     26  S   UNL     1       6.878   5.552  16.721  0.00  0.00    +0.000 S 
ATOM     27  C   UNL     1       7.484   7.053  17.443  0.00  0.00    +0.000 C 
ATOM     28  O   UNL     1       7.918   4.548  16.817  0.00  0.00    +0.000 OA
ATOM     29  O   UNL     1       6.271   5.875  15.444  0.00  0.00    +0.000 OA
ENDBRANCH  23  26
ENDBRANCH   1  16
TORSDOF 4
ENDMDL
MODEL 7
REMARK VINA RESULT:      -8.0      1.796      2.715
REMARK  Name = 
REMARK  6 active torsions:
REMARK  status: ('A' for Active; 'I' for Inactive)
REMARK    1  A    between atoms: C_1  and  C_2
REMARK    2  A    between atoms: C_2  and  N_3
REMARK    3  A    between atoms: C_10  and  N_11
REMARK    4  A    between atoms: N_11  and  C_12
REMARK    5  A    between atoms: C_19  and  S_20
REMARK    6  A    between atoms: S_20  and  C_21
REMARK                            x       y       z     vdW  Elec       q    Type
REMARK                         _______ _______ _______ _____ _____    ______ ____
ROOT
ATOM      1  N   UNL     1       2.234   8.514  18.453  0.00  0.00    +0.000 N 
ATOM      2  H   UNL     1       3.132   8.971  18.344  0.00  0.00    +0.000 HD
ENDROOT
BRANCH   1  10
ATOM      3  N   UNL     1      -2.341  11.821  19.072  0.00  0.00    +0.000 N 
ATOM      4  C   UNL     1      -3.540  11.514  18.427  0.00  0.00    +0.000 C 
ATOM      5  O   UNL     1      -4.568  12.181  18.556  0.00  0.00    +0.000 OA
ATOM      6  C   UNL     1      -3.577  10.223  17.643  0.00  0.00    +0.000 C 
ATOM      7  C   UNL     1      -2.274   9.953  16.928  0.00  0.00    +0.000 C 
ATOM      8  C   UNL     1      -1.127  10.052  17.892  0.00  0.00    +0.000 A 
ATOM      9  C   UNL     1       0.011   9.233  17.729  0.00  0.00    +0.000 A 
ATOM     10  C   UNL     1       1.133   9.393  18.544  0.00  0.00    +0.000 A 
ATOM     11  C   UNL     1       1.084  10.380  19.533  0.00  0.00    +0.000 A 
ATOM     12  C   UNL     1      -0.035  11.196  19.700  0.00  0.00    +0.000 A 
ATOM     13  C   UNL     1      -1.165  11.032  18.897  0.00  0.00    +0.000 A 
BRANCH   3  15
ATOM     14  C   UNL     1      -2.837  12.507  21.405  0.00  0.00    +0.000 C 
ATOM     15  C   UNL     1      -2.355  12.936  20.024  0.00  0.00    +0.000 C 
ENDBRANCH   3  15
ENDBRANCH   1  10
BRANCH   1  16
ATOM     16  C   UNL     1       2.369   7.306  19.182  0.00  0.00    +0.000 A 
ATOM     17  N   UNL     1       1.568   7.123  20.248  0.00  0.00    +0.000 NA
ATOM     18  C   UNL     1       1.657   5.952  20.881  0.00  0.00    +0.000 A 
ATOM     19  N   UNL     1       2.457   4.940  20.543  0.00  0.00    +0.000 NA
ATOM     20  C   UNL     1       3.254   5.129  19.490  0.00  0.00    +0.000 A 
ATOM     21  C   UNL     1       4.075   4.080  19.094  0.00  0.00    +0.000 A 
ATOM     22  C   UNL     1       4.934   4.184  17.997  0.00  0.00    +0.000 A 
ATOM     23  C   UNL     1       4.969   5.372  17.274  0.00  0.00    +0.000 A 
ATOM     24  C   UNL     1       4.161   6.447  17.648  0.00  0.00    +0.000 A 
ATOM     25  C   UNL     1       3.285   6.327  18.758  0.00  0.00    +0.000 A 
BRANCH  23  26
ATOM     26  S   UNL     1       6.100   5.543  15.913  0.00  0.00    +0.000 S 
ATOM     27  C   UNL     1       5.979   3.991  15.065  0.00  0.00    +0.000 C 
ATOM     28  O   UNL     1       5.570   6.576  15.048  0.00  0.00    +0.000 OA
ATOM     29  O   UNL     1       7.435   5.651  16.471  0.00  0.00    +0.000 OA
ENDBRANCH  23  26
ENDBRANCH   1  16
TORSDOF 4
ENDMDL
MODEL 8
REMARK VINA RESULT:      -7.8      3.254      8.679
REMARK  Name = 
REMARK  6 active torsions:
REMARK  status: ('A' for Active; 'I' for Inactive)
REMARK    1  A    between atoms: C_1  and  C_2
REMARK    2  A    between atoms: C_2  and  N_3
REMARK    3  A    between atoms: C_10  and  N_11
REMARK    4  A    between atoms: N_11  and  C_12
REMARK    5  A    between atoms: C_19  and  S_20
REMARK    6  A    between atoms: S_20  and  C_21
REMARK                            x       y       z     vdW  Elec       q    Type
REMARK                         _______ _______ _______ _____ _____    ______ ____
ROOT
ATOM      1  N   UNL     1       1.429  10.592  18.307  0.00  0.00    +0.000 N 
ATOM      2  H   UNL     1       1.031  10.720  17.383  0.00  0.00    +0.000 HD
ENDROOT
BRANCH   1  10
ATOM      3  N   UNL     1       3.014   5.347  19.801  0.00  0.00    +0.000 N 
ATOM      4  C   UNL     1       4.062   4.702  19.144  0.00  0.00    +0.000 C 
ATOM      5  O   UNL     1       4.464   3.578  19.453  0.00  0.00    +0.000 OA
ATOM      6  C   UNL     1       4.799   5.499  18.093  0.00  0.00    +0.000 C 
ATOM      7  C   UNL     1       3.871   6.382  17.293  0.00  0.00    +0.000 C 
ATOM      8  C   UNL     1       3.027   7.214  18.216  0.00  0.00    +0.000 A 
ATOM      9  C   UNL     1       2.631   8.514  17.837  0.00  0.00    +0.000 A 
ATOM     10  C   UNL     1       1.752   9.257  18.629  0.00  0.00    +0.000 A 
ATOM     11  C   UNL     1       1.293   8.673  19.813  0.00  0.00    +0.000 A 
ATOM     12  C   UNL     1       1.679   7.388  20.195  0.00  0.00    +0.000 A 
ATOM     13  C   UNL     1       2.566   6.646  19.415  0.00  0.00    +0.000 A 
BRANCH   3  15
ATOM     14  C   UNL     1       1.214   3.852  20.628  0.00  0.00    +0.000 C 
ATOM     15  C   UNL     1       2.445   4.683  20.976  0.00  0.00    +0.000 C 
ENDBRANCH   3  15
ENDBRANCH   1  10
BRANCH   1  16
ATOM     16  C   UNL     1       0.900  11.541  19.219  0.00  0.00    +0.000 A 
ATOM     17  N   UNL     1       1.768  12.218  19.994  0.00  0.00    +0.000 NA
ATOM     18  C   UNL     1       1.263  13.156  20.795  0.00  0.00    +0.000 A 
ATOM     19  N   UNL     1      -0.024  13.497  20.885  0.00  0.00    +0.000 NA
ATOM     20  C   UNL     1      -0.881  12.818  20.120  0.00  0.00    +0.000 A 
ATOM     21  C   UNL     1      -2.223  13.173  20.167  0.00  0.00    +0.000 A 
ATOM     22  C   UNL     1      -3.190  12.525  19.394  0.00  0.00    +0.000 A 
ATOM     23  C   UNL     1      -2.799  11.495  18.545  0.00  0.00    +0.000 A 
ATOM     24  C   UNL     1      -1.458  11.110  18.476  0.00  0.00    +0.000 A 
ATOM     25  C   UNL     1      -0.484  11.782  19.259  0.00  0.00    +0.000 A 
BRANCH  23  26
ATOM     26  S   UNL     1      -4.023  10.619  17.598  0.00  0.00    +0.000 S 
ATOM     27  C   UNL     1      -5.537  10.945  18.460  0.00  0.00    +0.000 C 
ATOM     28  O   UNL     1      -4.092  11.258  16.300  0.00  0.00    +0.000 OA
ATOM     29  O   UNL     1      -3.729   9.203  17.717  0.00  0.00    +0.000 OA
ENDBRANCH  23  26
ENDBRANCH   1  16
TORSDOF 4
ENDMDL
MODEL 9
REMARK VINA RESULT:      -7.8      1.399      2.470
REMARK  Name = 
REMARK  6 active torsions:
REMARK  status: ('A' for Active; 'I' for Inactive)
REMARK    1  A    between atoms: C_1  and  C_2
REMARK    2  A    between atoms: C_2  and  N_3
REMARK    3  A    between atoms: C_10  and  N_11
REMARK    4  A    between atoms: N_11  and  C_12
REMARK    5  A    between atoms: C_19  and  S_20
REMARK    6  A    between atoms: S_20  and  C_21
REMARK                            x       y       z     vdW  Elec       q    Type
REMARK                         _______ _______ _______ _____ _____    ______ ____
ROOT
ATOM      1  N   UNL     1       2.244   7.953  18.939  0.00  0.00    +0.000 N 
ATOM      2  H   UNL     1       3.120   8.307  18.570  0.00  0.00    +0.000 HD
ENDROOT
BRANCH   1  10
ATOM      3  N   UNL     1      -1.540  11.684  20.943  0.00  0.00    +0.000 N 
ATOM      4  C   UNL     1      -2.495  12.256  20.103  0.00  0.00    +0.000 C 
ATOM      5  O   UNL     1      -3.357  13.045  20.497  0.00  0.00    +0.000 OA
ATOM      6  C   UNL     1      -2.525  11.766  18.674  0.00  0.00    +0.000 C 
ATOM      7  C   UNL     1      -1.138  11.506  18.132  0.00  0.00    +0.000 C 
ATOM      8  C   UNL     1      -0.375  10.617  19.071  0.00  0.00    +0.000 A 
ATOM      9  C   UNL     1       0.569   9.696  18.568  0.00  0.00    +0.000 A 
ATOM     10  C   UNL     1       1.369   8.945  19.431  0.00  0.00    +0.000 A 
ATOM     11  C   UNL     1       1.193   9.127  20.806  0.00  0.00    +0.000 A 
ATOM     12  C   UNL     1       0.263  10.036  21.312  0.00  0.00    +0.000 A 
ATOM     13  C   UNL     1      -0.549  10.779  20.455  0.00  0.00    +0.000 A 
BRANCH   3  15
ATOM     14  C   UNL     1      -0.878  13.223  22.774  0.00  0.00    +0.000 C 
ATOM     15  C   UNL     1      -1.647  11.968  22.377  0.00  0.00    +0.000 C 
ENDBRANCH   3  15
ENDBRANCH   1  10
BRANCH   1  16
ATOM     16  C   UNL     1       2.424   6.671  19.516  0.00  0.00    +0.000 A 
ATOM     17  N   UNL     1       1.515   6.256  20.419  0.00  0.00    +0.000 NA
ATOM     18  C   UNL     1       1.657   5.021  20.900  0.00  0.00    +0.000 A 
ATOM     19  N   UNL     1       2.608   4.152  20.555  0.00  0.00    +0.000 NA
ATOM     20  C   UNL     1       3.510   4.570  19.665  0.00  0.00    +0.000 A 
ATOM     21  C   UNL     1       4.494   3.676  19.260  0.00  0.00    +0.000 A 
ATOM     22  C   UNL     1       5.473   4.023  18.326  0.00  0.00    +0.000 A 
ATOM     23  C   UNL     1       5.463   5.301  17.778  0.00  0.00    +0.000 A 
ATOM     24  C   UNL     1       4.491   6.226  18.165  0.00  0.00    +0.000 A 
ATOM     25  C   UNL     1       3.497   5.859  19.108  0.00  0.00    +0.000 A 
BRANCH  23  26
ATOM     26  S   UNL     1       6.737   5.779  16.633  0.00  0.00    +0.000 S 
ATOM     27  C   UNL     1       7.499   7.179  17.408  0.00  0.00    +0.000 C 
ATOM     28  O   UNL     1       7.701   4.699  16.595  0.00  0.00    +0.000 OA
ATOM     29  O   UNL     1       6.080   6.233  15.421  0.00  0.00    +0.000 OA
ENDBRANCH  23  26
ENDBRANCH   1  16
TORSDOF 4
ENDMDL
