MODEL 1
REMARK VINA RESULT:      -8.9      0.000      0.000
REMARK  Name = 
REMARK  7 active torsions:
REMARK  status: ('A' for Active; 'I' for Inactive)
REMARK    1  A    between atoms: C_1  and  C_2
REMARK    2  A    between atoms: C_2  and  N_3
REMARK    3  A    between atoms: C_2  and  C_19
REMARK    4  A    between atoms: C_4  and  C_6
REMARK    5  A    between atoms: C_6  and  C_7
REMARK    6  A    between atoms: C_7  and  C_8
REMARK    7  A    between atoms: C_8  and  O_10
REMARK                            x       y       z     vdW  Elec       q    Type
REMARK                         _______ _______ _______ _____ _____    ______ ____
ROOT
ATOM      1  N   UNL     1       5.364   4.522  17.855  0.00  0.00    +0.000 N 
ATOM      2  C   UNL     1       5.157   4.468  19.213  0.00  0.00    +0.000 C 
ATOM      3  O   UNL     1       5.997   4.803  20.043  0.00  0.00    +0.000 OA
ATOM      4  H   UNL     1       4.568   4.422  17.236  0.00  0.00    +0.000 HD
ENDROOT
BRANCH   1   6
ATOM      5  C   UNL     1       6.792   6.510  17.428  0.00  0.00    +0.000 C 
ATOM      6  C   UNL     1       6.622   4.994  17.289  0.00  0.00    +0.000 C 
BRANCH   6   7
ATOM      7  C   UNL     1       6.693   4.612  15.840  0.00  0.00    +0.000 A 
ATOM      8  C   UNL     1       6.019   3.684  15.068  0.00  0.00    +0.000 A 
ATOM      9  C   UNL     1       6.414   3.899  13.722  0.00  0.00    +0.000 A 
ATOM     10  C   UNL     1       6.073   3.350  12.470  0.00  0.00    +0.000 A 
ATOM     11  C   UNL     1       6.683   3.865  11.317  0.00  0.00    +0.000 A 
ATOM     12  C   UNL     1       7.619   4.900  11.401  0.00  0.00    +0.000 A 
ATOM     13  C   UNL     1       7.975   5.456  12.636  0.00  0.00    +0.000 A 
ATOM     14  C   UNL     1       7.342   4.931  13.762  0.00  0.00    +0.000 A 
ATOM     15  O   UNL     1       7.520   5.355  15.045  0.00  0.00    +0.000 OA
ENDBRANCH   6   7
ENDBRANCH   1   6
BRANCH   2  16
ATOM     16  C   UNL     1       3.791   3.955  19.644  0.00  0.00    +0.000 C 
BRANCH  16  17
ATOM     17  C   UNL     1       2.664   4.980  19.374  0.00  0.00    +0.000 C 
ATOM     18  C   UNL     1       3.066   5.972  18.246  0.00  0.00    +0.000 C 
ATOM     19  C   UNL     1       2.379   7.234  18.675  0.00  0.00    +0.000 A 
ATOM     20  C   UNL     1       2.098   8.348  17.903  0.00  0.00    +0.000 A 
ATOM     21  C   UNL     1       1.393   9.400  18.491  0.00  0.00    +0.000 A 
ATOM     22  C   UNL     1       0.998   9.330  19.836  0.00  0.00    +0.000 A 
ATOM     23  C   UNL     1       1.307   8.210  20.613  0.00  0.00    +0.000 A 
ATOM     24  C   UNL     1       1.990   7.164  20.015  0.00  0.00    +0.000 A 
ATOM     25  C   UNL     1       2.410   5.861  20.629  0.00  0.00    +0.000 C 
BRANCH  17  26
ATOM     26  C   UNL     1       1.381   4.191  19.089  0.00  0.00    +0.000 C 
ATOM     27  O   UNL     1       1.081   3.809  17.965  0.00  0.00    +0.000 OA
BRANCH  26  28
ATOM     28  O   UNL     1       0.622   3.865  20.152  0.00  0.00    +0.000 OA
ATOM     29  H   UNL     1       1.025   3.281  20.819  0.00  0.00    +0.000 HD
ENDBRANCH  26  28
ENDBRANCH  17  26
ENDBRANCH  16  17
ENDBRANCH   2  16
TORSDOF 6
ENDMDL
MODEL 2
REMARK VINA RESULT:      -8.6      1.596      7.578
REMARK  Name = 
REMARK  7 active torsions:
REMARK  status: ('A' for Active; 'I' for Inactive)
REMARK    1  A    between atoms: C_1  and  C_2
REMARK    2  A    between atoms: C_2  and  N_3
REMARK    3  A    between atoms: C_2  and  C_19
REMARK    4  A    between atoms: C_4  and  C_6
REMARK    5  A    between atoms: C_6  and  C_7
REMARK    6  A    between atoms: C_7  and  C_8
REMARK    7  A    between atoms: C_8  and  O_10
REMARK                            x       y       z     vdW  Elec       q    Type
REMARK                         _______ _______ _______ _____ _____    ______ ____
ROOT
ATOM      1  N   UNL     1       4.282   5.432  19.020  0.00  0.00    +0.000 N 
ATOM      2  C   UNL     1       5.211   4.420  18.967  0.00  0.00    +0.000 C 
ATOM      3  O   UNL     1       5.047   3.319  19.483  0.00  0.00    +0.000 OA
ATOM      4  H   UNL     1       4.399   6.233  18.410  0.00  0.00    +0.000 HD
ENDROOT
BRANCH   1   6
ATOM      5  C   UNL     1       2.099   4.246  19.012  0.00  0.00    +0.000 C 
ATOM      6  C   UNL     1       3.007   5.267  19.706  0.00  0.00    +0.000 C 
BRANCH   6   7
ATOM      7  C   UNL     1       2.305   6.591  19.783  0.00  0.00    +0.000 A 
ATOM      8  C   UNL     1       1.656   7.264  20.801  0.00  0.00    +0.000 A 
ATOM      9  C   UNL     1       1.331   8.554  20.304  0.00  0.00    +0.000 A 
ATOM     10  C   UNL     1       0.730   9.715  20.827  0.00  0.00    +0.000 A 
ATOM     11  C   UNL     1       0.603  10.841  20.002  0.00  0.00    +0.000 A 
ATOM     12  C   UNL     1       1.055  10.818  18.679  0.00  0.00    +0.000 A 
ATOM     13  C   UNL     1       1.651   9.672  18.139  0.00  0.00    +0.000 A 
ATOM     14  C   UNL     1       1.774   8.572  18.987  0.00  0.00    +0.000 A 
ATOM     15  O   UNL     1       2.354   7.381  18.668  0.00  0.00    +0.000 OA
ENDBRANCH   6   7
ENDBRANCH   1   6
BRANCH   2  16
ATOM     16  C   UNL     1       6.491   4.748  18.212  0.00  0.00    +0.000 C 
BRANCH  16  17
ATOM     17  C   UNL     1       6.225   5.119  16.733  0.00  0.00    +0.000 C 
ATOM     18  C   UNL     1       5.232   4.121  16.074  0.00  0.00    +0.000 C 
ATOM     19  C   UNL     1       5.719   4.080  14.656  0.00  0.00    +0.000 A 
ATOM     20  C   UNL     1       5.034   3.633  13.539  0.00  0.00    +0.000 A 
ATOM     21  C   UNL     1       5.658   3.738  12.295  0.00  0.00    +0.000 A 
ATOM     22  C   UNL     1       6.953   4.268  12.189  0.00  0.00    +0.000 A 
ATOM     23  C   UNL     1       7.645   4.695  13.325  0.00  0.00    +0.000 A 
ATOM     24  C   UNL     1       7.010   4.604  14.554  0.00  0.00    +0.000 A 
ATOM     25  C   UNL     1       7.532   5.016  15.898  0.00  0.00    +0.000 C 
BRANCH  17  26
ATOM     26  C   UNL     1       5.763   6.580  16.700  0.00  0.00    +0.000 C 
ATOM     27  O   UNL     1       6.548   7.519  16.747  0.00  0.00    +0.000 OA
BRANCH  26  28
ATOM     28  O   UNL     1       4.443   6.794  16.542  0.00  0.00    +0.000 OA
ATOM     29  H   UNL     1       3.949   7.099  17.323  0.00  0.00    +0.000 HD
ENDBRANCH  26  28
ENDBRANCH  17  26
ENDBRANCH  16  17
ENDBRANCH   2  16
TORSDOF 6
ENDMDL
MODEL 3
REMARK VINA RESULT:      -8.5      2.310      8.200
REMARK  Name = 
REMARK  7 active torsions:
REMARK  status: ('A' for Active; 'I' for Inactive)
REMARK    1  A    between atoms: C_1  and  C_2
REMARK    2  A    between atoms: C_2  and  N_3
REMARK    3  A    between atoms: C_2  and  C_19
REMARK    4  A    between atoms: C_4  and  C_6
REMARK    5  A    between atoms: C_6  and  C_7
REMARK    6  A    between atoms: C_7  and  C_8
REMARK    7  A    between atoms: C_8  and  O_10
REMARK                            x       y       z     vdW  Elec       q    Type
REMARK                         _______ _______ _______ _____ _____    ______ ____
ROOT
ATOM      1  N   UNL     1       2.725   6.551  19.412  0.00  0.00    +0.000 N 
ATOM      2  C   UNL     1       2.250   5.269  19.548  0.00  0.00    +0.000 C 
ATOM      3  O   UNL     1       1.128   4.919  19.193  0.00  0.00    +0.000 OA
ATOM      4  H   UNL     1       3.716   6.720  19.540  0.00  0.00    +0.000 HD
ENDROOT
BRANCH   1   6
ATOM      5  C   UNL     1       2.761   8.630  18.053  0.00  0.00    +0.000 C 
ATOM      6  C   UNL     1       1.916   7.612  18.824  0.00  0.00    +0.000 C 
BRANCH   6   7
ATOM      7  C   UNL     1       1.147   8.313  19.905  0.00  0.00    +0.000 A 
ATOM      8  C   UNL     1       1.014   8.103  21.264  0.00  0.00    +0.000 A 
ATOM      9  C   UNL     1       0.273   9.197  21.783  0.00  0.00    +0.000 A 
ATOM     10  C   UNL     1      -0.154   9.613  23.058  0.00  0.00    +0.000 A 
ATOM     11  C   UNL     1      -0.872  10.812  23.174  0.00  0.00    +0.000 A 
ATOM     12  C   UNL     1      -1.168  11.584  22.047  0.00  0.00    +0.000 A 
ATOM     13  C   UNL     1      -0.757  11.186  20.769  0.00  0.00    +0.000 A 
ATOM     14  C   UNL     1      -0.035   9.995  20.688  0.00  0.00    +0.000 A 
ATOM     15  O   UNL     1       0.484   9.454  19.550  0.00  0.00    +0.000 OA
ENDBRANCH   6   7
ENDBRANCH   1   6
BRANCH   2  16
ATOM     16  C   UNL     1       3.216   4.278  20.178  0.00  0.00    +0.000 C 
BRANCH  16  17
ATOM     17  C   UNL     1       4.260   3.747  19.167  0.00  0.00    +0.000 C 
ATOM     18  C   UNL     1       5.545   4.622  19.176  0.00  0.00    +0.000 C 
ATOM     19  C   UNL     1       5.990   4.544  17.746  0.00  0.00    +0.000 A 
ATOM     20  C   UNL     1       7.241   4.842  17.232  0.00  0.00    +0.000 A 
ATOM     21  C   UNL     1       7.460   4.643  15.868  0.00  0.00    +0.000 A 
ATOM     22  C   UNL     1       6.429   4.172  15.041  0.00  0.00    +0.000 A 
ATOM     23  C   UNL     1       5.163   3.897  15.565  0.00  0.00    +0.000 A 
ATOM     24  C   UNL     1       4.961   4.079  16.924  0.00  0.00    +0.000 A 
ATOM     25  C   UNL     1       3.711   3.831  17.715  0.00  0.00    +0.000 C 
BRANCH  17  26
ATOM     26  C   UNL     1       4.504   2.268  19.490  0.00  0.00    +0.000 C 
ATOM     27  O   UNL     1       5.091   1.905  20.501  0.00  0.00    +0.000 OA
BRANCH  26  28
ATOM     28  O   UNL     1       3.976   1.368  18.640  0.00  0.00    +0.000 OA
ATOM     29  H   UNL     1       3.689   1.698  17.770  0.00  0.00    +0.000 HD
ENDBRANCH  26  28
ENDBRANCH  17  26
ENDBRANCH  16  17
ENDBRANCH   2  16
TORSDOF 6
ENDMDL
MODEL 4
REMARK VINA RESULT:      -8.4      1.580      7.974
REMARK  Name = 
REMARK  7 active torsions:
REMARK  status: ('A' for Active; 'I' for Inactive)
REMARK    1  A    between atoms: C_1  and  C_2
REMARK    2  A    between atoms: C_2  and  N_3
REMARK    3  A    between atoms: C_2  and  C_19
REMARK    4  A    between atoms: C_4  and  C_6
REMARK    5  A    between atoms: C_6  and  C_7
REMARK    6  A    between atoms: C_7  and  C_8
REMARK    7  A    between atoms: C_8  and  O_10
REMARK                            x       y       z     vdW  Elec       q    Type
REMARK                         _______ _______ _______ _____ _____    ______ ____
ROOT
ATOM      1  N   UNL     1       4.140   5.560  18.907  0.00  0.00    +0.000 N 
ATOM      2  C   UNL     1       5.006   4.494  18.857  0.00  0.00    +0.000 C 
ATOM      3  O   UNL     1       4.759   3.394  19.343  0.00  0.00    +0.000 OA
ATOM      4  H   UNL     1       4.323   6.366  18.318  0.00  0.00    +0.000 HD
ENDROOT
BRANCH   1   6
ATOM      5  C   UNL     1       1.854   4.600  18.751  0.00  0.00    +0.000 C 
ATOM      6  C   UNL     1       2.836   5.461  19.552  0.00  0.00    +0.000 C 
BRANCH   6   7
ATOM      7  C   UNL     1       2.264   6.835  19.738  0.00  0.00    +0.000 A 
ATOM      8  C   UNL     1       2.159   7.939  18.913  0.00  0.00    +0.000 A 
ATOM      9  C   UNL     1       1.373   8.899  19.603  0.00  0.00    +0.000 A 
ATOM     10  C   UNL     1       0.862  10.180  19.316  0.00  0.00    +0.000 A 
ATOM     11  C   UNL     1       0.076  10.826  20.280  0.00  0.00    +0.000 A 
ATOM     12  C   UNL     1      -0.193  10.220  21.511  0.00  0.00    +0.000 A 
ATOM     13  C   UNL     1       0.310   8.950  21.818  0.00  0.00    +0.000 A 
ATOM     14  C   UNL     1       1.077   8.328  20.834  0.00  0.00    +0.000 A 
ATOM     15  O   UNL     1       1.626   7.083  20.920  0.00  0.00    +0.000 OA
ENDBRANCH   6   7
ENDBRANCH   1   6
BRANCH   2  16
ATOM     16  C   UNL     1       6.325   4.757  18.146  0.00  0.00    +0.000 C 
BRANCH  16  17
ATOM     17  C   UNL     1       6.129   5.133  16.658  0.00  0.00    +0.000 C 
ATOM     18  C   UNL     1       5.156   4.145  15.954  0.00  0.00    +0.000 C 
ATOM     19  C   UNL     1       5.706   4.101  14.559  0.00  0.00    +0.000 A 
ATOM     20  C   UNL     1       5.066   3.662  13.412  0.00  0.00    +0.000 A 
ATOM     21  C   UNL     1       5.746   3.763  12.196  0.00  0.00    +0.000 A 
ATOM     22  C   UNL     1       7.050   4.279  12.149  0.00  0.00    +0.000 A 
ATOM     23  C   UNL     1       7.695   4.698  13.315  0.00  0.00    +0.000 A 
ATOM     24  C   UNL     1       7.005   4.612  14.514  0.00  0.00    +0.000 A 
ATOM     25  C   UNL     1       7.471   5.017  15.881  0.00  0.00    +0.000 C 
BRANCH  17  26
ATOM     26  C   UNL     1       5.683   6.598  16.606  0.00  0.00    +0.000 C 
ATOM     27  O   UNL     1       4.521   6.925  16.400  0.00  0.00    +0.000 OA
BRANCH  26  28
ATOM     28  O   UNL     1       6.622   7.526  16.874  0.00  0.00    +0.000 OA
ATOM     29  H   UNL     1       6.541   8.005  17.717  0.00  0.00    +0.000 HD
ENDBRANCH  26  28
ENDBRANCH  17  26
ENDBRANCH  16  17
ENDBRANCH   2  16
TORSDOF 6
ENDMDL
MODEL 5
REMARK VINA RESULT:      -8.4      0.637      1.180
REMARK  Name = 
REMARK  7 active torsions:
REMARK  status: ('A' for Active; 'I' for Inactive)
REMARK    1  A    between atoms: C_1  and  C_2
REMARK    2  A    between atoms: C_2  and  N_3
REMARK    3  A    between atoms: C_2  and  C_19
REMARK    4  A    between atoms: C_4  and  C_6
REMARK    5  A    between atoms: C_6  and  C_7
REMARK    6  A    between atoms: C_7  and  C_8
REMARK    7  A    between atoms: C_8  and  O_10
REMARK                            x       y       z     vdW  Elec       q    Type
REMARK                         _______ _______ _______ _____ _____    ______ ____
ROOT
ATOM      1  N   UNL     1       5.621   4.001  17.923  0.00  0.00    +0.000 N 
ATOM      2  C   UNL     1       5.155   4.310  19.179  0.00  0.00    +0.000 C 
ATOM      3  O   UNL     1       5.789   4.971  19.996  0.00  0.00    +0.000 OA
ATOM      4  H   UNL     1       4.972   3.629  17.240  0.00  0.00    +0.000 HD
ENDROOT
BRANCH   1   6
ATOM      5  C   UNL     1       7.335   5.793  18.066  0.00  0.00    +0.000 C 
ATOM      6  C   UNL     1       6.930   4.446  17.460  0.00  0.00    +0.000 C 
BRANCH   6   7
ATOM      7  C   UNL     1       6.921   4.552  15.963  0.00  0.00    +0.000 A 
ATOM      8  C   UNL     1       7.661   5.292  15.060  0.00  0.00    +0.000 A 
ATOM      9  C   UNL     1       7.298   4.844  13.762  0.00  0.00    +0.000 A 
ATOM     10  C   UNL     1       7.702   5.134  12.445  0.00  0.00    +0.000 A 
ATOM     11  C   UNL     1       7.105   4.437  11.385  0.00  0.00    +0.000 A 
ATOM     12  C   UNL     1       6.120   3.474  11.623  0.00  0.00    +0.000 A 
ATOM     13  C   UNL     1       5.702   3.173  12.925  0.00  0.00    +0.000 A 
ATOM     14  C   UNL     1       6.322   3.875  13.958  0.00  0.00    +0.000 A 
ATOM     15  O   UNL     1       6.086   3.706  15.290  0.00  0.00    +0.000 OA
ENDBRANCH   6   7
ENDBRANCH   1   6
BRANCH   2  16
ATOM     16  C   UNL     1       3.770   3.774  19.511  0.00  0.00    +0.000 C 
BRANCH  16  17
ATOM     17  C   UNL     1       2.659   4.828  19.286  0.00  0.00    +0.000 C 
ATOM     18  C   UNL     1       3.064   5.842  18.179  0.00  0.00    +0.000 C 
ATOM     19  C   UNL     1       2.410   7.105  18.654  0.00  0.00    +0.000 A 
ATOM     20  C   UNL     1       2.140   8.246  17.916  0.00  0.00    +0.000 A 
ATOM     21  C   UNL     1       1.465   9.294  18.544  0.00  0.00    +0.000 A 
ATOM     22  C   UNL     1       1.090   9.195  19.893  0.00  0.00    +0.000 A 
ATOM     23  C   UNL     1       1.388   8.049  20.634  0.00  0.00    +0.000 A 
ATOM     24  C   UNL     1       2.041   7.006  19.997  0.00  0.00    +0.000 A 
ATOM     25  C   UNL     1       2.443   5.679  20.569  0.00  0.00    +0.000 C 
BRANCH  17  26
ATOM     26  C   UNL     1       1.357   4.072  19.001  0.00  0.00    +0.000 C 
ATOM     27  O   UNL     1       1.042   3.708  17.875  0.00  0.00    +0.000 OA
BRANCH  26  28
ATOM     28  O   UNL     1       0.596   3.755  20.064  0.00  0.00    +0.000 OA
ATOM     29  H   UNL     1       0.803   4.201  20.904  0.00  0.00    +0.000 HD
ENDBRANCH  26  28
ENDBRANCH  17  26
ENDBRANCH  16  17
ENDBRANCH   2  16
TORSDOF 6
ENDMDL
MODEL 6
REMARK VINA RESULT:      -8.4      1.294      7.216
REMARK  Name = 
REMARK  7 active torsions:
REMARK  status: ('A' for Active; 'I' for Inactive)
REMARK    1  A    between atoms: C_1  and  C_2
REMARK    2  A    between atoms: C_2  and  N_3
REMARK    3  A    between atoms: C_2  and  C_19
REMARK    4  A    between atoms: C_4  and  C_6
REMARK    5  A    between atoms: C_6  and  C_7
REMARK    6  A    between atoms: C_7  and  C_8
REMARK    7  A    between atoms: C_8  and  O_10
REMARK                            x       y       z     vdW  Elec       q    Type
REMARK                         _______ _______ _______ _____ _____    ______ ____
ROOT
ATOM      1  N   UNL     1       5.128   3.815  18.411  0.00  0.00    +0.000 N 
ATOM      2  C   UNL     1       6.219   4.576  18.754  0.00  0.00    +0.000 C 
ATOM      3  O   UNL     1       6.332   5.159  19.829  0.00  0.00    +0.000 OA
ATOM      4  H   UNL     1       5.191   3.209  17.601  0.00  0.00    +0.000 HD
ENDROOT
BRANCH   1   6
ATOM      5  C   UNL     1       3.064   2.511  18.871  0.00  0.00    +0.000 C 
ATOM      6  C   UNL     1       4.000   3.639  19.318  0.00  0.00    +0.000 C 
BRANCH   6   7
ATOM      7  C   UNL     1       3.229   4.922  19.414  0.00  0.00    +0.000 A 
ATOM      8  C   UNL     1       2.575   5.561  20.450  0.00  0.00    +0.000 A 
ATOM      9  C   UNL     1       2.164   6.830  19.961  0.00  0.00    +0.000 A 
ATOM     10  C   UNL     1       1.517   7.958  20.501  0.00  0.00    +0.000 A 
ATOM     11  C   UNL     1       1.302   9.073  19.678  0.00  0.00    +0.000 A 
ATOM     12  C   UNL     1       1.713   9.069  18.342  0.00  0.00    +0.000 A 
ATOM     13  C   UNL     1       2.354   7.956  17.785  0.00  0.00    +0.000 A 
ATOM     14  C   UNL     1       2.565   6.868  18.632  0.00  0.00    +0.000 A 
ATOM     15  O   UNL     1       3.199   5.709  18.297  0.00  0.00    +0.000 OA
ENDBRANCH   6   7
ENDBRANCH   1   6
BRANCH   2  16
ATOM     16  C   UNL     1       7.314   4.661  17.700  0.00  0.00    +0.000 C 
BRANCH  16  17
ATOM     17  C   UNL     1       6.757   5.008  16.299  0.00  0.00    +0.000 C 
ATOM     18  C   UNL     1       5.871   3.857  15.746  0.00  0.00    +0.000 C 
ATOM     19  C   UNL     1       6.129   3.939  14.271  0.00  0.00    +0.000 A 
ATOM     20  C   UNL     1       5.370   3.396  13.248  0.00  0.00    +0.000 A 
ATOM     21  C   UNL     1       5.762   3.643  11.931  0.00  0.00    +0.000 A 
ATOM     22  C   UNL     1       6.907   4.407  11.659  0.00  0.00    +0.000 A 
ATOM     23  C   UNL     1       7.680   4.931  12.699  0.00  0.00    +0.000 A 
ATOM     24  C   UNL     1       7.272   4.696  14.003  0.00  0.00    +0.000 A 
ATOM     25  C   UNL     1       7.914   5.168  15.273  0.00  0.00    +0.000 C 
BRANCH  17  26
ATOM     26  C   UNL     1       6.039   6.357  16.409  0.00  0.00    +0.000 C 
ATOM     27  O   UNL     1       6.594   7.365  16.828  0.00  0.00    +0.000 OA
BRANCH  26  28
ATOM     28  O   UNL     1       4.774   6.409  15.950  0.00  0.00    +0.000 OA
ATOM     29  H   UNL     1       4.554   5.833  15.198  0.00  0.00    +0.000 HD
ENDBRANCH  26  28
ENDBRANCH  17  26
ENDBRANCH  16  17
ENDBRANCH   2  16
TORSDOF 6
ENDMDL
MODEL 7
REMARK VINA RESULT:      -8.1      1.368      7.533
REMARK  Name = 
REMARK  7 active torsions:
REMARK  status: ('A' for Active; 'I' for Inactive)
REMARK    1  A    between atoms: C_1  and  C_2
REMARK    2  A    between atoms: C_2  and  N_3
REMARK    3  A    between atoms: C_2  and  C_19
REMARK    4  A    between atoms: C_4  and  C_6
REMARK    5  A    between atoms: C_6  and  C_7
REMARK    6  A    between atoms: C_7  and  C_8
REMARK    7  A    between atoms: C_8  and  O_10
REMARK                            x       y       z     vdW  Elec       q    Type
REMARK                         _______ _______ _______ _____ _____    ______ ____
ROOT
ATOM      1  N   UNL     1       4.426   4.498  18.282  0.00  0.00    +0.000 N 
ATOM      2  C   UNL     1       5.658   4.901  18.738  0.00  0.00    +0.000 C 
ATOM      3  O   UNL     1       5.842   5.412  19.839  0.00  0.00    +0.000 OA
ATOM      4  H   UNL     1       4.379   3.910  17.458  0.00  0.00    +0.000 HD
ENDROOT
BRANCH   1   6
ATOM      5  C   UNL     1       2.082   3.745  18.611  0.00  0.00    +0.000 C 
ATOM      6  C   UNL     1       3.222   4.649  19.090  0.00  0.00    +0.000 C 
BRANCH   6   7
ATOM      7  C   UNL     1       2.774   6.081  19.059  0.00  0.00    +0.000 A 
ATOM      8  C   UNL     1       2.683   7.025  18.053  0.00  0.00    +0.000 A 
ATOM      9  C   UNL     1       2.035   8.160  18.608  0.00  0.00    +0.000 A 
ATOM     10  C   UNL     1       1.600   9.409  18.126  0.00  0.00    +0.000 A 
ATOM     11  C   UNL     1       0.952  10.286  19.008  0.00  0.00    +0.000 A 
ATOM     12  C   UNL     1       0.745   9.937  20.346  0.00  0.00    +0.000 A 
ATOM     13  C   UNL     1       1.175   8.702  20.846  0.00  0.00    +0.000 A 
ATOM     14  C   UNL     1       1.804   7.846  19.942  0.00  0.00    +0.000 A 
ATOM     15  O   UNL     1       2.262   6.593  20.218  0.00  0.00    +0.000 OA
ENDBRANCH   6   7
ENDBRANCH   1   6
BRANCH   2  16
ATOM     16  C   UNL     1       6.816   4.673  17.777  0.00  0.00    +0.000 C 
BRANCH  16  17
ATOM     17  C   UNL     1       6.452   5.037  16.318  0.00  0.00    +0.000 C 
ATOM     18  C   UNL     1       5.486   3.986  15.702  0.00  0.00    +0.000 C 
ATOM     19  C   UNL     1       5.899   3.983  14.260  0.00  0.00    +0.000 A 
ATOM     20  C   UNL     1       5.184   3.503  13.177  0.00  0.00    +0.000 A 
ATOM     21  C   UNL     1       5.735   3.653  11.902  0.00  0.00    +0.000 A 
ATOM     22  C   UNL     1       6.989   4.259  11.734  0.00  0.00    +0.000 A 
ATOM     23  C   UNL     1       7.713   4.719  12.837  0.00  0.00    +0.000 A 
ATOM     24  C   UNL     1       7.150   4.583  14.096  0.00  0.00    +0.000 A 
ATOM     25  C   UNL     1       7.717   5.016  15.415  0.00  0.00    +0.000 C 
BRANCH  17  26
ATOM     26  C   UNL     1       5.903   6.469  16.322  0.00  0.00    +0.000 C 
ATOM     27  O   UNL     1       4.789   6.746  15.899  0.00  0.00    +0.000 OA
BRANCH  26  28
ATOM     28  O   UNL     1       6.680   7.413  16.886  0.00  0.00    +0.000 OA
ATOM     29  H   UNL     1       6.256   8.262  17.102  0.00  0.00    +0.000 HD
ENDBRANCH  26  28
ENDBRANCH  17  26
ENDBRANCH  16  17
ENDBRANCH   2  16
TORSDOF 6
ENDMDL
MODEL 8
REMARK VINA RESULT:      -8.1      2.292      7.714
REMARK  Name = 
REMARK  7 active torsions:
REMARK  status: ('A' for Active; 'I' for Inactive)
REMARK    1  A    between atoms: C_1  and  C_2
REMARK    2  A    between atoms: C_2  and  N_3
REMARK    3  A    between atoms: C_2  and  C_19
REMARK    4  A    between atoms: C_4  and  C_6
REMARK    5  A    between atoms: C_6  and  C_7
REMARK    6  A    between atoms: C_7  and  C_8
REMARK    7  A    between atoms: C_8  and  O_10
REMARK                            x       y       z     vdW  Elec       q    Type
REMARK                         _______ _______ _______ _____ _____    ______ ____
ROOT
ATOM      1  N   UNL     1       2.654   5.261  18.853  0.00  0.00    +0.000 N 
ATOM      2  C   UNL     1       3.095   4.032  18.424  0.00  0.00    +0.000 C 
ATOM      3  O   UNL     1       3.101   3.027  19.129  0.00  0.00    +0.000 OA
ATOM      4  H   UNL     1       2.493   5.989  18.166  0.00  0.00    +0.000 HD
ENDROOT
BRANCH   1   6
ATOM      5  C   UNL     1       0.964   4.551  20.530  0.00  0.00    +0.000 C 
ATOM      6  C   UNL     1       2.149   5.466  20.205  0.00  0.00    +0.000 C 
BRANCH   6   7
ATOM      7  C   UNL     1       1.737   6.899  20.374  0.00  0.00    +0.000 A 
ATOM      8  C   UNL     1       1.878   8.026  19.586  0.00  0.00    +0.000 A 
ATOM      9  C   UNL     1       1.139   9.064  20.213  0.00  0.00    +0.000 A 
ATOM     10  C   UNL     1       0.835  10.407  19.916  0.00  0.00    +0.000 A 
ATOM     11  C   UNL     1       0.022  11.128  20.802  0.00  0.00    +0.000 A 
ATOM     12  C   UNL     1      -0.475  10.534  21.966  0.00  0.00    +0.000 A 
ATOM     13  C   UNL     1      -0.180   9.202  22.282  0.00  0.00    +0.000 A 
ATOM     14  C   UNL     1       0.620   8.508  21.375  0.00  0.00    +0.000 A 
ATOM     15  O   UNL     1       0.991   7.201  21.479  0.00  0.00    +0.000 OA
ENDBRANCH   6   7
ENDBRANCH   1   6
BRANCH   2  16
ATOM     16  C   UNL     1       3.590   3.982  16.986  0.00  0.00    +0.000 C 
BRANCH  16  17
ATOM     17  C   UNL     1       4.960   4.678  16.809  0.00  0.00    +0.000 C 
ATOM     18  C   UNL     1       5.846   4.502  18.075  0.00  0.00    +0.000 C 
ATOM     19  C   UNL     1       6.621   5.786  18.098  0.00  0.00    +0.000 A 
ATOM     20  C   UNL     1       7.791   6.055  18.789  0.00  0.00    +0.000 A 
ATOM     21  C   UNL     1       8.383   7.309  18.624  0.00  0.00    +0.000 A 
ATOM     22  C   UNL     1       7.793   8.272  17.792  0.00  0.00    +0.000 A 
ATOM     23  C   UNL     1       6.600   7.999  17.117  0.00  0.00    +0.000 A 
ATOM     24  C   UNL     1       6.030   6.745  17.272  0.00  0.00    +0.000 A 
ATOM     25  C   UNL     1       4.779   6.213  16.640  0.00  0.00    +0.000 C 
BRANCH  17  26
ATOM     26  C   UNL     1       5.590   4.136  15.521  0.00  0.00    +0.000 C 
ATOM     27  O   UNL     1       5.571   4.760  14.468  0.00  0.00    +0.000 OA
BRANCH  26  28
ATOM     28  O   UNL     1       6.239   2.960  15.612  0.00  0.00    +0.000 OA
ATOM     29  H   UNL     1       5.834   2.197  15.165  0.00  0.00    +0.000 HD
ENDBRANCH  26  28
ENDBRANCH  17  26
ENDBRANCH  16  17
ENDBRANCH   2  16
TORSDOF 6
ENDMDL
MODEL 9
REMARK VINA RESULT:      -8.1      3.440      5.994
REMARK  Name = 
REMARK  7 active torsions:
REMARK  status: ('A' for Active; 'I' for Inactive)
REMARK    1  A    between atoms: C_1  and  C_2
REMARK    2  A    between atoms: C_2  and  N_3
REMARK    3  A    between atoms: C_2  and  C_19
REMARK    4  A    between atoms: C_4  and  C_6
REMARK    5  A    between atoms: C_6  and  C_7
REMARK    6  A    between atoms: C_7  and  C_8
REMARK    7  A    between atoms: C_8  and  O_10
REMARK                            x       y       z     vdW  Elec       q    Type
REMARK                         _______ _______ _______ _____ _____    ______ ____
ROOT
ATOM      1  N   UNL     1       6.393   6.736  17.786  0.00  0.00    +0.000 N 
ATOM      2  C   UNL     1       5.838   5.597  17.254  0.00  0.00    +0.000 C 
ATOM      3  O   UNL     1       6.468   4.562  17.057  0.00  0.00    +0.000 OA
ATOM      4  H   UNL     1       5.777   7.477  18.103  0.00  0.00    +0.000 HD
ENDROOT
BRANCH   1   6
ATOM      5  C   UNL     1       8.069   6.128  19.515  0.00  0.00    +0.000 C 
ATOM      6  C   UNL     1       7.799   6.801  18.166  0.00  0.00    +0.000 C 
BRANCH   6   7
ATOM      7  C   UNL     1       8.237   8.234  18.223  0.00  0.00    +0.000 A 
ATOM      8  C   UNL     1       7.998   9.333  17.419  0.00  0.00    +0.000 A 
ATOM      9  C   UNL     1       8.558  10.459  18.078  0.00  0.00    +0.000 A 
ATOM     10  C   UNL     1       8.618  11.844  17.833  0.00  0.00    +0.000 A 
ATOM     11  C   UNL     1       9.263  12.668  18.766  0.00  0.00    +0.000 A 
ATOM     12  C   UNL     1       9.846  12.131  19.917  0.00  0.00    +0.000 A 
ATOM     13  C   UNL     1       9.802  10.755  20.176  0.00  0.00    +0.000 A 
ATOM     14  C   UNL     1       9.143   9.964  19.236  0.00  0.00    +0.000 A 
ATOM     15  O   UNL     1       8.959   8.616  19.319  0.00  0.00    +0.000 OA
ENDBRANCH   6   7
ENDBRANCH   1   6
BRANCH   2  16
ATOM     16  C   UNL     1       4.358   5.690  16.912  0.00  0.00    +0.000 C 
BRANCH  16  17
ATOM     17  C   UNL     1       3.453   5.510  18.155  0.00  0.00    +0.000 C 
ATOM     18  C   UNL     1       4.181   4.702  19.266  0.00  0.00    +0.000 C 
ATOM     19  C   UNL     1       3.049   3.954  19.905  0.00  0.00    +0.000 A 
ATOM     20  C   UNL     1       3.033   3.343  21.148  0.00  0.00    +0.000 A 
ATOM     21  C   UNL     1       1.846   2.745  21.576  0.00  0.00    +0.000 A 
ATOM     22  C   UNL     1       0.709   2.751  20.755  0.00  0.00    +0.000 A 
ATOM     23  C   UNL     1       0.741   3.349  19.493  0.00  0.00    +0.000 A 
ATOM     24  C   UNL     1       1.918   3.957  19.084  0.00  0.00    +0.000 A 
ATOM     25  C   UNL     1       2.190   4.678  17.798  0.00  0.00    +0.000 C 
BRANCH  17  26
ATOM     26  C   UNL     1       2.988   6.903  18.592  0.00  0.00    +0.000 C 
ATOM     27  O   UNL     1       2.867   7.833  17.804  0.00  0.00    +0.000 OA
BRANCH  26  28
ATOM     28  O   UNL     1       2.642   7.048  19.885  0.00  0.00    +0.000 OA
ATOM     29  H   UNL     1       2.748   7.934  20.273  0.00  0.00    +0.000 HD
ENDBRANCH  26  28
ENDBRANCH  17  26
ENDBRANCH  16  17
ENDBRANCH   2  16
TORSDOF 6
ENDMDL
