MODEL 1
REMARK VINA RESULT:      -8.4      0.000      0.000
REMARK  Name = 
REMARK  5 active torsions:
REMARK  status: ('A' for Active; 'I' for Inactive)
REMARK    1  A    between atoms: C_2  and  C_9
REMARK    2  A    between atoms: N_3  and  C_4
REMARK    3  A    between atoms: C_12  and  C_13
REMARK    4  A    between atoms: C_13  and  O_14
REMARK    5  A    between atoms: O_14  and  C_15
REMARK                            x       y       z     vdW  Elec       q    Type
REMARK                         _______ _______ _______ _____ _____    ______ ____
ROOT
ATOM      1  C   UNL     1       7.975   8.405  18.110  0.00  0.00    +0.000 A 
ATOM      2  C   UNL     1       8.423   7.355  18.891  0.00  0.00    +0.000 A 
ATOM      3  C   UNL     1       7.845   6.176  18.377  0.00  0.00    +0.000 A 
ATOM      4  C   UNL     1       7.053   6.565  17.317  0.00  0.00    +0.000 A 
ATOM      5  O   UNL     1       7.103   7.927  17.162  0.00  0.00    +0.000 OA
ENDROOT
BRANCH   1   7
ATOM      6  O   UNL     1       7.897  10.635  17.372  0.00  0.00    +0.000 OA
ATOM      7  C   UNL     1       8.371   9.803  18.142  0.00  0.00    +0.000 C 
ATOM      8  N   UNL     1       9.297  10.160  19.100  0.00  0.00    +0.000 N 
ATOM      9  H   UNL     1       9.759   9.420  19.620  0.00  0.00    +0.000 HD
BRANCH   8  10
ATOM     10  C   UNL     1       9.720  11.550  19.258  0.00  0.00    +0.000 C 
ATOM     11  C   UNL     1      10.799  11.939  18.255  0.00  0.00    +0.000 C 
ATOM     12  C   UNL     1      12.055  11.435  18.937  0.00  0.00    +0.000 C 
ATOM     13  N   UNL     1      11.881  11.814  20.346  0.00  0.00    +0.000 NA
ATOM     14  C   UNL     1      10.423  11.805  20.601  0.00  0.00    +0.000 C 
ATOM     15  H   UNL     1      12.214  12.775  20.459  0.00  0.00    +0.000 HD
ENDBRANCH   8  10
ENDBRANCH   1   7
BRANCH   4  16
ATOM     16  C   UNL     1       6.273   5.780  16.323  0.00  0.00    +0.000 C 
BRANCH  16  17
ATOM     17  O   UNL     1       4.974   6.365  16.237  0.00  0.00    +0.000 OA
BRANCH  17  18
ATOM     18  C   UNL     1       4.063   5.961  17.173  0.00  0.00    +0.000 A 
ATOM     19  C   UNL     1       3.473   6.774  18.145  0.00  0.00    +0.000 A 
ATOM     20  C   UNL     1       2.550   6.234  19.047  0.00  0.00    +0.000 A 
ATOM     21  C   UNL     1       2.199   4.878  18.995  0.00  0.00    +0.000 A 
ATOM     22  C   UNL     1       1.276   4.330  19.895  0.00  0.00    +0.000 A 
ATOM     23  C   UNL     1       0.933   2.975  19.828  0.00  0.00    +0.000 A 
ATOM     24  C   UNL     1       1.513   2.161  18.861  0.00  0.00    +0.000 A 
ATOM     25  C   UNL     1       2.438   2.692  17.959  0.00  0.00    +0.000 A 
ATOM     26  C   UNL     1       2.790   4.051  18.013  0.00  0.00    +0.000 A 
ATOM     27  C   UNL     1       3.717   4.608  17.115  0.00  0.00    +0.000 A 
ENDBRANCH  17  18
ENDBRANCH  16  17
ENDBRANCH   4  16
TORSDOF 5
ENDMDL
MODEL 2
REMARK VINA RESULT:      -8.3      2.927      9.772
REMARK  Name = 
REMARK  5 active torsions:
REMARK  status: ('A' for Active; 'I' for Inactive)
REMARK    1  A    between atoms: C_2  and  C_9
REMARK    2  A    between atoms: N_3  and  C_4
REMARK    3  A    between atoms: C_12  and  C_13
REMARK    4  A    between atoms: C_13  and  O_14
REMARK    5  A    between atoms: O_14  and  C_15
REMARK                            x       y       z     vdW  Elec       q    Type
REMARK                         _______ _______ _______ _____ _____    ______ ____
ROOT
ATOM      1  C   UNL     1       6.460   6.034  17.406  0.00  0.00    +0.000 A 
ATOM      2  C   UNL     1       7.341   5.554  18.359  0.00  0.00    +0.000 A 
ATOM      3  C   UNL     1       8.184   6.623  18.724  0.00  0.00    +0.000 A 
ATOM      4  C   UNL     1       7.792   7.703  17.961  0.00  0.00    +0.000 A 
ATOM      5  O   UNL     1       6.758   7.347  17.132  0.00  0.00    +0.000 OA
ENDROOT
BRANCH   1   7
ATOM      6  O   UNL     1       5.226   5.199  15.588  0.00  0.00    +0.000 OA
ATOM      7  C   UNL     1       5.316   5.372  16.802  0.00  0.00    +0.000 C 
ATOM      8  N   UNL     1       4.338   4.921  17.664  0.00  0.00    +0.000 N 
ATOM      9  H   UNL     1       4.390   5.204  18.637  0.00  0.00    +0.000 HD
BRANCH   8  10
ATOM     10  C   UNL     1       3.174   4.190  17.166  0.00  0.00    +0.000 C 
ATOM     11  C   UNL     1       1.883   4.640  17.839  0.00  0.00    +0.000 C 
ATOM     12  C   UNL     1       1.899   3.829  19.119  0.00  0.00    +0.000 C 
ATOM     13  N   UNL     1       2.338   2.492  18.696  0.00  0.00    +0.000 NA
ATOM     14  C   UNL     1       3.218   2.696  17.523  0.00  0.00    +0.000 C 
ATOM     15  H   UNL     1       1.515   1.971  18.385  0.00  0.00    +0.000 HD
ENDBRANCH   8  10
ENDBRANCH   1   7
BRANCH   4  16
ATOM     16  C   UNL     1       8.226   9.125  17.960  0.00  0.00    +0.000 C 
BRANCH  16  17
ATOM     17  O   UNL     1       8.986   9.343  19.148  0.00  0.00    +0.000 OA
BRANCH  17  18
ATOM     18  C   UNL     1       9.513  10.594  19.311  0.00  0.00    +0.000 A 
ATOM     19  C   UNL     1       9.661  11.268  20.526  0.00  0.00    +0.000 A 
ATOM     20  C   UNL     1      10.219  12.551  20.555  0.00  0.00    +0.000 A 
ATOM     21  C   UNL     1      10.637  13.183  19.375  0.00  0.00    +0.000 A 
ATOM     22  C   UNL     1      11.195  14.468  19.396  0.00  0.00    +0.000 A 
ATOM     23  C   UNL     1      11.611  15.083  18.212  0.00  0.00    +0.000 A 
ATOM     24  C   UNL     1      11.470  14.417  16.998  0.00  0.00    +0.000 A 
ATOM     25  C   UNL     1      10.911  13.138  16.961  0.00  0.00    +0.000 A 
ATOM     26  C   UNL     1      10.491  12.506  18.144  0.00  0.00    +0.000 A 
ATOM     27  C   UNL     1       9.928  11.219  18.131  0.00  0.00    +0.000 A 
ENDBRANCH  17  18
ENDBRANCH  16  17
ENDBRANCH   4  16
TORSDOF 5
ENDMDL
MODEL 3
REMARK VINA RESULT:      -8.2      1.926      2.639
REMARK  Name = 
REMARK  5 active torsions:
REMARK  status: ('A' for Active; 'I' for Inactive)
REMARK    1  A    between atoms: C_2  and  C_9
REMARK    2  A    between atoms: N_3  and  C_4
REMARK    3  A    between atoms: C_12  and  C_13
REMARK    4  A    between atoms: C_13  and  O_14
REMARK    5  A    between atoms: O_14  and  C_15
REMARK                            x       y       z     vdW  Elec       q    Type
REMARK                         _______ _______ _______ _____ _____    ______ ____
ROOT
ATOM      1  C   UNL     1       8.556   8.995  18.468  0.00  0.00    +0.000 A 
ATOM      2  C   UNL     1       7.704   8.922  17.380  0.00  0.00    +0.000 A 
ATOM      3  C   UNL     1       7.221   7.598  17.316  0.00  0.00    +0.000 A 
ATOM      4  C   UNL     1       7.819   6.918  18.357  0.00  0.00    +0.000 A 
ATOM      5  O   UNL     1       8.657   7.754  19.050  0.00  0.00    +0.000 OA
ENDROOT
BRANCH   1   7
ATOM      6  O   UNL     1       9.462  10.243  20.241  0.00  0.00    +0.000 OA
ATOM      7  C   UNL     1       9.210  10.159  19.041  0.00  0.00    +0.000 C 
ATOM      8  N   UNL     1       9.558  11.165  18.164  0.00  0.00    +0.000 N 
ATOM      9  H   UNL     1       9.211  11.112  17.212  0.00  0.00    +0.000 HD
BRANCH   8  10
ATOM     10  C   UNL     1      10.274  12.353  18.625  0.00  0.00    +0.000 C 
ATOM     11  C   UNL     1       9.327  13.428  19.144  0.00  0.00    +0.000 C 
ATOM     12  C   UNL     1       8.912  14.123  17.862  0.00  0.00    +0.000 C 
ATOM     13  N   UNL     1      10.159  14.240  17.094  0.00  0.00    +0.000 NA
ATOM     14  C   UNL     1      10.999  13.086  17.487  0.00  0.00    +0.000 C 
ATOM     15  H   UNL     1      10.638  15.093  17.393  0.00  0.00    +0.000 HD
ENDBRANCH   8  10
ENDBRANCH   1   7
BRANCH   4  16
ATOM     16  C   UNL     1       7.640   5.533  18.867  0.00  0.00    +0.000 C 
BRANCH  16  17
ATOM     17  O   UNL     1       6.441   5.512  19.641  0.00  0.00    +0.000 OA
BRANCH  17  18
ATOM     18  C   UNL     1       5.396   4.799  19.123  0.00  0.00    +0.000 A 
ATOM     19  C   UNL     1       5.366   4.185  17.868  0.00  0.00    +0.000 A 
ATOM     20  C   UNL     1       4.229   3.481  17.456  0.00  0.00    +0.000 A 
ATOM     21  C   UNL     1       3.105   3.376  18.287  0.00  0.00    +0.000 A 
ATOM     22  C   UNL     1       1.963   2.674  17.882  0.00  0.00    +0.000 A 
ATOM     23  C   UNL     1       0.851   2.575  18.724  0.00  0.00    +0.000 A 
ATOM     24  C   UNL     1       0.874   3.180  19.976  0.00  0.00    +0.000 A 
ATOM     25  C   UNL     1       2.004   3.887  20.393  0.00  0.00    +0.000 A 
ATOM     26  C   UNL     1       3.129   3.993  19.558  0.00  0.00    +0.000 A 
ATOM     27  C   UNL     1       4.278   4.698  19.957  0.00  0.00    +0.000 A 
ENDBRANCH  17  18
ENDBRANCH  16  17
ENDBRANCH   4  16
TORSDOF 5
ENDMDL
MODEL 4
REMARK VINA RESULT:      -8.2      1.128      1.314
REMARK  Name = 
REMARK  5 active torsions:
REMARK  status: ('A' for Active; 'I' for Inactive)
REMARK    1  A    between atoms: C_2  and  C_9
REMARK    2  A    between atoms: N_3  and  C_4
REMARK    3  A    between atoms: C_12  and  C_13
REMARK    4  A    between atoms: C_13  and  O_14
REMARK    5  A    between atoms: O_14  and  C_15
REMARK                            x       y       z     vdW  Elec       q    Type
REMARK                         _______ _______ _______ _____ _____    ______ ____
ROOT
ATOM      1  C   UNL     1       7.874   8.187  18.017  0.00  0.00    +0.000 A 
ATOM      2  C   UNL     1       8.325   7.171  18.841  0.00  0.00    +0.000 A 
ATOM      3  C   UNL     1       7.815   5.960  18.327  0.00  0.00    +0.000 A 
ATOM      4  C   UNL     1       7.058   6.297  17.225  0.00  0.00    +0.000 A 
ATOM      5  O   UNL     1       7.065   7.656  17.042  0.00  0.00    +0.000 OA
ENDROOT
BRANCH   1   7
ATOM      6  O   UNL     1       7.646  10.420  17.320  0.00  0.00    +0.000 OA
ATOM      7  C   UNL     1       8.216   9.599  18.036  0.00  0.00    +0.000 C 
ATOM      8  N   UNL     1       9.204   9.983  18.918  0.00  0.00    +0.000 N 
ATOM      9  H   UNL     1       9.737   9.257  19.387  0.00  0.00    +0.000 HD
BRANCH   8  10
ATOM     10  C   UNL     1       9.584  11.387  19.060  0.00  0.00    +0.000 C 
ATOM     11  C   UNL     1      10.732  11.768  18.133  0.00  0.00    +0.000 C 
ATOM     12  C   UNL     1      11.940  11.316  18.930  0.00  0.00    +0.000 C 
ATOM     13  N   UNL     1      11.645  11.739  20.306  0.00  0.00    +0.000 NA
ATOM     14  C   UNL     1      10.171  11.703  20.444  0.00  0.00    +0.000 C 
ATOM     15  H   UNL     1      11.948  12.710  20.411  0.00  0.00    +0.000 HD
ENDBRANCH   8  10
ENDBRANCH   1   7
BRANCH   4  16
ATOM     16  C   UNL     1       6.355   5.462  16.214  0.00  0.00    +0.000 C 
BRANCH  16  17
ATOM     17  O   UNL     1       5.948   4.257  16.861  0.00  0.00    +0.000 OA
BRANCH  17  18
ATOM     18  C   UNL     1       4.767   4.306  17.549  0.00  0.00    +0.000 A 
ATOM     19  C   UNL     1       3.645   5.060  17.195  0.00  0.00    +0.000 A 
ATOM     20  C   UNL     1       2.492   5.021  17.988  0.00  0.00    +0.000 A 
ATOM     21  C   UNL     1       2.440   4.231  19.145  0.00  0.00    +0.000 A 
ATOM     22  C   UNL     1       1.291   4.188  19.946  0.00  0.00    +0.000 A 
ATOM     23  C   UNL     1       1.252   3.393  21.095  0.00  0.00    +0.000 A 
ATOM     24  C   UNL     1       2.365   2.637  21.452  0.00  0.00    +0.000 A 
ATOM     25  C   UNL     1       3.519   2.673  20.667  0.00  0.00    +0.000 A 
ATOM     26  C   UNL     1       3.571   3.466  19.508  0.00  0.00    +0.000 A 
ATOM     27  C   UNL     1       4.721   3.517  18.702  0.00  0.00    +0.000 A 
ENDBRANCH  17  18
ENDBRANCH  16  17
ENDBRANCH   4  16
TORSDOF 5
ENDMDL
MODEL 5
REMARK VINA RESULT:      -8.1      2.980      9.751
REMARK  Name = 
REMARK  5 active torsions:
REMARK  status: ('A' for Active; 'I' for Inactive)
REMARK    1  A    between atoms: C_2  and  C_9
REMARK    2  A    between atoms: N_3  and  C_4
REMARK    3  A    between atoms: C_12  and  C_13
REMARK    4  A    between atoms: C_13  and  O_14
REMARK    5  A    between atoms: O_14  and  C_15
REMARK                            x       y       z     vdW  Elec       q    Type
REMARK                         _______ _______ _______ _____ _____    ______ ____
ROOT
ATOM      1  C   UNL     1       6.448   5.960  17.397  0.00  0.00    +0.000 A 
ATOM      2  C   UNL     1       7.323   5.570  18.395  0.00  0.00    +0.000 A 
ATOM      3  C   UNL     1       8.126   6.687  18.706  0.00  0.00    +0.000 A 
ATOM      4  C   UNL     1       7.718   7.702  17.866  0.00  0.00    +0.000 A 
ATOM      5  O   UNL     1       6.712   7.262  17.044  0.00  0.00    +0.000 OA
ENDROOT
BRANCH   1   7
ATOM      6  O   UNL     1       5.118   5.219  15.607  0.00  0.00    +0.000 OA
ATOM      7  C   UNL     1       5.337   5.225  16.816  0.00  0.00    +0.000 C 
ATOM      8  N   UNL     1       4.545   4.511  17.692  0.00  0.00    +0.000 N 
ATOM      9  H   UNL     1       4.681   4.655  18.687  0.00  0.00    +0.000 HD
BRANCH   8  10
ATOM     10  C   UNL     1       3.437   3.690  17.207  0.00  0.00    +0.000 C 
ATOM     11  C   UNL     1       2.082   4.278  17.577  0.00  0.00    +0.000 C 
ATOM     12  C   UNL     1       1.897   3.769  18.992  0.00  0.00    +0.000 C 
ATOM     13  N   UNL     1       2.346   2.371  18.937  0.00  0.00    +0.000 NA
ATOM     14  C   UNL     1       3.384   2.311  17.882  0.00  0.00    +0.000 C 
ATOM     15  H   UNL     1       1.557   1.795  18.634  0.00  0.00    +0.000 HD
ENDBRANCH   8  10
ENDBRANCH   1   7
BRANCH   4  16
ATOM     16  C   UNL     1       8.110   9.134  17.781  0.00  0.00    +0.000 C 
BRANCH  16  17
ATOM     17  O   UNL     1       8.911   9.430  18.924  0.00  0.00    +0.000 OA
BRANCH  17  18
ATOM     18  C   UNL     1       9.470  10.677  18.968  0.00  0.00    +0.000 A 
ATOM     19  C   UNL     1      10.146  11.308  17.921  0.00  0.00    +0.000 A 
ATOM     20  C   UNL     1      10.673  12.593  18.096  0.00  0.00    +0.000 A 
ATOM     21  C   UNL     1      10.533  13.268  19.316  0.00  0.00    +0.000 A 
ATOM     22  C   UNL     1      11.058  14.555  19.499  0.00  0.00    +0.000 A 
ATOM     23  C   UNL     1      10.908  15.218  20.721  0.00  0.00    +0.000 A 
ATOM     24  C   UNL     1      10.232  14.598  21.768  0.00  0.00    +0.000 A 
ATOM     25  C   UNL     1       9.707  13.315  21.601  0.00  0.00    +0.000 A 
ATOM     26  C   UNL     1       9.848  12.637  20.378  0.00  0.00    +0.000 A 
ATOM     27  C   UNL     1       9.327  11.346  20.187  0.00  0.00    +0.000 A 
ENDBRANCH  17  18
ENDBRANCH  16  17
ENDBRANCH   4  16
TORSDOF 5
ENDMDL
MODEL 6
REMARK VINA RESULT:      -8.1      1.668      2.025
REMARK  Name = 
REMARK  5 active torsions:
REMARK  status: ('A' for Active; 'I' for Inactive)
REMARK    1  A    between atoms: C_2  and  C_9
REMARK    2  A    between atoms: N_3  and  C_4
REMARK    3  A    between atoms: C_12  and  C_13
REMARK    4  A    between atoms: C_13  and  O_14
REMARK    5  A    between atoms: O_14  and  C_15
REMARK                            x       y       z     vdW  Elec       q    Type
REMARK                         _______ _______ _______ _____ _____    ______ ____
ROOT
ATOM      1  C   UNL     1       8.309   8.797  18.293  0.00  0.00    +0.000 A 
ATOM      2  C   UNL     1       7.411   8.793  17.241  0.00  0.00    +0.000 A 
ATOM      3  C   UNL     1       6.909   7.480  17.125  0.00  0.00    +0.000 A 
ATOM      4  C   UNL     1       7.541   6.738  18.100  0.00  0.00    +0.000 A 
ATOM      5  O   UNL     1       8.418   7.525  18.801  0.00  0.00    +0.000 OA
ENDROOT
BRANCH   1   7
ATOM      6  O   UNL     1       9.278   9.949  20.097  0.00  0.00    +0.000 OA
ATOM      7  C   UNL     1       9.002   9.920  18.900  0.00  0.00    +0.000 C 
ATOM      8  N   UNL     1       9.359  10.953  18.058  0.00  0.00    +0.000 N 
ATOM      9  H   UNL     1       8.993  10.948  17.111  0.00  0.00    +0.000 HD
BRANCH   8  10
ATOM     10  C   UNL     1      10.112  12.104  18.553  0.00  0.00    +0.000 C 
ATOM     11  C   UNL     1      10.159  13.239  17.539  0.00  0.00    +0.000 C 
ATOM     12  C   UNL     1      11.310  12.815  16.649  0.00  0.00    +0.000 C 
ATOM     13  N   UNL     1      12.333  12.331  17.586  0.00  0.00    +0.000 NA
ATOM     14  C   UNL     1      11.603  11.792  18.756  0.00  0.00    +0.000 C 
ATOM     15  H   UNL     1      12.882  13.134  17.900  0.00  0.00    +0.000 HD
ENDBRANCH   8  10
ENDBRANCH   1   7
BRANCH   4  16
ATOM     16  C   UNL     1       7.365   5.328  18.541  0.00  0.00    +0.000 C 
BRANCH  16  17
ATOM     17  O   UNL     1       6.475   4.698  17.619  0.00  0.00    +0.000 OA
BRANCH  17  18
ATOM     18  C   UNL     1       5.169   4.599  18.009  0.00  0.00    +0.000 A 
ATOM     19  C   UNL     1       4.079   5.212  17.385  0.00  0.00    +0.000 A 
ATOM     20  C   UNL     1       2.786   5.028  17.886  0.00  0.00    +0.000 A 
ATOM     21  C   UNL     1       2.557   4.230  19.016  0.00  0.00    +0.000 A 
ATOM     22  C   UNL     1       1.265   4.042  19.524  0.00  0.00    +0.000 A 
ATOM     23  C   UNL     1       1.052   3.241  20.650  0.00  0.00    +0.000 A 
ATOM     24  C   UNL     1       2.131   2.625  21.276  0.00  0.00    +0.000 A 
ATOM     25  C   UNL     1       3.425   2.806  20.783  0.00  0.00    +0.000 A 
ATOM     26  C   UNL     1       3.654   3.606  19.651  0.00  0.00    +0.000 A 
ATOM     27  C   UNL     1       4.947   3.802  19.137  0.00  0.00    +0.000 A 
ENDBRANCH  17  18
ENDBRANCH  16  17
ENDBRANCH   4  16
TORSDOF 5
ENDMDL
MODEL 7
REMARK VINA RESULT:      -7.9      1.910      2.395
REMARK  Name = 
REMARK  5 active torsions:
REMARK  status: ('A' for Active; 'I' for Inactive)
REMARK    1  A    between atoms: C_2  and  C_9
REMARK    2  A    between atoms: N_3  and  C_4
REMARK    3  A    between atoms: C_12  and  C_13
REMARK    4  A    between atoms: C_13  and  O_14
REMARK    5  A    between atoms: O_14  and  C_15
REMARK                            x       y       z     vdW  Elec       q    Type
REMARK                         _______ _______ _______ _____ _____    ______ ____
ROOT
ATOM      1  C   UNL     1       8.429   8.751  18.402  0.00  0.00    +0.000 A 
ATOM      2  C   UNL     1       7.602   8.666  17.296  0.00  0.00    +0.000 A 
ATOM      3  C   UNL     1       7.109   7.346  17.245  0.00  0.00    +0.000 A 
ATOM      4  C   UNL     1       7.675   6.680  18.311  0.00  0.00    +0.000 A 
ATOM      5  O   UNL     1       8.505   7.521  19.009  0.00  0.00    +0.000 OA
ENDROOT
BRANCH   1   7
ATOM      6  O   UNL     1       9.435   9.966  20.145  0.00  0.00    +0.000 OA
ATOM      7  C   UNL     1       9.081   9.920  18.968  0.00  0.00    +0.000 C 
ATOM      8  N   UNL     1       9.308  10.976  18.111  0.00  0.00    +0.000 N 
ATOM      9  H   UNL     1       8.880  10.947  17.191  0.00  0.00    +0.000 HD
BRANCH   8  10
ATOM     10  C   UNL     1      10.010  12.176  18.562  0.00  0.00    +0.000 C 
ATOM     11  C   UNL     1       9.070  13.175  19.225  0.00  0.00    +0.000 C 
ATOM     12  C   UNL     1       8.500  13.909  18.027  0.00  0.00    +0.000 C 
ATOM     13  N   UNL     1       9.658  14.126  17.149  0.00  0.00    +0.000 NA
ATOM     14  C   UNL     1      10.584  12.998  17.398  0.00  0.00    +0.000 C 
ATOM     15  H   UNL     1      10.123  14.987  17.445  0.00  0.00    +0.000 HD
ENDBRANCH   8  10
ENDBRANCH   1   7
BRANCH   4  16
ATOM     16  C   UNL     1       7.470   5.306  18.843  0.00  0.00    +0.000 C 
BRANCH  16  17
ATOM     17  O   UNL     1       6.716   4.579  17.874  0.00  0.00    +0.000 OA
BRANCH  17  18
ATOM     18  C   UNL     1       5.372   4.479  18.101  0.00  0.00    +0.000 A 
ATOM     19  C   UNL     1       4.364   5.033  17.307  0.00  0.00    +0.000 A 
ATOM     20  C   UNL     1       3.019   4.856  17.652  0.00  0.00    +0.000 A 
ATOM     21  C   UNL     1       2.657   4.125  18.791  0.00  0.00    +0.000 A 
ATOM     22  C   UNL     1       1.313   3.945  19.144  0.00  0.00    +0.000 A 
ATOM     23  C   UNL     1       0.968   3.209  20.282  0.00  0.00    +0.000 A 
ATOM     24  C   UNL     1       1.965   2.652  21.076  0.00  0.00    +0.000 A 
ATOM     25  C   UNL     1       3.309   2.827  20.740  0.00  0.00    +0.000 A 
ATOM     26  C   UNL     1       3.671   3.561  19.598  0.00  0.00    +0.000 A 
ATOM     27  C   UNL     1       5.017   3.749  19.239  0.00  0.00    +0.000 A 
ENDBRANCH  17  18
ENDBRANCH  16  17
ENDBRANCH   4  16
TORSDOF 5
ENDMDL
MODEL 8
REMARK VINA RESULT:      -7.8      3.257      9.781
REMARK  Name = 
REMARK  5 active torsions:
REMARK  status: ('A' for Active; 'I' for Inactive)
REMARK    1  A    between atoms: C_2  and  C_9
REMARK    2  A    between atoms: N_3  and  C_4
REMARK    3  A    between atoms: C_12  and  C_13
REMARK    4  A    between atoms: C_13  and  O_14
REMARK    5  A    between atoms: O_14  and  C_15
REMARK                            x       y       z     vdW  Elec       q    Type
REMARK                         _______ _______ _______ _____ _____    ______ ____
ROOT
ATOM      1  C   UNL     1       5.294   5.404  18.302  0.00  0.00    +0.000 A 
ATOM      2  C   UNL     1       4.758   6.137  17.259  0.00  0.00    +0.000 A 
ATOM      3  C   UNL     1       5.684   7.153  16.944  0.00  0.00    +0.000 A 
ATOM      4  C   UNL     1       6.735   7.005  17.825  0.00  0.00    +0.000 A 
ATOM      5  O   UNL     1       6.495   5.957  18.676  0.00  0.00    +0.000 OA
ENDROOT
BRANCH   1   7
ATOM      6  O   UNL     1       5.511   3.460  19.606  0.00  0.00    +0.000 OA
ATOM      7  C   UNL     1       4.799   4.180  18.910  0.00  0.00    +0.000 C 
ATOM      8  N   UNL     1       3.473   3.873  18.685  0.00  0.00    +0.000 N 
ATOM      9  H   UNL     1       2.964   4.420  17.998  0.00  0.00    +0.000 HD
BRANCH   8  10
ATOM     10  C   UNL     1       2.857   2.698  19.298  0.00  0.00    +0.000 C 
ATOM     11  C   UNL     1       1.661   2.195  18.501  0.00  0.00    +0.000 C 
ATOM     12  C   UNL     1       0.549   3.093  19.005  0.00  0.00    +0.000 C 
ATOM     13  N   UNL     1       0.767   3.160  20.457  0.00  0.00    +0.000 NA
ATOM     14  C   UNL     1       2.225   3.006  20.664  0.00  0.00    +0.000 C 
ATOM     15  H   UNL     1       0.302   2.356  20.885  0.00  0.00    +0.000 HD
ENDBRANCH   8  10
ENDBRANCH   1   7
BRANCH   4  16
ATOM     16  C   UNL     1       8.044   7.702  17.930  0.00  0.00    +0.000 C 
BRANCH  16  17
ATOM     17  O   UNL     1       7.801   9.099  17.771  0.00  0.00    +0.000 OA
BRANCH  17  18
ATOM     18  C   UNL     1       8.681   9.943  18.390  0.00  0.00    +0.000 A 
ATOM     19  C   UNL     1       9.074   9.876  19.730  0.00  0.00    +0.000 A 
ATOM     20  C   UNL     1       9.988  10.804  20.242  0.00  0.00    +0.000 A 
ATOM     21  C   UNL     1      10.523  11.812  19.429  0.00  0.00    +0.000 A 
ATOM     22  C   UNL     1      11.437  12.746  19.935  0.00  0.00    +0.000 A 
ATOM     23  C   UNL     1      11.966  13.745  19.110  0.00  0.00    +0.000 A 
ATOM     24  C   UNL     1      11.582  13.816  17.775  0.00  0.00    +0.000 A 
ATOM     25  C   UNL     1      10.669  12.894  17.258  0.00  0.00    +0.000 A 
ATOM     26  C   UNL     1      10.131  11.885  18.074  0.00  0.00    +0.000 A 
ATOM     27  C   UNL     1       9.212  10.946  17.575  0.00  0.00    +0.000 A 
ENDBRANCH  17  18
ENDBRANCH  16  17
ENDBRANCH   4  16
TORSDOF 5
ENDMDL
MODEL 9
REMARK VINA RESULT:      -7.7      4.623      7.367
REMARK  Name = 
REMARK  5 active torsions:
REMARK  status: ('A' for Active; 'I' for Inactive)
REMARK    1  A    between atoms: C_2  and  C_9
REMARK    2  A    between atoms: N_3  and  C_4
REMARK    3  A    between atoms: C_12  and  C_13
REMARK    4  A    between atoms: C_13  and  O_14
REMARK    5  A    between atoms: O_14  and  C_15
REMARK                            x       y       z     vdW  Elec       q    Type
REMARK                         _______ _______ _______ _____ _____    ______ ____
ROOT
ATOM      1  C   UNL     1       3.556   4.161  19.745  0.00  0.00    +0.000 A 
ATOM      2  C   UNL     1       2.484   3.290  19.687  0.00  0.00    +0.000 A 
ATOM      3  C   UNL     1       1.349   3.993  20.142  0.00  0.00    +0.000 A 
ATOM      4  C   UNL     1       1.787   5.258  20.476  0.00  0.00    +0.000 A 
ATOM      5  O   UNL     1       3.138   5.363  20.263  0.00  0.00    +0.000 OA
ENDROOT
BRANCH   1   7
ATOM      6  O   UNL     1       5.420   2.854  19.162  0.00  0.00    +0.000 OA
ATOM      7  C   UNL     1       4.917   3.970  19.271  0.00  0.00    +0.000 C 
ATOM      8  N   UNL     1       5.615   5.108  18.926  0.00  0.00    +0.000 N 
ATOM      9  H   UNL     1       5.210   6.009  19.160  0.00  0.00    +0.000 HD
BRANCH   8  10
ATOM     10  C   UNL     1       6.970   5.025  18.383  0.00  0.00    +0.000 C 
ATOM     11  C   UNL     1       7.768   6.298  18.633  0.00  0.00    +0.000 C 
ATOM     12  C   UNL     1       7.317   7.180  17.486  0.00  0.00    +0.000 C 
ATOM     13  N   UNL     1       7.295   6.281  16.324  0.00  0.00    +0.000 NA
ATOM     14  C   UNL     1       6.987   4.931  16.849  0.00  0.00    +0.000 C 
ATOM     15  H   UNL     1       8.236   6.256  15.925  0.00  0.00    +0.000 HD
ENDBRANCH   8  10
ENDBRANCH   1   7
BRANCH   4  16
ATOM     16  C   UNL     1       1.055   6.475  20.918  0.00  0.00    +0.000 C 
BRANCH  16  17
ATOM     17  O   UNL     1       1.807   7.609  20.485  0.00  0.00    +0.000 OA
BRANCH  17  18
ATOM     18  C   UNL     1       1.146   8.806  20.474  0.00  0.00    +0.000 A 
ATOM     19  C   UNL     1       1.106   9.709  19.409  0.00  0.00    +0.000 A 
ATOM     20  C   UNL     1       0.390  10.905  19.527  0.00  0.00    +0.000 A 
ATOM     21  C   UNL     1      -0.298  11.220  20.707  0.00  0.00    +0.000 A 
ATOM     22  C   UNL     1      -1.017  12.416  20.834  0.00  0.00    +0.000 A 
ATOM     23  C   UNL     1      -1.701  12.715  22.016  0.00  0.00    +0.000 A 
ATOM     24  C   UNL     1      -1.669  11.819  23.080  0.00  0.00    +0.000 A 
ATOM     25  C   UNL     1      -0.954  10.624  22.971  0.00  0.00    +0.000 A 
ATOM     26  C   UNL     1      -0.263  10.310  21.788  0.00  0.00    +0.000 A 
ATOM     27  C   UNL     1       0.462   9.114  21.654  0.00  0.00    +0.000 A 
ENDBRANCH  17  18
ENDBRANCH  16  17
ENDBRANCH   4  16
TORSDOF 5
ENDMDL
