MODEL 1
REMARK VINA RESULT:      -9.4      0.000      0.000
REMARK  Name = 
REMARK  4 active torsions:
REMARK  status: ('A' for Active; 'I' for Inactive)
REMARK    1  A    between atoms: C_2  and  C_18
REMARK    2  A    between atoms: N_3  and  C_4
REMARK    3  A    between atoms: C_8  and  S_9
REMARK    4  A    between atoms: S_9  and  N_12
REMARK                            x       y       z     vdW  Elec       q    Type
REMARK                         _______ _______ _______ _____ _____    ______ ____
ROOT
ATOM      1  O   UNL     1       2.160   9.261  17.314  0.00  0.00    +0.000 OA
ATOM      2  C   UNL     1       1.597   9.030  18.368  0.00  0.00    +0.000 C 
ATOM      3  N   UNL     1       1.879   8.011  19.239  0.00  0.00    +0.000 N 
ATOM      4  H   UNL     1       1.479   8.065  20.162  0.00  0.00    +0.000 HD
ENDROOT
BRANCH   2   5
ATOM      5  C   UNL     1       0.542   9.935  18.855  0.00  0.00    +0.000 A 
ATOM      6  C   UNL     1       0.614  10.136  20.186  0.00  0.00    +0.000 A 
ATOM      7  C   UNL     1       0.755  11.624  20.306  0.00  0.00    +0.000 A 
ATOM      8  O   UNL     1       1.676  12.144  20.905  0.00  0.00    +0.000 OA
ATOM      9  N   UNL     1      -0.238  12.345  19.682  0.00  0.00    +0.000 N 
ATOM     10  C   UNL     1      -1.120  11.653  18.826  0.00  0.00    +0.000 A 
ATOM     11  C   UNL     1      -2.485  11.847  18.924  0.00  0.00    +0.000 A 
ATOM     12  C   UNL     1      -3.335  10.984  18.236  0.00  0.00    +0.000 A 
ATOM     13  C   UNL     1      -2.813  10.078  17.307  0.00  0.00    +0.000 A 
ATOM     14  C   UNL     1      -1.438   9.885  17.220  0.00  0.00    +0.000 A 
ATOM     15  C   UNL     1      -0.635  10.510  18.166  0.00  0.00    +0.000 A 
ATOM     16  H   UNL     1       0.110  13.251  19.369  0.00  0.00    +0.000 HD
ENDBRANCH   2   5
BRANCH   3  17
ATOM     17  C   UNL     1       2.699   6.906  18.990  0.00  0.00    +0.000 A 
ATOM     18  C   UNL     1       2.762   5.787  19.823  0.00  0.00    +0.000 A 
ATOM     19  C   UNL     1       3.643   4.745  19.542  0.00  0.00    +0.000 A 
ATOM     20  C   UNL     1       4.442   4.807  18.404  0.00  0.00    +0.000 A 
ATOM     21  C   UNL     1       4.328   5.897  17.537  0.00  0.00    +0.000 A 
ATOM     22  C   UNL     1       3.494   6.969  17.849  0.00  0.00    +0.000 A 
BRANCH  21  23
ATOM     23  S   UNL     1       5.223   5.930  16.006  0.00  0.00    +0.000 S 
ATOM     24  O   UNL     1       5.067   4.635  15.378  0.00  0.00    +0.000 OA
ATOM     25  O   UNL     1       4.861   7.151  15.315  0.00  0.00    +0.000 OA
BRANCH  23  26
ATOM     26  N   UNL     1       6.830   6.078  16.524  0.00  0.00    +0.000 NA
ATOM     27  C   UNL     1       7.546   4.883  17.010  0.00  0.00    +0.000 C 
ATOM     28  C   UNL     1       7.711   5.115  18.499  0.00  0.00    +0.000 C 
ATOM     29  C   UNL     1       7.870   6.618  18.625  0.00  0.00    +0.000 C 
ATOM     30  C   UNL     1       7.172   7.217  17.406  0.00  0.00    +0.000 C 
ENDBRANCH  23  26
ENDBRANCH  21  23
ENDBRANCH   3  17
TORSDOF 4
ENDMDL
MODEL 2
REMARK VINA RESULT:      -9.3      1.692      2.202
REMARK  Name = 
REMARK  4 active torsions:
REMARK  status: ('A' for Active; 'I' for Inactive)
REMARK    1  A    between atoms: C_2  and  C_18
REMARK    2  A    between atoms: N_3  and  C_4
REMARK    3  A    between atoms: C_8  and  S_9
REMARK    4  A    between atoms: S_9  and  N_12
REMARK                            x       y       z     vdW  Elec       q    Type
REMARK                         _______ _______ _______ _____ _____    ______ ____
ROOT
ATOM      1  O   UNL     1       1.274   8.823  17.411  0.00  0.00    +0.000 OA
ATOM      2  C   UNL     1       1.528   8.774  18.601  0.00  0.00    +0.000 C 
ATOM      3  N   UNL     1       2.328   7.856  19.228  0.00  0.00    +0.000 N 
ATOM      4  H   UNL     1       2.615   8.060  20.172  0.00  0.00    +0.000 HD
ENDROOT
BRANCH   2   5
ATOM      5  C   UNL     1       1.013   9.813  19.508  0.00  0.00    +0.000 A 
ATOM      6  C   UNL     1       1.712  10.963  19.418  0.00  0.00    +0.000 A 
ATOM      7  C   UNL     1       0.669  11.975  19.051  0.00  0.00    +0.000 A 
ATOM      8  O   UNL     1       0.767  12.682  18.066  0.00  0.00    +0.000 OA
ATOM      9  N   UNL     1      -0.401  12.034  19.914  0.00  0.00    +0.000 N 
ATOM     10  C   UNL     1      -0.525  11.018  20.884  0.00  0.00    +0.000 A 
ATOM     11  C   UNL     1      -0.783  11.339  22.204  0.00  0.00    +0.000 A 
ATOM     12  C   UNL     1      -0.667  10.343  23.170  0.00  0.00    +0.000 A 
ATOM     13  C   UNL     1      -0.498   9.008  22.786  0.00  0.00    +0.000 A 
ATOM     14  C   UNL     1      -0.233   8.696  21.456  0.00  0.00    +0.000 A 
ATOM     15  C   UNL     1      -0.010   9.747  20.575  0.00  0.00    +0.000 A 
ATOM     16  H   UNL     1      -1.248  12.329  19.428  0.00  0.00    +0.000 HD
ENDBRANCH   2   5
BRANCH   3  17
ATOM     17  C   UNL     1       2.822   6.668  18.680  0.00  0.00    +0.000 A 
ATOM     18  C   UNL     1       2.417   5.398  19.096  0.00  0.00    +0.000 A 
ATOM     19  C   UNL     1       2.992   4.256  18.543  0.00  0.00    +0.000 A 
ATOM     20  C   UNL     1       3.953   4.383  17.545  0.00  0.00    +0.000 A 
ATOM     21  C   UNL     1       4.306   5.654  17.083  0.00  0.00    +0.000 A 
ATOM     22  C   UNL     1       3.780   6.798  17.679  0.00  0.00    +0.000 A 
BRANCH  21  23
ATOM     23  S   UNL     1       5.415   5.840  15.712  0.00  0.00    +0.000 S 
ATOM     24  O   UNL     1       5.340   4.631  14.919  0.00  0.00    +0.000 OA
ATOM     25  O   UNL     1       5.172   7.143  15.126  0.00  0.00    +0.000 OA
BRANCH  23  26
ATOM     26  N   UNL     1       6.932   5.882  16.469  0.00  0.00    +0.000 NA
ATOM     27  C   UNL     1       7.350   4.747  17.312  0.00  0.00    +0.000 C 
ATOM     28  C   UNL     1       7.336   5.295  18.726  0.00  0.00    +0.000 C 
ATOM     29  C   UNL     1       7.733   6.749  18.564  0.00  0.00    +0.000 C 
ATOM     30  C   UNL     1       7.335   7.137  17.142  0.00  0.00    +0.000 C 
ENDBRANCH  23  26
ENDBRANCH  21  23
ENDBRANCH   3  17
TORSDOF 4
ENDMDL
MODEL 3
REMARK VINA RESULT:      -9.1      1.213      1.445
REMARK  Name = 
REMARK  4 active torsions:
REMARK  status: ('A' for Active; 'I' for Inactive)
REMARK    1  A    between atoms: C_2  and  C_18
REMARK    2  A    between atoms: N_3  and  C_4
REMARK    3  A    between atoms: C_8  and  S_9
REMARK    4  A    between atoms: S_9  and  N_12
REMARK                            x       y       z     vdW  Elec       q    Type
REMARK                         _______ _______ _______ _____ _____    ______ ____
ROOT
ATOM      1  O   UNL     1       2.430   8.685  17.770  0.00  0.00    +0.000 OA
ATOM      2  C   UNL     1       1.964   8.258  18.810  0.00  0.00    +0.000 C 
ATOM      3  N   UNL     1       2.238   7.050  19.393  0.00  0.00    +0.000 N 
ATOM      4  H   UNL     1       1.945   6.919  20.348  0.00  0.00    +0.000 HD
ENDROOT
BRANCH   2   5
ATOM      5  C   UNL     1       1.059   9.099  19.611  0.00  0.00    +0.000 A 
ATOM      6  C   UNL     1       0.789   8.555  20.816  0.00  0.00    +0.000 A 
ATOM      7  C   UNL     1       1.237   9.611  21.781  0.00  0.00    +0.000 A 
ATOM      8  O   UNL     1       2.041   9.385  22.665  0.00  0.00    +0.000 OA
ATOM      9  N   UNL     1       0.667  10.848  21.582  0.00  0.00    +0.000 N 
ATOM     10  C   UNL     1      -0.067  11.055  20.396  0.00  0.00    +0.000 A 
ATOM     11  C   UNL     1      -1.316  11.647  20.442  0.00  0.00    +0.000 A 
ATOM     12  C   UNL     1      -2.110  11.624  19.298  0.00  0.00    +0.000 A 
ATOM     13  C   UNL     1      -1.571  11.198  18.078  0.00  0.00    +0.000 A 
ATOM     14  C   UNL     1      -0.316  10.597  18.044  0.00  0.00    +0.000 A 
ATOM     15  C   UNL     1       0.303  10.320  19.256  0.00  0.00    +0.000 A 
ATOM     16  H   UNL     1       1.294  11.593  21.885  0.00  0.00    +0.000 HD
ENDBRANCH   2   5
BRANCH   3  17
ATOM     17  C   UNL     1       2.916   5.976  18.807  0.00  0.00    +0.000 A 
ATOM     18  C   UNL     1       2.744   4.647  19.198  0.00  0.00    +0.000 A 
ATOM     19  C   UNL     1       3.495   3.632  18.606  0.00  0.00    +0.000 A 
ATOM     20  C   UNL     1       4.398   3.946  17.596  0.00  0.00    +0.000 A 
ATOM     21  C   UNL     1       4.518   5.268  17.160  0.00  0.00    +0.000 A 
ATOM     22  C   UNL     1       3.816   6.291  17.793  0.00  0.00    +0.000 A 
BRANCH  21  23
ATOM     23  S   UNL     1       5.549   5.671  15.775  0.00  0.00    +0.000 S 
ATOM     24  O   UNL     1       5.584   4.518  14.901  0.00  0.00    +0.000 OA
ATOM     25  O   UNL     1       5.138   6.973  15.288  0.00  0.00    +0.000 OA
BRANCH  23  26
ATOM     26  N   UNL     1       7.077   5.839  16.491  0.00  0.00    +0.000 NA
ATOM     27  C   UNL     1       7.588   4.765  17.362  0.00  0.00    +0.000 C 
ATOM     28  C   UNL     1       7.571   5.363  18.756  0.00  0.00    +0.000 C 
ATOM     29  C   UNL     1       7.869   6.833  18.533  0.00  0.00    +0.000 C 
ATOM     30  C   UNL     1       7.413   7.142  17.109  0.00  0.00    +0.000 C 
ENDBRANCH  23  26
ENDBRANCH  21  23
ENDBRANCH   3  17
TORSDOF 4
ENDMDL
MODEL 4
REMARK VINA RESULT:      -8.9      2.150      3.303
REMARK  Name = 
REMARK  4 active torsions:
REMARK  status: ('A' for Active; 'I' for Inactive)
REMARK    1  A    between atoms: C_2  and  C_18
REMARK    2  A    between atoms: N_3  and  C_4
REMARK    3  A    between atoms: C_8  and  S_9
REMARK    4  A    between atoms: S_9  and  N_12
REMARK                            x       y       z     vdW  Elec       q    Type
REMARK                         _______ _______ _______ _____ _____    ______ ____
ROOT
ATOM      1  O   UNL     1       2.186   9.994  17.376  0.00  0.00    +0.000 OA
ATOM      2  C   UNL     1       1.493   9.349  18.141  0.00  0.00    +0.000 C 
ATOM      3  N   UNL     1       1.756   8.093  18.621  0.00  0.00    +0.000 N 
ATOM      4  H   UNL     1       1.208   7.771  19.402  0.00  0.00    +0.000 HD
ENDROOT
BRANCH   2   5
ATOM      5  C   UNL     1       0.268   9.941  18.703  0.00  0.00    +0.000 A 
ATOM      6  C   UNL     1       0.226   9.849  20.048  0.00  0.00    +0.000 A 
ATOM      7  C   UNL     1       0.092  11.275  20.490  0.00  0.00    +0.000 A 
ATOM      8  O   UNL     1       0.870  11.790  21.270  0.00  0.00    +0.000 OA
ATOM      9  N   UNL     1      -0.975  11.948  19.939  0.00  0.00    +0.000 N 
ATOM     10  C   UNL     1      -1.668  11.332  18.877  0.00  0.00    +0.000 A 
ATOM     11  C   UNL     1      -3.050  11.277  18.883  0.00  0.00    +0.000 A 
ATOM     12  C   UNL     1      -3.691  10.465  17.951  0.00  0.00    +0.000 A 
ATOM     13  C   UNL     1      -2.964   9.885  16.906  0.00  0.00    +0.000 A 
ATOM     14  C   UNL     1      -1.573   9.939  16.913  0.00  0.00    +0.000 A 
ATOM     15  C   UNL     1      -0.950  10.458  18.041  0.00  0.00    +0.000 A 
ATOM     16  H   UNL     1      -0.776  12.945  19.858  0.00  0.00    +0.000 HD
ENDBRANCH   2   5
BRANCH   3  17
ATOM     17  C   UNL     1       2.738   7.212  18.156  0.00  0.00    +0.000 A 
ATOM     18  C   UNL     1       4.002   7.620  17.726  0.00  0.00    +0.000 A 
ATOM     19  C   UNL     1       4.912   6.693  17.223  0.00  0.00    +0.000 A 
ATOM     20  C   UNL     1       4.568   5.345  17.180  0.00  0.00    +0.000 A 
ATOM     21  C   UNL     1       3.328   4.931  17.673  0.00  0.00    +0.000 A 
ATOM     22  C   UNL     1       2.393   5.864  18.117  0.00  0.00    +0.000 A 
BRANCH  21  23
ATOM     23  S   UNL     1       2.924   3.207  17.768  0.00  0.00    +0.000 S 
ATOM     24  O   UNL     1       1.595   3.036  17.221  0.00  0.00    +0.000 OA
ATOM     25  O   UNL     1       4.055   2.464  17.249  0.00  0.00    +0.000 OA
BRANCH  23  26
ATOM     26  N   UNL     1       2.846   2.940  19.441  0.00  0.00    +0.000 NA
ATOM     27  C   UNL     1       1.581   2.474  20.040  0.00  0.00    +0.000 C 
ATOM     28  C   UNL     1       1.083   3.657  20.847  0.00  0.00    +0.000 C 
ATOM     29  C   UNL     1       2.349   4.332  21.338  0.00  0.00    +0.000 C 
ATOM     30  C   UNL     1       3.438   3.962  20.334  0.00  0.00    +0.000 C 
ENDBRANCH  23  26
ENDBRANCH  21  23
ENDBRANCH   3  17
TORSDOF 4
ENDMDL
MODEL 5
REMARK VINA RESULT:      -8.9      1.647      2.262
REMARK  Name = 
REMARK  4 active torsions:
REMARK  status: ('A' for Active; 'I' for Inactive)
REMARK    1  A    between atoms: C_2  and  C_18
REMARK    2  A    between atoms: N_3  and  C_4
REMARK    3  A    between atoms: C_8  and  S_9
REMARK    4  A    between atoms: S_9  and  N_12
REMARK                            x       y       z     vdW  Elec       q    Type
REMARK                         _______ _______ _______ _____ _____    ______ ____
ROOT
ATOM      1  O   UNL     1       1.495   8.910  17.139  0.00  0.00    +0.000 OA
ATOM      2  C   UNL     1       1.621   8.943  18.349  0.00  0.00    +0.000 C 
ATOM      3  N   UNL     1       2.313   8.050  19.123  0.00  0.00    +0.000 N 
ATOM      4  H   UNL     1       2.508   8.315  20.075  0.00  0.00    +0.000 HD
ENDROOT
BRANCH   2   5
ATOM      5  C   UNL     1       1.057  10.064  19.118  0.00  0.00    +0.000 A 
ATOM      6  C   UNL     1      -0.185   9.798  19.573  0.00  0.00    +0.000 A 
ATOM      7  C   UNL     1      -0.055   9.966  21.057  0.00  0.00    +0.000 A 
ATOM      8  O   UNL     1      -0.360   9.088  21.840  0.00  0.00    +0.000 OA
ATOM      9  N   UNL     1       0.440  11.188  21.453  0.00  0.00    +0.000 N 
ATOM     10  C   UNL     1       0.977  12.037  20.464  0.00  0.00    +0.000 A 
ATOM     11  C   UNL     1       0.617  13.372  20.418  0.00  0.00    +0.000 A 
ATOM     12  C   UNL     1       0.974  14.123  19.301  0.00  0.00    +0.000 A 
ATOM     13  C   UNL     1       1.853  13.592  18.350  0.00  0.00    +0.000 A 
ATOM     14  C   UNL     1       2.203  12.247  18.401  0.00  0.00    +0.000 A 
ATOM     15  C   UNL     1       1.553  11.442  19.328  0.00  0.00    +0.000 A 
ATOM     16  H   UNL     1       0.948  11.109  22.334  0.00  0.00    +0.000 HD
ENDBRANCH   2   5
BRANCH   3  17
ATOM     17  C   UNL     1       2.812   6.808  18.718  0.00  0.00    +0.000 A 
ATOM     18  C   UNL     1       2.413   5.593  19.280  0.00  0.00    +0.000 A 
ATOM     19  C   UNL     1       2.993   4.396  18.865  0.00  0.00    +0.000 A 
ATOM     20  C   UNL     1       3.955   4.411  17.859  0.00  0.00    +0.000 A 
ATOM     21  C   UNL     1       4.304   5.620  17.252  0.00  0.00    +0.000 A 
ATOM     22  C   UNL     1       3.772   6.824  17.709  0.00  0.00    +0.000 A 
BRANCH  21  23
ATOM     23  S   UNL     1       5.413   5.649  15.869  0.00  0.00    +0.000 S 
ATOM     24  O   UNL     1       5.303   4.375  15.191  0.00  0.00    +0.000 OA
ATOM     25  O   UNL     1       5.203   6.898  15.166  0.00  0.00    +0.000 OA
BRANCH  23  26
ATOM     26  N   UNL     1       6.932   5.719  16.619  0.00  0.00    +0.000 NA
ATOM     27  C   UNL     1       7.292   4.697  17.620  0.00  0.00    +0.000 C 
ATOM     28  C   UNL     1       7.312   5.445  18.939  0.00  0.00    +0.000 C 
ATOM     29  C   UNL     1       7.786   6.837  18.571  0.00  0.00    +0.000 C 
ATOM     30  C   UNL     1       7.405   7.036  17.106  0.00  0.00    +0.000 C 
ENDBRANCH  23  26
ENDBRANCH  21  23
ENDBRANCH   3  17
TORSDOF 4
ENDMDL
MODEL 6
REMARK VINA RESULT:      -8.9      2.375      3.621
REMARK  Name = 
REMARK  4 active torsions:
REMARK  status: ('A' for Active; 'I' for Inactive)
REMARK    1  A    between atoms: C_2  and  C_18
REMARK    2  A    between atoms: N_3  and  C_4
REMARK    3  A    between atoms: C_8  and  S_9
REMARK    4  A    between atoms: S_9  and  N_12
REMARK                            x       y       z     vdW  Elec       q    Type
REMARK                         _______ _______ _______ _____ _____    ______ ____
ROOT
ATOM      1  O   UNL     1       1.621   8.204  20.506  0.00  0.00    +0.000 OA
ATOM      2  C   UNL     1       1.398   8.811  19.475  0.00  0.00    +0.000 C 
ATOM      3  N   UNL     1       1.821   8.470  18.218  0.00  0.00    +0.000 N 
ATOM      4  H   UNL     1       1.390   8.941  17.440  0.00  0.00    +0.000 HD
ENDROOT
BRANCH   2   5
ATOM      5  C   UNL     1       0.535  10.003  19.494  0.00  0.00    +0.000 A 
ATOM      6  C   UNL     1       0.519  10.604  20.702  0.00  0.00    +0.000 A 
ATOM      7  C   UNL     1       0.983  11.998  20.402  0.00  0.00    +0.000 A 
ATOM      8  O   UNL     1       1.935  12.502  20.966  0.00  0.00    +0.000 OA
ATOM      9  N   UNL     1       0.248  12.651  19.440  0.00  0.00    +0.000 N 
ATOM     10  C   UNL     1      -0.680  11.898  18.691  0.00  0.00    +0.000 A 
ATOM     11  C   UNL     1      -1.968  12.365  18.502  0.00  0.00    +0.000 A 
ATOM     12  C   UNL     1      -2.920  11.501  17.966  0.00  0.00    +0.000 A 
ATOM     13  C   UNL     1      -2.530  10.264  17.442  0.00  0.00    +0.000 A 
ATOM     14  C   UNL     1      -1.233   9.800  17.644  0.00  0.00    +0.000 A 
ATOM     15  C   UNL     1      -0.406  10.535  18.484  0.00  0.00    +0.000 A 
ATOM     16  H   UNL     1       0.822  13.328  18.937  0.00  0.00    +0.000 HD
ENDBRANCH   2   5
BRANCH   3  17
ATOM     17  C   UNL     1       2.778   7.502  17.895  0.00  0.00    +0.000 A 
ATOM     18  C   UNL     1       4.041   7.805  17.381  0.00  0.00    +0.000 A 
ATOM     19  C   UNL     1       4.925   6.786  17.030  0.00  0.00    +0.000 A 
ATOM     20  C   UNL     1       4.556   5.458  17.224  0.00  0.00    +0.000 A 
ATOM     21  C   UNL     1       3.319   5.161  17.802  0.00  0.00    +0.000 A 
ATOM     22  C   UNL     1       2.409   6.174  18.094  0.00  0.00    +0.000 A 
BRANCH  21  23
ATOM     23  S   UNL     1       2.887   3.487  18.198  0.00  0.00    +0.000 S 
ATOM     24  O   UNL     1       2.157   2.944  17.073  0.00  0.00    +0.000 OA
ATOM     25  O   UNL     1       4.077   2.838  18.709  0.00  0.00    +0.000 OA
BRANCH  23  26
ATOM     26  N   UNL     1       1.803   3.683  19.487  0.00  0.00    +0.000 NA
ATOM     27  C   UNL     1       2.195   4.516  20.640  0.00  0.00    +0.000 C 
ATOM     28  C   UNL     1       2.381   3.531  21.778  0.00  0.00    +0.000 C 
ATOM     29  C   UNL     1       1.358   2.447  21.502  0.00  0.00    +0.000 C 
ATOM     30  C   UNL     1       1.107   2.479  19.996  0.00  0.00    +0.000 C 
ENDBRANCH  23  26
ENDBRANCH  21  23
ENDBRANCH   3  17
TORSDOF 4
ENDMDL
MODEL 7
REMARK VINA RESULT:      -8.9      3.027      8.296
REMARK  Name = 
REMARK  4 active torsions:
REMARK  status: ('A' for Active; 'I' for Inactive)
REMARK    1  A    between atoms: C_2  and  C_18
REMARK    2  A    between atoms: N_3  and  C_4
REMARK    3  A    between atoms: C_8  and  S_9
REMARK    4  A    between atoms: S_9  and  N_12
REMARK                            x       y       z     vdW  Elec       q    Type
REMARK                         _______ _______ _______ _____ _____    ______ ____
ROOT
ATOM      1  O   UNL     1       1.005   5.505  20.656  0.00  0.00    +0.000 OA
ATOM      2  C   UNL     1       1.898   6.104  20.086  0.00  0.00    +0.000 C 
ATOM      3  N   UNL     1       2.175   7.442  20.181  0.00  0.00    +0.000 N 
ATOM      4  H   UNL     1       3.062   7.759  19.824  0.00  0.00    +0.000 HD
ENDROOT
BRANCH   2   5
ATOM      5  C   UNL     1       2.859   5.369  19.247  0.00  0.00    +0.000 A 
ATOM      6  C   UNL     1       3.408   4.321  19.895  0.00  0.00    +0.000 A 
ATOM      7  C   UNL     1       3.060   3.153  19.022  0.00  0.00    +0.000 A 
ATOM      8  O   UNL     1       2.467   2.180  19.445  0.00  0.00    +0.000 OA
ATOM      9  N   UNL     1       3.463   3.277  17.712  0.00  0.00    +0.000 N 
ATOM     10  C   UNL     1       3.931   4.536  17.280  0.00  0.00    +0.000 A 
ATOM     11  C   UNL     1       5.104   4.634  16.556  0.00  0.00    +0.000 A 
ATOM     12  C   UNL     1       5.659   5.894  16.349  0.00  0.00    +0.000 A 
ATOM     13  C   UNL     1       4.936   7.044  16.687  0.00  0.00    +0.000 A 
ATOM     14  C   UNL     1       3.760   6.935  17.422  0.00  0.00    +0.000 A 
ATOM     15  C   UNL     1       3.416   5.681  17.912  0.00  0.00    +0.000 A 
ATOM     16  H   UNL     1       2.840   2.765  17.087  0.00  0.00    +0.000 HD
ENDBRANCH   2   5
BRANCH   3  17
ATOM     17  C   UNL     1       1.360   8.422  20.756  0.00  0.00    +0.000 A 
ATOM     18  C   UNL     1       1.143   8.540  22.130  0.00  0.00    +0.000 A 
ATOM     19  C   UNL     1       0.274   9.508  22.630  0.00  0.00    +0.000 A 
ATOM     20  C   UNL     1      -0.356  10.384  21.753  0.00  0.00    +0.000 A 
ATOM     21  C   UNL     1      -0.085  10.308  20.384  0.00  0.00    +0.000 A 
ATOM     22  C   UNL     1       0.733   9.301  19.877  0.00  0.00    +0.000 A 
BRANCH  21  23
ATOM     23  S   UNL     1      -0.758  11.506  19.263  0.00  0.00    +0.000 S 
ATOM     24  O   UNL     1      -1.360  12.558  20.053  0.00  0.00    +0.000 OA
ATOM     25  O   UNL     1       0.258  11.795  18.271  0.00  0.00    +0.000 OA
BRANCH  23  26
ATOM     26  N   UNL     1      -2.000  10.639  18.501  0.00  0.00    +0.000 NA
ATOM     27  C   UNL     1      -1.712   9.913  17.250  0.00  0.00    +0.000 C 
ATOM     28  C   UNL     1      -2.458  10.685  16.179  0.00  0.00    +0.000 C 
ATOM     29  C   UNL     1      -3.693  11.206  16.889  0.00  0.00    +0.000 C 
ATOM     30  C   UNL     1      -3.321  11.294  18.367  0.00  0.00    +0.000 C 
ENDBRANCH  23  26
ENDBRANCH  21  23
ENDBRANCH   3  17
TORSDOF 4
ENDMDL
MODEL 8
REMARK VINA RESULT:      -8.8      2.527      8.413
REMARK  Name = 
REMARK  4 active torsions:
REMARK  status: ('A' for Active; 'I' for Inactive)
REMARK    1  A    between atoms: C_2  and  C_18
REMARK    2  A    between atoms: N_3  and  C_4
REMARK    3  A    between atoms: C_8  and  S_9
REMARK    4  A    between atoms: S_9  and  N_12
REMARK                            x       y       z     vdW  Elec       q    Type
REMARK                         _______ _______ _______ _____ _____    ______ ____
ROOT
ATOM      1  O   UNL     1       2.476   8.453  17.697  0.00  0.00    +0.000 OA
ATOM      2  C   UNL     1       2.583   7.534  18.488  0.00  0.00    +0.000 C 
ATOM      3  N   UNL     1       1.982   7.437  19.714  0.00  0.00    +0.000 N 
ATOM      4  H   UNL     1       1.991   6.536  20.165  0.00  0.00    +0.000 HD
ENDROOT
BRANCH   2   5
ATOM      5  C   UNL     1       3.367   6.341  18.128  0.00  0.00    +0.000 A 
ATOM      6  C   UNL     1       2.949   5.238  18.783  0.00  0.00    +0.000 A 
ATOM      7  C   UNL     1       2.600   4.289  17.676  0.00  0.00    +0.000 A 
ATOM      8  O   UNL     1       1.504   3.771  17.585  0.00  0.00    +0.000 OA
ATOM      9  N   UNL     1       3.617   4.058  16.778  0.00  0.00    +0.000 N 
ATOM     10  C   UNL     1       4.759   4.882  16.845  0.00  0.00    +0.000 A 
ATOM     11  C   UNL     1       6.025   4.326  16.824  0.00  0.00    +0.000 A 
ATOM     12  C   UNL     1       7.117   5.136  17.127  0.00  0.00    +0.000 A 
ATOM     13  C   UNL     1       6.953   6.521  17.243  0.00  0.00    +0.000 A 
ATOM     14  C   UNL     1       5.675   7.070  17.270  0.00  0.00    +0.000 A 
ATOM     15  C   UNL     1       4.595   6.197  17.315  0.00  0.00    +0.000 A 
ATOM     16  H   UNL     1       3.246   3.840  15.853  0.00  0.00    +0.000 HD
ENDBRANCH   2   5
BRANCH   3  17
ATOM     17  C   UNL     1       1.321   8.460  20.402  0.00  0.00    +0.000 A 
ATOM     18  C   UNL     1       1.332   8.590  21.792  0.00  0.00    +0.000 A 
ATOM     19  C   UNL     1       0.605   9.604  22.414  0.00  0.00    +0.000 A 
ATOM     20  C   UNL     1      -0.110  10.512  21.639  0.00  0.00    +0.000 A 
ATOM     21  C   UNL     1      -0.065  10.419  20.245  0.00  0.00    +0.000 A 
ATOM     22  C   UNL     1       0.609   9.370  19.624  0.00  0.00    +0.000 A 
BRANCH  21  23
ATOM     23  S   UNL     1      -0.843  11.650  19.233  0.00  0.00    +0.000 S 
ATOM     24  O   UNL     1      -1.439  12.631  20.115  0.00  0.00    +0.000 OA
ATOM     25  O   UNL     1       0.104  12.035  18.207  0.00  0.00    +0.000 OA
BRANCH  23  26
ATOM     26  N   UNL     1      -2.093  10.777  18.490  0.00  0.00    +0.000 NA
ATOM     27  C   UNL     1      -1.828  10.076  17.220  0.00  0.00    +0.000 C 
ATOM     28  C   UNL     1      -2.613  10.855  16.183  0.00  0.00    +0.000 C 
ATOM     29  C   UNL     1      -3.836  11.345  16.934  0.00  0.00    +0.000 C 
ATOM     30  C   UNL     1      -3.426  11.415  18.403  0.00  0.00    +0.000 C 
ENDBRANCH  23  26
ENDBRANCH  21  23
ENDBRANCH   3  17
TORSDOF 4
ENDMDL
MODEL 9
REMARK VINA RESULT:      -8.8      2.450      8.326
REMARK  Name = 
REMARK  4 active torsions:
REMARK  status: ('A' for Active; 'I' for Inactive)
REMARK    1  A    between atoms: C_2  and  C_18
REMARK    2  A    between atoms: N_3  and  C_4
REMARK    3  A    between atoms: C_8  and  S_9
REMARK    4  A    between atoms: S_9  and  N_12
REMARK                            x       y       z     vdW  Elec       q    Type
REMARK                         _______ _______ _______ _____ _____    ______ ____
ROOT
ATOM      1  O   UNL     1       1.350   5.062  19.107  0.00  0.00    +0.000 OA
ATOM      2  C   UNL     1       2.424   5.630  19.189  0.00  0.00    +0.000 C 
ATOM      3  N   UNL     1       2.668   6.830  19.801  0.00  0.00    +0.000 N 
ATOM      4  H   UNL     1       3.630   7.075  19.973  0.00  0.00    +0.000 HD
ENDROOT
BRANCH   2   5
ATOM      5  C   UNL     1       3.639   4.989  18.658  0.00  0.00    +0.000 A 
ATOM      6  C   UNL     1       3.996   3.902  19.371  0.00  0.00    +0.000 A 
ATOM      7  C   UNL     1       4.006   2.805  18.349  0.00  0.00    +0.000 A 
ATOM      8  O   UNL     1       3.355   1.787  18.482  0.00  0.00    +0.000 OA
ATOM      9  N   UNL     1       4.806   3.048  17.256  0.00  0.00    +0.000 N 
ATOM     10  C   UNL     1       5.328   4.348  17.094  0.00  0.00    +0.000 A 
ATOM     11  C   UNL     1       6.667   4.532  16.802  0.00  0.00    +0.000 A 
ATOM     12  C   UNL     1       7.199   5.817  16.882  0.00  0.00    +0.000 A 
ATOM     13  C   UNL     1       6.352   6.918  17.048  0.00  0.00    +0.000 A 
ATOM     14  C   UNL     1       5.007   6.722  17.347  0.00  0.00    +0.000 A 
ATOM     15  C   UNL     1       4.583   5.425  17.605  0.00  0.00    +0.000 A 
ATOM     16  H   UNL     1       4.444   2.578  16.426  0.00  0.00    +0.000 HD
ENDBRANCH   2   5
BRANCH   3  17
ATOM     17  C   UNL     1       1.712   7.749  20.245  0.00  0.00    +0.000 A 
ATOM     18  C   UNL     1       0.845   7.507  21.312  0.00  0.00    +0.000 A 
ATOM     19  C   UNL     1      -0.122   8.447  21.666  0.00  0.00    +0.000 A 
ATOM     20  C   UNL     1      -0.199   9.649  20.969  0.00  0.00    +0.000 A 
ATOM     21  C   UNL     1       0.714   9.917  19.946  0.00  0.00    +0.000 A 
ATOM     22  C   UNL     1       1.638   8.953  19.549  0.00  0.00    +0.000 A 
BRANCH  21  23
ATOM     23  S   UNL     1       0.733  11.498  19.144  0.00  0.00    +0.000 S 
ATOM     24  O   UNL     1       0.370  12.494  20.128  0.00  0.00    +0.000 OA
ATOM     25  O   UNL     1       1.971  11.593  18.396  0.00  0.00    +0.000 OA
BRANCH  23  26
ATOM     26  N   UNL     1      -0.540  11.362  18.033  0.00  0.00    +0.000 NA
ATOM     27  C   UNL     1      -1.727  12.224  18.185  0.00  0.00    +0.000 C 
ATOM     28  C   UNL     1      -2.835  11.278  18.606  0.00  0.00    +0.000 C 
ATOM     29  C   UNL     1      -2.504   9.979  17.898  0.00  0.00    +0.000 C 
ATOM     30  C   UNL     1      -0.995  10.002  17.664  0.00  0.00    +0.000 C 
ENDBRANCH  23  26
ENDBRANCH  21  23
ENDBRANCH   3  17
TORSDOF 4
ENDMDL
