MODEL 1
REMARK VINA RESULT:      -9.5      0.000      0.000
REMARK  Name = 
REMARK  4 active torsions:
REMARK  status: ('A' for Active; 'I' for Inactive)
REMARK    1  A    between atoms: C_2  and  C_3
REMARK    2  A    between atoms: C_3  and  C_4
REMARK    3  A    between atoms: C_4  and  C_5
REMARK    4  A    between atoms: C_4  and  C_11
REMARK                            x       y       z     vdW  Elec       q    Type
REMARK                         _______ _______ _______ _____ _____    ______ ____
ROOT
ATOM      1  C   UNL     1       2.481   7.397  17.518  0.00  0.00    +0.000 C 
ENDROOT
BRANCH   1   3
ATOM      2  O   UNL     1       2.395   9.759  17.390  0.00  0.00    +0.000 OA
ATOM      3  C   UNL     1       2.040   8.762  18.017  0.00  0.00    +0.000 C 
ATOM      4  N   UNL     1       1.384   8.773  19.229  0.00  0.00    +0.000 N 
ATOM      5  C   UNL     1       0.812   9.938  19.704  0.00  0.00    +0.000 A 
ATOM      6  N   UNL     1       0.671  11.087  19.073  0.00  0.00    +0.000 NA
ATOM      7  N   UNL     1      -0.043  11.955  19.865  0.00  0.00    +0.000 NA
ATOM      8  C   UNL     1      -0.316  11.331  20.986  0.00  0.00    +0.000 A 
ATOM      9  C   UNL     1      -1.023  11.725  22.154  0.00  0.00    +0.000 A 
ATOM     10  C   UNL     1      -1.115  10.875  23.195  0.00  0.00    +0.000 A 
ATOM     11  C   UNL     1      -0.496   9.557  23.154  0.00  0.00    +0.000 A 
ATOM     12  C   UNL     1       0.154   9.172  22.040  0.00  0.00    +0.000 A 
ATOM     13  N   UNL     1       0.229  10.054  20.957  0.00  0.00    +0.000 N 
ATOM     14  H   UNL     1       1.307   7.931  19.777  0.00  0.00    +0.000 HD
ENDBRANCH   1   3
BRANCH   1  15
ATOM     15  C   UNL     1       3.234   6.471  18.500  0.00  0.00    +0.000 C 
BRANCH  15  16
ATOM     16  C   UNL     1       2.356   5.307  18.948  0.00  0.00    +0.000 A 
ATOM     17  C   UNL     1       1.982   5.150  20.290  0.00  0.00    +0.000 A 
ATOM     18  C   UNL     1       1.249   4.033  20.699  0.00  0.00    +0.000 A 
ATOM     19  C   UNL     1       0.874   3.063  19.773  0.00  0.00    +0.000 A 
ATOM     20  C   UNL     1       1.216   3.216  18.432  0.00  0.00    +0.000 A 
ATOM     21  C   UNL     1       1.947   4.333  18.020  0.00  0.00    +0.000 A 
ENDBRANCH  15  16
BRANCH  15  22
ATOM     22  C   UNL     1       4.618   6.037  17.983  0.00  0.00    +0.000 A 
ATOM     23  C   UNL     1       5.573   5.405  18.801  0.00  0.00    +0.000 A 
ATOM     24  C   UNL     1       6.773   4.917  18.276  0.00  0.00    +0.000 A 
ATOM     25  C   UNL     1       7.054   5.066  16.923  0.00  0.00    +0.000 A 
ATOM     26  C   UNL     1       6.143   5.719  16.100  0.00  0.00    +0.000 A 
ATOM     27  C   UNL     1       4.934   6.197  16.622  0.00  0.00    +0.000 A 
ENDBRANCH  15  22
ENDBRANCH   1  15
TORSDOF 4
ENDMDL
MODEL 2
REMARK VINA RESULT:      -9.5      0.412      1.013
REMARK  Name = 
REMARK  4 active torsions:
REMARK  status: ('A' for Active; 'I' for Inactive)
REMARK    1  A    between atoms: C_2  and  C_3
REMARK    2  A    between atoms: C_3  and  C_4
REMARK    3  A    between atoms: C_4  and  C_5
REMARK    4  A    between atoms: C_4  and  C_11
REMARK                            x       y       z     vdW  Elec       q    Type
REMARK                         _______ _______ _______ _____ _____    ______ ____
ROOT
ATOM      1  C   UNL     1       2.563   7.394  17.591  0.00  0.00    +0.000 C 
ENDROOT
BRANCH   1   3
ATOM      2  O   UNL     1       2.239   9.724  17.328  0.00  0.00    +0.000 OA
ATOM      3  C   UNL     1       2.008   8.739  18.028  0.00  0.00    +0.000 C 
ATOM      4  N   UNL     1       1.403   8.762  19.266  0.00  0.00    +0.000 N 
ATOM      5  C   UNL     1       0.737   9.895  19.696  0.00  0.00    +0.000 A 
ATOM      6  N   UNL     1       0.459  10.983  19.006  0.00  0.00    +0.000 NA
ATOM      7  N   UNL     1      -0.306  11.826  19.777  0.00  0.00    +0.000 NA
ATOM      8  C   UNL     1      -0.472  11.250  20.944  0.00  0.00    +0.000 A 
ATOM      9  C   UNL     1      -1.169  11.647  22.117  0.00  0.00    +0.000 A 
ATOM     10  C   UNL     1      -1.135  10.859  23.210  0.00  0.00    +0.000 A 
ATOM     11  C   UNL     1      -0.391   9.607  23.218  0.00  0.00    +0.000 A 
ATOM     12  C   UNL     1       0.250   9.217  22.101  0.00  0.00    +0.000 A 
ATOM     13  N   UNL     1       0.195  10.033  20.965  0.00  0.00    +0.000 N 
ATOM     14  H   UNL     1       1.430   7.954  19.865  0.00  0.00    +0.000 HD
ENDBRANCH   1   3
BRANCH   1  15
ATOM     15  C   UNL     1       3.232   6.499  18.659  0.00  0.00    +0.000 C 
BRANCH  15  16
ATOM     16  C   UNL     1       2.356   5.298  19.003  0.00  0.00    +0.000 A 
ATOM     17  C   UNL     1       1.878   5.092  20.305  0.00  0.00    +0.000 A 
ATOM     18  C   UNL     1       1.149   3.944  20.622  0.00  0.00    +0.000 A 
ATOM     19  C   UNL     1       0.882   2.989  19.644  0.00  0.00    +0.000 A 
ATOM     20  C   UNL     1       1.329   3.190  18.340  0.00  0.00    +0.000 A 
ATOM     21  C   UNL     1       2.055   4.339  18.019  0.00  0.00    +0.000 A 
ENDBRANCH  15  16
BRANCH  15  22
ATOM     22  C   UNL     1       4.684   6.126  18.314  0.00  0.00    +0.000 A 
ATOM     23  C   UNL     1       5.326   6.569  17.142  0.00  0.00    +0.000 A 
ATOM     24  C   UNL     1       6.681   6.313  16.912  0.00  0.00    +0.000 A 
ATOM     25  C   UNL     1       7.421   5.592  17.842  0.00  0.00    +0.000 A 
ATOM     26  C   UNL     1       6.803   5.112  18.991  0.00  0.00    +0.000 A 
ATOM     27  C   UNL     1       5.448   5.379  19.229  0.00  0.00    +0.000 A 
ENDBRANCH  15  22
ENDBRANCH   1  15
TORSDOF 4
ENDMDL
MODEL 3
REMARK VINA RESULT:      -9.3      3.834      7.998
REMARK  Name = 
REMARK  4 active torsions:
REMARK  status: ('A' for Active; 'I' for Inactive)
REMARK    1  A    between atoms: C_2  and  C_3
REMARK    2  A    between atoms: C_3  and  C_4
REMARK    3  A    between atoms: C_4  and  C_5
REMARK    4  A    between atoms: C_4  and  C_11
REMARK                            x       y       z     vdW  Elec       q    Type
REMARK                         _______ _______ _______ _____ _____    ______ ____
ROOT
ATOM      1  C   UNL     1       4.789   5.547  18.755  0.00  0.00    +0.000 C 
ENDROOT
BRANCH   1   3
ATOM      2  O   UNL     1       6.493   6.776  17.665  0.00  0.00    +0.000 OA
ATOM      3  C   UNL     1       5.708   5.833  17.580  0.00  0.00    +0.000 C 
ATOM      4  N   UNL     1       5.480   5.082  16.447  0.00  0.00    +0.000 N 
ATOM      5  C   UNL     1       6.349   5.156  15.374  0.00  0.00    +0.000 A 
ATOM      6  N   UNL     1       7.512   5.775  15.313  0.00  0.00    +0.000 NA
ATOM      7  N   UNL     1       8.102   5.515  14.099  0.00  0.00    +0.000 NA
ATOM      8  C   UNL     1       7.280   4.752  13.418  0.00  0.00    +0.000 A 
ATOM      9  C   UNL     1       7.362   4.174  12.122  0.00  0.00    +0.000 A 
ATOM     10  C   UNL     1       6.327   3.453  11.648  0.00  0.00    +0.000 A 
ATOM     11  C   UNL     1       5.117   3.257  12.436  0.00  0.00    +0.000 A 
ATOM     12  C   UNL     1       5.046   3.783  13.672  0.00  0.00    +0.000 A 
ATOM     13  N   UNL     1       6.132   4.516  14.163  0.00  0.00    +0.000 N 
ATOM     14  H   UNL     1       4.686   4.466  16.391  0.00  0.00    +0.000 HD
ENDBRANCH   1   3
BRANCH   1  15
ATOM     15  C   UNL     1       3.263   5.585  18.512  0.00  0.00    +0.000 C 
BRANCH  15  16
ATOM     16  C   UNL     1       2.545   4.515  19.329  0.00  0.00    +0.000 A 
ATOM     17  C   UNL     1       1.380   3.894  18.857  0.00  0.00    +0.000 A 
ATOM     18  C   UNL     1       0.688   2.979  19.653  0.00  0.00    +0.000 A 
ATOM     19  C   UNL     1       1.153   2.665  20.927  0.00  0.00    +0.000 A 
ATOM     20  C   UNL     1       2.323   3.253  21.402  0.00  0.00    +0.000 A 
ATOM     21  C   UNL     1       3.019   4.167  20.608  0.00  0.00    +0.000 A 
ENDBRANCH  15  16
BRANCH  15  22
ATOM     22  C   UNL     1       2.659   6.991  18.671  0.00  0.00    +0.000 A 
ATOM     23  C   UNL     1       2.581   7.911  17.609  0.00  0.00    +0.000 A 
ATOM     24  C   UNL     1       1.921   9.136  17.752  0.00  0.00    +0.000 A 
ATOM     25  C   UNL     1       1.340   9.476  18.968  0.00  0.00    +0.000 A 
ATOM     26  C   UNL     1       1.433   8.601  20.043  0.00  0.00    +0.000 A 
ATOM     27  C   UNL     1       2.083   7.368  19.898  0.00  0.00    +0.000 A 
ENDBRANCH  15  22
ENDBRANCH   1  15
TORSDOF 4
ENDMDL
MODEL 4
REMARK VINA RESULT:      -9.2      3.806      7.978
REMARK  Name = 
REMARK  4 active torsions:
REMARK  status: ('A' for Active; 'I' for Inactive)
REMARK    1  A    between atoms: C_2  and  C_3
REMARK    2  A    between atoms: C_3  and  C_4
REMARK    3  A    between atoms: C_4  and  C_5
REMARK    4  A    between atoms: C_4  and  C_11
REMARK                            x       y       z     vdW  Elec       q    Type
REMARK                         _______ _______ _______ _____ _____    ______ ____
ROOT
ATOM      1  C   UNL     1       4.696   5.853  18.644  0.00  0.00    +0.000 C 
ENDROOT
BRANCH   1   3
ATOM      2  O   UNL     1       6.497   6.931  17.550  0.00  0.00    +0.000 OA
ATOM      3  C   UNL     1       5.659   6.034  17.483  0.00  0.00    +0.000 C 
ATOM      4  N   UNL     1       5.412   5.253  16.374  0.00  0.00    +0.000 N 
ATOM      5  C   UNL     1       6.308   5.230  15.322  0.00  0.00    +0.000 A 
ATOM      6  N   UNL     1       7.508   5.773  15.268  0.00  0.00    +0.000 NA
ATOM      7  N   UNL     1       8.110   5.428  14.081  0.00  0.00    +0.000 NA
ATOM      8  C   UNL     1       7.259   4.689  13.409  0.00  0.00    +0.000 A 
ATOM      9  C   UNL     1       7.336   4.054  12.140  0.00  0.00    +0.000 A 
ATOM     10  C   UNL     1       6.270   3.378  11.668  0.00  0.00    +0.000 A 
ATOM     11  C   UNL     1       5.032   3.288  12.431  0.00  0.00    +0.000 A 
ATOM     12  C   UNL     1       4.965   3.868  13.643  0.00  0.00    +0.000 A 
ATOM     13  N   UNL     1       6.082   4.553  14.133  0.00  0.00    +0.000 N 
ATOM     14  H   UNL     1       4.583   4.683  16.323  0.00  0.00    +0.000 HD
ENDBRANCH   1   3
BRANCH   1  15
ATOM     15  C   UNL     1       3.180   5.865  18.342  0.00  0.00    +0.000 C 
BRANCH  15  16
ATOM     16  C   UNL     1       2.479   4.668  18.978  0.00  0.00    +0.000 A 
ATOM     17  C   UNL     1       2.858   4.186  20.239  0.00  0.00    +0.000 A 
ATOM     18  C   UNL     1       2.265   3.038  20.770  0.00  0.00    +0.000 A 
ATOM     19  C   UNL     1       1.282   2.361  20.053  0.00  0.00    +0.000 A 
ATOM     20  C   UNL     1       0.876   2.840  18.810  0.00  0.00    +0.000 A 
ATOM     21  C   UNL     1       1.465   3.989  18.278  0.00  0.00    +0.000 A 
ENDBRANCH  15  16
BRANCH  15  22
ATOM     22  C   UNL     1       2.509   7.213  18.659  0.00  0.00    +0.000 A 
ATOM     23  C   UNL     1       2.280   8.198  17.680  0.00  0.00    +0.000 A 
ATOM     24  C   UNL     1       1.563   9.363  17.973  0.00  0.00    +0.000 A 
ATOM     25  C   UNL     1       1.076   9.577  19.257  0.00  0.00    +0.000 A 
ATOM     26  C   UNL     1       1.320   8.636  20.251  0.00  0.00    +0.000 A 
ATOM     27  C   UNL     1       2.026   7.463  19.956  0.00  0.00    +0.000 A 
ENDBRANCH  15  22
ENDBRANCH   1  15
TORSDOF 4
ENDMDL
MODEL 5
REMARK VINA RESULT:      -9.2      0.683      1.433
REMARK  Name = 
REMARK  4 active torsions:
REMARK  status: ('A' for Active; 'I' for Inactive)
REMARK    1  A    between atoms: C_2  and  C_3
REMARK    2  A    between atoms: C_3  and  C_4
REMARK    3  A    between atoms: C_4  and  C_5
REMARK    4  A    between atoms: C_4  and  C_11
REMARK                            x       y       z     vdW  Elec       q    Type
REMARK                         _______ _______ _______ _____ _____    ______ ____
ROOT
ATOM      1  C   UNL     1       2.551   6.699  17.696  0.00  0.00    +0.000 C 
ENDROOT
BRANCH   1   3
ATOM      2  O   UNL     1       2.618   9.042  17.368  0.00  0.00    +0.000 OA
ATOM      3  C   UNL     1       2.197   8.127  18.073  0.00  0.00    +0.000 C 
ATOM      4  N   UNL     1       1.541   8.282  19.276  0.00  0.00    +0.000 N 
ATOM      5  C   UNL     1       1.044   9.518  19.646  0.00  0.00    +0.000 A 
ATOM      6  N   UNL     1       0.978  10.616  18.919  0.00  0.00    +0.000 NA
ATOM      7  N   UNL     1       0.319  11.592  19.629  0.00  0.00    +0.000 NA
ATOM      8  C   UNL     1       0.005  11.083  20.797  0.00  0.00    +0.000 A 
ATOM      9  C   UNL     1      -0.679  11.619  21.921  0.00  0.00    +0.000 A 
ATOM     10  C   UNL     1      -0.827  10.868  23.031  0.00  0.00    +0.000 A 
ATOM     11  C   UNL     1      -0.294   9.515  23.105  0.00  0.00    +0.000 A 
ATOM     12  C   UNL     1       0.333   8.996  22.034  0.00  0.00    +0.000 A 
ATOM     13  N   UNL     1       0.467   9.777  20.880  0.00  0.00    +0.000 N 
ATOM     14  H   UNL     1       1.409   7.497  19.892  0.00  0.00    +0.000 HD
ENDBRANCH   1   3
BRANCH   1  15
ATOM     15  C   UNL     1       3.426   5.882  18.673  0.00  0.00    +0.000 C 
BRANCH  15  16
ATOM     16  C   UNL     1       2.613   4.794  19.368  0.00  0.00    +0.000 A 
ATOM     17  C   UNL     1       1.704   3.997  18.659  0.00  0.00    +0.000 A 
ATOM     18  C   UNL     1       0.906   3.064  19.324  0.00  0.00    +0.000 A 
ATOM     19  C   UNL     1       1.009   2.909  20.704  0.00  0.00    +0.000 A 
ATOM     20  C   UNL     1       1.925   3.676  21.421  0.00  0.00    +0.000 A 
ATOM     21  C   UNL     1       2.726   4.608  20.758  0.00  0.00    +0.000 A 
ENDBRANCH  15  16
BRANCH  15  22
ATOM     22  C   UNL     1       4.728   5.367  18.035  0.00  0.00    +0.000 A 
ATOM     23  C   UNL     1       4.799   4.926  16.699  0.00  0.00    +0.000 A 
ATOM     24  C   UNL     1       6.019   4.575  16.112  0.00  0.00    +0.000 A 
ATOM     25  C   UNL     1       7.193   4.640  16.852  0.00  0.00    +0.000 A 
ATOM     26  C   UNL     1       7.146   5.038  18.183  0.00  0.00    +0.000 A 
ATOM     27  C   UNL     1       5.927   5.401  18.770  0.00  0.00    +0.000 A 
ENDBRANCH  15  22
ENDBRANCH   1  15
TORSDOF 4
ENDMDL
MODEL 6
REMARK VINA RESULT:      -9.0      3.950      8.078
REMARK  Name = 
REMARK  4 active torsions:
REMARK  status: ('A' for Active; 'I' for Inactive)
REMARK    1  A    between atoms: C_2  and  C_3
REMARK    2  A    between atoms: C_3  and  C_4
REMARK    3  A    between atoms: C_4  and  C_5
REMARK    4  A    between atoms: C_4  and  C_11
REMARK                            x       y       z     vdW  Elec       q    Type
REMARK                         _______ _______ _______ _____ _____    ______ ____
ROOT
ATOM      1  C   UNL     1       4.806   6.050  18.353  0.00  0.00    +0.000 C 
ENDROOT
BRANCH   1   3
ATOM      2  O   UNL     1       6.580   7.064  17.158  0.00  0.00    +0.000 OA
ATOM      3  C   UNL     1       5.744   6.161  17.164  0.00  0.00    +0.000 C 
ATOM      4  N   UNL     1       5.479   5.310  16.112  0.00  0.00    +0.000 N 
ATOM      5  C   UNL     1       6.355   5.224  15.046  0.00  0.00    +0.000 A 
ATOM      6  N   UNL     1       7.551   5.768  14.933  0.00  0.00    +0.000 NA
ATOM      7  N   UNL     1       8.130   5.351  13.758  0.00  0.00    +0.000 NA
ATOM      8  C   UNL     1       7.270   4.568  13.152  0.00  0.00    +0.000 A 
ATOM      9  C   UNL     1       7.325   3.855  11.924  0.00  0.00    +0.000 A 
ATOM     10  C   UNL     1       6.253   3.146  11.517  0.00  0.00    +0.000 A 
ATOM     11  C   UNL     1       5.031   3.100  12.309  0.00  0.00    +0.000 A 
ATOM     12  C   UNL     1       4.985   3.755  13.483  0.00  0.00    +0.000 A 
ATOM     13  N   UNL     1       6.108   4.474  13.906  0.00  0.00    +0.000 N 
ATOM     14  H   UNL     1       4.653   4.736  16.113  0.00  0.00    +0.000 HD
ENDBRANCH   1   3
BRANCH   1  15
ATOM     15  C   UNL     1       3.291   5.918  18.076  0.00  0.00    +0.000 C 
BRANCH  15  16
ATOM     16  C   UNL     1       2.765   4.554  18.512  0.00  0.00    +0.000 A 
ATOM     17  C   UNL     1       1.516   4.082  18.084  0.00  0.00    +0.000 A 
ATOM     18  C   UNL     1       1.012   2.869  18.560  0.00  0.00    +0.000 A 
ATOM     19  C   UNL     1       1.750   2.109  19.463  0.00  0.00    +0.000 A 
ATOM     20  C   UNL     1       3.003   2.551  19.880  0.00  0.00    +0.000 A 
ATOM     21  C   UNL     1       3.511   3.762  19.404  0.00  0.00    +0.000 A 
ENDBRANCH  15  16
BRANCH  15  22
ATOM     22  C   UNL     1       2.470   7.100  18.622  0.00  0.00    +0.000 A 
ATOM     23  C   UNL     1       2.105   7.212  19.977  0.00  0.00    +0.000 A 
ATOM     24  C   UNL     1       1.461   8.354  20.466  0.00  0.00    +0.000 A 
ATOM     25  C   UNL     1       1.152   9.401  19.606  0.00  0.00    +0.000 A 
ATOM     26  C   UNL     1       1.470   9.300  18.257  0.00  0.00    +0.000 A 
ATOM     27  C   UNL     1       2.125   8.163  17.767  0.00  0.00    +0.000 A 
ENDBRANCH  15  22
ENDBRANCH   1  15
TORSDOF 4
ENDMDL
MODEL 7
REMARK VINA RESULT:      -9.0      1.230      3.759
REMARK  Name = 
REMARK  4 active torsions:
REMARK  status: ('A' for Active; 'I' for Inactive)
REMARK    1  A    between atoms: C_2  and  C_3
REMARK    2  A    between atoms: C_3  and  C_4
REMARK    3  A    between atoms: C_4  and  C_5
REMARK    4  A    between atoms: C_4  and  C_11
REMARK                            x       y       z     vdW  Elec       q    Type
REMARK                         _______ _______ _______ _____ _____    ______ ____
ROOT
ATOM      1  C   UNL     1       2.759   7.345  19.010  0.00  0.00    +0.000 C 
ENDROOT
BRANCH   1   3
ATOM      2  O   UNL     1       1.881   8.943  17.500  0.00  0.00    +0.000 OA
ATOM      3  C   UNL     1       1.859   8.516  18.653  0.00  0.00    +0.000 C 
ATOM      4  N   UNL     1       1.187   9.096  19.707  0.00  0.00    +0.000 N 
ATOM      5  C   UNL     1       0.233  10.070  19.476  0.00  0.00    +0.000 A 
ATOM      6  N   UNL     1      -0.262  10.461  18.319  0.00  0.00    +0.000 NA
ATOM      7  N   UNL     1      -1.262  11.378  18.540  0.00  0.00    +0.000 NA
ATOM      8  C   UNL     1      -1.355  11.554  19.837  0.00  0.00    +0.000 A 
ATOM      9  C   UNL     1      -2.204  12.368  20.634  0.00  0.00    +0.000 A 
ATOM     10  C   UNL     1      -2.046  12.385  21.972  0.00  0.00    +0.000 A 
ATOM     11  C   UNL     1      -1.015  11.587  22.622  0.00  0.00    +0.000 A 
ATOM     12  C   UNL     1      -0.225  10.797  21.872  0.00  0.00    +0.000 A 
ATOM     13  N   UNL     1      -0.408  10.773  20.485  0.00  0.00    +0.000 N 
ATOM     14  H   UNL     1       1.376   8.812  20.654  0.00  0.00    +0.000 HD
ENDBRANCH   1   3
BRANCH   1  15
ATOM     15  C   UNL     1       2.529   6.000  18.282  0.00  0.00    +0.000 C 
BRANCH  15  16
ATOM     16  C   UNL     1       3.745   5.606  17.451  0.00  0.00    +0.000 A 
ATOM     17  C   UNL     1       4.609   6.572  16.915  0.00  0.00    +0.000 A 
ATOM     18  C   UNL     1       5.668   6.198  16.086  0.00  0.00    +0.000 A 
ATOM     19  C   UNL     1       5.884   4.856  15.785  0.00  0.00    +0.000 A 
ATOM     20  C   UNL     1       5.051   3.881  16.328  0.00  0.00    +0.000 A 
ATOM     21  C   UNL     1       3.992   4.251  17.161  0.00  0.00    +0.000 A 
ENDBRANCH  15  16
BRANCH  15  22
ATOM     22  C   UNL     1       2.031   4.884  19.217  0.00  0.00    +0.000 A 
ATOM     23  C   UNL     1       1.218   3.824  18.772  0.00  0.00    +0.000 A 
ATOM     24  C   UNL     1       0.879   2.762  19.615  0.00  0.00    +0.000 A 
ATOM     25  C   UNL     1       1.331   2.744  20.930  0.00  0.00    +0.000 A 
ATOM     26  C   UNL     1       2.105   3.796  21.405  0.00  0.00    +0.000 A 
ATOM     27  C   UNL     1       2.456   4.855  20.557  0.00  0.00    +0.000 A 
ENDBRANCH  15  22
ENDBRANCH   1  15
TORSDOF 4
ENDMDL
MODEL 8
REMARK VINA RESULT:      -8.9      0.932      3.780
REMARK  Name = 
REMARK  4 active torsions:
REMARK  status: ('A' for Active; 'I' for Inactive)
REMARK    1  A    between atoms: C_2  and  C_3
REMARK    2  A    between atoms: C_3  and  C_4
REMARK    3  A    between atoms: C_4  and  C_5
REMARK    4  A    between atoms: C_4  and  C_11
REMARK                            x       y       z     vdW  Elec       q    Type
REMARK                         _______ _______ _______ _____ _____    ______ ____
ROOT
ATOM      1  C   UNL     1       3.151   7.203  18.783  0.00  0.00    +0.000 C 
ENDROOT
BRANCH   1   3
ATOM      2  O   UNL     1       2.192   8.737  17.258  0.00  0.00    +0.000 OA
ATOM      3  C   UNL     1       2.201   8.331  18.418  0.00  0.00    +0.000 C 
ATOM      4  N   UNL     1       1.522   8.905  19.472  0.00  0.00    +0.000 N 
ATOM      5  C   UNL     1       0.527   9.836  19.237  0.00  0.00    +0.000 A 
ATOM      6  N   UNL     1       0.002  10.186  18.080  0.00  0.00    +0.000 NA
ATOM      7  N   UNL     1      -1.030  11.068  18.298  0.00  0.00    +0.000 NA
ATOM      8  C   UNL     1      -1.112  11.264  19.593  0.00  0.00    +0.000 A 
ATOM      9  C   UNL     1      -1.981  12.059  20.387  0.00  0.00    +0.000 A 
ATOM     10  C   UNL     1      -1.806  12.106  21.723  0.00  0.00    +0.000 A 
ATOM     11  C   UNL     1      -0.737  11.361  22.373  0.00  0.00    +0.000 A 
ATOM     12  C   UNL     1       0.073  10.589  21.626  0.00  0.00    +0.000 A 
ATOM     13  N   UNL     1      -0.127  10.532  20.242  0.00  0.00    +0.000 N 
ATOM     14  H   UNL     1       1.735   8.645  20.421  0.00  0.00    +0.000 HD
ENDBRANCH   1   3
BRANCH   1  15
ATOM     15  C   UNL     1       3.079   5.895  17.963  0.00  0.00    +0.000 C 
BRANCH  15  16
ATOM     16  C   UNL     1       4.471   5.409  17.572  0.00  0.00    +0.000 A 
ATOM     17  C   UNL     1       5.452   5.150  18.540  0.00  0.00    +0.000 A 
ATOM     18  C   UNL     1       6.747   4.787  18.162  0.00  0.00    +0.000 A 
ATOM     19  C   UNL     1       7.078   4.671  16.815  0.00  0.00    +0.000 A 
ATOM     20  C   UNL     1       6.109   4.901  15.841  0.00  0.00    +0.000 A 
ATOM     21  C   UNL     1       4.813   5.261  16.216  0.00  0.00    +0.000 A 
ENDBRANCH  15  16
BRANCH  15  22
ATOM     22  C   UNL     1       2.209   4.811  18.624  0.00  0.00    +0.000 A 
ATOM     23  C   UNL     1       1.757   3.671  17.933  0.00  0.00    +0.000 A 
ATOM     24  C   UNL     1       1.068   2.647  18.591  0.00  0.00    +0.000 A 
ATOM     25  C   UNL     1       0.801   2.748  19.951  0.00  0.00    +0.000 A 
ATOM     26  C   UNL     1       1.206   3.880  20.649  0.00  0.00    +0.000 A 
ATOM     27  C   UNL     1       1.907   4.901  19.995  0.00  0.00    +0.000 A 
ENDBRANCH  15  22
ENDBRANCH   1  15
TORSDOF 4
ENDMDL
MODEL 9
REMARK VINA RESULT:      -8.9      1.007      1.115
REMARK  Name = 
REMARK  4 active torsions:
REMARK  status: ('A' for Active; 'I' for Inactive)
REMARK    1  A    between atoms: C_2  and  C_3
REMARK    2  A    between atoms: C_3  and  C_4
REMARK    3  A    between atoms: C_4  and  C_5
REMARK    4  A    between atoms: C_4  and  C_11
REMARK                            x       y       z     vdW  Elec       q    Type
REMARK                         _______ _______ _______ _____ _____    ______ ____
ROOT
ATOM      1  C   UNL     1       2.632   6.535  17.901  0.00  0.00    +0.000 C 
ENDROOT
BRANCH   1   3
ATOM      2  O   UNL     1       2.592   8.852  17.416  0.00  0.00    +0.000 OA
ATOM      3  C   UNL     1       2.223   7.970  18.190  0.00  0.00    +0.000 C 
ATOM      4  N   UNL     1       1.581   8.178  19.392  0.00  0.00    +0.000 N 
ATOM      5  C   UNL     1       1.036   9.414  19.687  0.00  0.00    +0.000 A 
ATOM      6  N   UNL     1       0.912  10.457  18.890  0.00  0.00    +0.000 NA
ATOM      7  N   UNL     1       0.223  11.450  19.546  0.00  0.00    +0.000 NA
ATOM      8  C   UNL     1      -0.050  11.009  20.751  0.00  0.00    +0.000 A 
ATOM      9  C   UNL     1      -0.737  11.591  21.850  0.00  0.00    +0.000 A 
ATOM     10  C   UNL     1      -0.834  10.912  23.010  0.00  0.00    +0.000 A 
ATOM     11  C   UNL     1      -0.242   9.590  23.165  0.00  0.00    +0.000 A 
ATOM     12  C   UNL     1       0.389   9.026  22.118  0.00  0.00    +0.000 A 
ATOM     13  N   UNL     1       0.470   9.732  20.912  0.00  0.00    +0.000 N 
ATOM     14  H   UNL     1       1.492   7.432  20.061  0.00  0.00    +0.000 HD
ENDBRANCH   1   3
BRANCH   1  15
ATOM     15  C   UNL     1       3.633   5.856  18.863  0.00  0.00    +0.000 C 
BRANCH  15  16
ATOM     16  C   UNL     1       2.982   4.696  19.612  0.00  0.00    +0.000 A 
ATOM     17  C   UNL     1       1.644   4.755  20.027  0.00  0.00    +0.000 A 
ATOM     18  C   UNL     1       1.088   3.722  20.785  0.00  0.00    +0.000 A 
ATOM     19  C   UNL     1       1.857   2.614  21.132  0.00  0.00    +0.000 A 
ATOM     20  C   UNL     1       3.181   2.528  20.706  0.00  0.00    +0.000 A 
ATOM     21  C   UNL     1       3.738   3.558  19.946  0.00  0.00    +0.000 A 
ENDBRANCH  15  16
BRANCH  15  22
ATOM     22  C   UNL     1       4.965   5.484  18.188  0.00  0.00    +0.000 A 
ATOM     23  C   UNL     1       6.208   5.607  18.837  0.00  0.00    +0.000 A 
ATOM     24  C   UNL     1       7.389   5.151  18.242  0.00  0.00    +0.000 A 
ATOM     25  C   UNL     1       7.355   4.580  16.975  0.00  0.00    +0.000 A 
ATOM     26  C   UNL     1       6.145   4.480  16.298  0.00  0.00    +0.000 A 
ATOM     27  C   UNL     1       4.960   4.924  16.898  0.00  0.00    +0.000 A 
ENDBRANCH  15  22
ENDBRANCH   1  15
TORSDOF 4
ENDMDL
