MODEL 1
REMARK VINA RESULT:      -9.1      0.000      0.000
REMARK  Name = 
REMARK  6 active torsions:
REMARK  status: ('A' for Active; 'I' for Inactive)
REMARK    1  A    between atoms: C_4  and  C_5
REMARK    2  A    between atoms: C_5  and  N_6
REMARK    3  A    between atoms: N_6  and  C_7
REMARK    4  A    between atoms: N_6  and  C_13
REMARK    5  A    between atoms: C_7  and  C_8
REMARK    6  A    between atoms: C_15  and  C_16
REMARK                            x       y       z     vdW  Elec       q    Type
REMARK                         _______ _______ _______ _____ _____    ______ ____
ROOT
ATOM      1  N   UNL     1       5.356   4.803  16.726  0.00  0.00    +0.000 N 
ENDROOT
BRANCH   1   2
ATOM      2  C   UNL     1       4.176   4.962  17.463  0.00  0.00    +0.000 A 
ATOM      3  N   UNL     1       3.688   6.211  17.693  0.00  0.00    +0.000 NA
ATOM      4  C   UNL     1       2.604   6.367  18.505  0.00  0.00    +0.000 A 
ATOM      5  N   UNL     1       1.960   5.365  19.127  0.00  0.00    +0.000 NA
ATOM      6  C   UNL     1       2.465   4.162  18.884  0.00  0.00    +0.000 A 
ATOM      7  C   UNL     1       3.540   3.889  18.057  0.00  0.00    +0.000 A 
ATOM      8  C   UNL     1       3.880   2.434  18.157  0.00  0.00    +0.000 C 
ATOM      9  C   UNL     1       2.589   1.839  18.741  0.00  0.00    +0.000 C 
ATOM     10  C   UNL     1       1.968   2.936  19.600  0.00  0.00    +0.000 C 
BRANCH   4  11
ATOM     11  C   UNL     1       2.091   7.722  18.774  0.00  0.00    +0.000 A 
ATOM     12  C   UNL     1       1.543   8.085  20.018  0.00  0.00    +0.000 A 
ATOM     13  C   UNL     1       1.055   9.371  20.247  0.00  0.00    +0.000 A 
ATOM     14  C   UNL     1       1.121  10.287  19.212  0.00  0.00    +0.000 A 
ATOM     15  N   UNL     1       1.638  10.003  18.003  0.00  0.00    +0.000 NA
ATOM     16  C   UNL     1       2.106   8.737  17.818  0.00  0.00    +0.000 A 
ENDBRANCH   4  11
ENDBRANCH   1   2
BRANCH   1  17
ATOM     17  C   UNL     1       5.385   3.744  15.705  0.00  0.00    +0.000 C 
BRANCH  17  21
ATOM     18  C   UNL     1       7.256   4.225  11.848  0.00  0.00    +0.000 A 
ATOM     19  C   UNL     1       7.707   5.003  12.913  0.00  0.00    +0.000 A 
ATOM     20  C   UNL     1       7.036   4.979  14.145  0.00  0.00    +0.000 A 
ATOM     21  C   UNL     1       5.921   4.151  14.333  0.00  0.00    +0.000 A 
ATOM     22  C   UNL     1       5.419   3.458  13.212  0.00  0.00    +0.000 A 
ATOM     23  C   UNL     1       6.086   3.486  11.984  0.00  0.00    +0.000 A 
ENDBRANCH  17  21
ENDBRANCH   1  17
BRANCH   1  24
ATOM     24  C   UNL     1       6.636   5.014  17.444  0.00  0.00    +0.000 C 
BRANCH  24  25
ATOM     25  C   UNL     1       7.212   6.378  17.764  0.00  0.00    +0.000 A 
ATOM     26  C   UNL     1       8.084   6.798  18.798  0.00  0.00    +0.000 A 
ATOM     27  C   UNL     1       8.458   8.076  18.450  0.00  0.00    +0.000 A 
ATOM     28  N   UNL     1       7.726   8.396  17.347  0.00  0.00    +0.000 N 
ATOM     29  N   UNL     1       6.950   7.392  16.918  0.00  0.00    +0.000 NA
ATOM     30  H   UNL     1       7.728   9.263  16.817  0.00  0.00    +0.000 HD
ENDBRANCH  24  25
ENDBRANCH   1  24
TORSDOF 6
ENDMDL
MODEL 2
REMARK VINA RESULT:      -9.0      1.662      7.131
REMARK  Name = 
REMARK  6 active torsions:
REMARK  status: ('A' for Active; 'I' for Inactive)
REMARK    1  A    between atoms: C_4  and  C_5
REMARK    2  A    between atoms: C_5  and  N_6
REMARK    3  A    between atoms: N_6  and  C_7
REMARK    4  A    between atoms: N_6  and  C_13
REMARK    5  A    between atoms: C_7  and  C_8
REMARK    6  A    between atoms: C_15  and  C_16
REMARK                            x       y       z     vdW  Elec       q    Type
REMARK                         _______ _______ _______ _____ _____    ______ ____
ROOT
ATOM      1  N   UNL     1       3.524   5.391  17.781  0.00  0.00    +0.000 N 
ENDROOT
BRANCH   1   2
ATOM      2  C   UNL     1       4.816   5.251  17.259  0.00  0.00    +0.000 A 
ATOM      3  N   UNL     1       4.982   4.960  15.940  0.00  0.00    +0.000 NA
ATOM      4  C   UNL     1       6.235   4.715  15.462  0.00  0.00    +0.000 A 
ATOM      5  N   UNL     1       7.356   4.724  16.202  0.00  0.00    +0.000 NA
ATOM      6  C   UNL     1       7.156   5.007  17.484  0.00  0.00    +0.000 A 
ATOM      7  C   UNL     1       5.936   5.300  18.066  0.00  0.00    +0.000 A 
ATOM      8  C   UNL     1       6.117   5.428  19.548  0.00  0.00    +0.000 C 
ATOM      9  C   UNL     1       7.631   5.659  19.671  0.00  0.00    +0.000 C 
ATOM     10  C   UNL     1       8.268   4.927  18.493  0.00  0.00    +0.000 C 
BRANCH   4  11
ATOM     11  C   UNL     1       6.411   4.373  14.039  0.00  0.00    +0.000 A 
ATOM     12  C   UNL     1       5.565   3.470  13.371  0.00  0.00    +0.000 A 
ATOM     13  C   UNL     1       5.757   3.154  12.027  0.00  0.00    +0.000 A 
ATOM     14  C   UNL     1       6.811   3.755  11.361  0.00  0.00    +0.000 A 
ATOM     15  N   UNL     1       7.652   4.630  11.942  0.00  0.00    +0.000 NA
ATOM     16  C   UNL     1       7.430   4.914  13.256  0.00  0.00    +0.000 A 
ENDBRANCH   4  11
ENDBRANCH   1   2
BRANCH   1  17
ATOM     17  C   UNL     1       2.613   4.241  17.665  0.00  0.00    +0.000 C 
BRANCH  17  21
ATOM     18  C   UNL     1       1.933   2.654  21.617  0.00  0.00    +0.000 A 
ATOM     19  C   UNL     1       3.187   2.481  21.032  0.00  0.00    +0.000 A 
ATOM     20  C   UNL     1       3.407   2.857  19.699  0.00  0.00    +0.000 A 
ATOM     21  C   UNL     1       2.379   3.439  18.944  0.00  0.00    +0.000 A 
ATOM     22  C   UNL     1       1.094   3.504  19.521  0.00  0.00    +0.000 A 
ATOM     23  C   UNL     1       0.875   3.125  20.848  0.00  0.00    +0.000 A 
ENDBRANCH  17  21
ENDBRANCH   1  17
BRANCH   1  24
ATOM     24  C   UNL     1       2.877   6.717  17.641  0.00  0.00    +0.000 C 
BRANCH  24  25
ATOM     25  C   UNL     1       2.341   7.524  18.806  0.00  0.00    +0.000 A 
ATOM     26  C   UNL     1       1.711   8.792  18.844  0.00  0.00    +0.000 A 
ATOM     27  C   UNL     1       1.224   8.907  20.126  0.00  0.00    +0.000 A 
ATOM     28  N   UNL     1       1.676   7.814  20.802  0.00  0.00    +0.000 N 
ATOM     29  N   UNL     1       2.370   6.966  20.031  0.00  0.00    +0.000 NA
ATOM     30  H   UNL     1       1.524   7.565  21.775  0.00  0.00    +0.000 HD
ENDBRANCH  24  25
ENDBRANCH   1  24
TORSDOF 6
ENDMDL
MODEL 3
REMARK VINA RESULT:      -8.9      1.963      7.439
REMARK  Name = 
REMARK  6 active torsions:
REMARK  status: ('A' for Active; 'I' for Inactive)
REMARK    1  A    between atoms: C_4  and  C_5
REMARK    2  A    between atoms: C_5  and  N_6
REMARK    3  A    between atoms: N_6  and  C_7
REMARK    4  A    between atoms: N_6  and  C_13
REMARK    5  A    between atoms: C_7  and  C_8
REMARK    6  A    between atoms: C_15  and  C_16
REMARK                            x       y       z     vdW  Elec       q    Type
REMARK                         _______ _______ _______ _____ _____    ______ ____
ROOT
ATOM      1  N   UNL     1       2.109   7.658  19.188  0.00  0.00    +0.000 N 
ENDROOT
BRANCH   1   2
ATOM      2  C   UNL     1       2.659   6.410  18.870  0.00  0.00    +0.000 A 
ATOM      3  N   UNL     1       3.644   6.325  17.935  0.00  0.00    +0.000 NA
ATOM      4  C   UNL     1       4.096   5.099  17.548  0.00  0.00    +0.000 A 
ATOM      5  N   UNL     1       3.633   3.927  18.015  0.00  0.00    +0.000 NA
ATOM      6  C   UNL     1       2.671   4.047  18.922  0.00  0.00    +0.000 A 
ATOM      7  C   UNL     1       2.161   5.238  19.405  0.00  0.00    +0.000 A 
ATOM      8  C   UNL     1       1.002   4.945  20.309  0.00  0.00    +0.000 C 
ATOM      9  C   UNL     1       1.231   3.467  20.660  0.00  0.00    +0.000 C 
ATOM     10  C   UNL     1       1.934   2.850  19.455  0.00  0.00    +0.000 C 
BRANCH   4  11
ATOM     11  C   UNL     1       5.144   5.007  16.516  0.00  0.00    +0.000 A 
ATOM     12  C   UNL     1       5.039   4.143  15.411  0.00  0.00    +0.000 A 
ATOM     13  C   UNL     1       6.047   4.065  14.452  0.00  0.00    +0.000 A 
ATOM     14  C   UNL     1       7.166   4.865  14.617  0.00  0.00    +0.000 A 
ATOM     15  N   UNL     1       7.324   5.714  15.648  0.00  0.00    +0.000 NA
ATOM     16  C   UNL     1       6.315   5.763  16.563  0.00  0.00    +0.000 A 
ENDBRANCH   4  11
ENDBRANCH   1   2
BRANCH   1  17
ATOM     17  C   UNL     1       2.194   8.720  18.172  0.00  0.00    +0.000 C 
BRANCH  17  21
ATOM     18  C   UNL     1      -0.966  11.540  18.989  0.00  0.00    +0.000 A 
ATOM     19  C   UNL     1      -1.284  10.344  18.347  0.00  0.00    +0.000 A 
ATOM     20  C   UNL     1      -0.271   9.464  17.939  0.00  0.00    +0.000 A 
ATOM     21  C   UNL     1       1.075   9.760  18.197  0.00  0.00    +0.000 A 
ATOM     22  C   UNL     1       1.377  11.022  18.748  0.00  0.00    +0.000 A 
ATOM     23  C   UNL     1       0.367  11.899  19.150  0.00  0.00    +0.000 A 
ENDBRANCH  17  21
ENDBRANCH   1  17
BRANCH   1  24
ATOM     24  C   UNL     1       2.249   8.122  20.589  0.00  0.00    +0.000 C 
BRANCH  24  25
ATOM     25  C   UNL     1       1.108   8.686  21.411  0.00  0.00    +0.000 A 
ATOM     26  C   UNL     1      -0.270   8.361  21.431  0.00  0.00    +0.000 A 
ATOM     27  C   UNL     1      -0.772   9.013  22.534  0.00  0.00    +0.000 A 
ATOM     28  N   UNL     1       0.250   9.768  23.024  0.00  0.00    +0.000 N 
ATOM     29  N   UNL     1       1.398   9.602  22.353  0.00  0.00    +0.000 NA
ATOM     30  H   UNL     1       0.247  10.391  23.826  0.00  0.00    +0.000 HD
ENDBRANCH  24  25
ENDBRANCH   1  24
TORSDOF 6
ENDMDL
MODEL 4
REMARK VINA RESULT:      -8.7      1.515      7.112
REMARK  Name = 
REMARK  6 active torsions:
REMARK  status: ('A' for Active; 'I' for Inactive)
REMARK    1  A    between atoms: C_4  and  C_5
REMARK    2  A    between atoms: C_5  and  N_6
REMARK    3  A    between atoms: N_6  and  C_7
REMARK    4  A    between atoms: N_6  and  C_13
REMARK    5  A    between atoms: C_7  and  C_8
REMARK    6  A    between atoms: C_15  and  C_16
REMARK                            x       y       z     vdW  Elec       q    Type
REMARK                         _______ _______ _______ _____ _____    ______ ____
ROOT
ATOM      1  N   UNL     1       3.751   6.148  17.659  0.00  0.00    +0.000 N 
ENDROOT
BRANCH   1   2
ATOM      2  C   UNL     1       4.994   5.719  17.179  0.00  0.00    +0.000 A 
ATOM      3  N   UNL     1       5.128   5.367  15.872  0.00  0.00    +0.000 NA
ATOM      4  C   UNL     1       6.309   4.845  15.436  0.00  0.00    +0.000 A 
ATOM      5  N   UNL     1       7.385   4.628  16.211  0.00  0.00    +0.000 NA
ATOM      6  C   UNL     1       7.218   4.978  17.481  0.00  0.00    +0.000 A 
ATOM      7  C   UNL     1       6.077   5.542  18.019  0.00  0.00    +0.000 A 
ATOM      8  C   UNL     1       6.242   5.663  19.504  0.00  0.00    +0.000 C 
ATOM      9  C   UNL     1       7.766   5.563  19.669  0.00  0.00    +0.000 C 
ATOM     10  C   UNL     1       8.259   4.683  18.525  0.00  0.00    +0.000 C 
BRANCH   4  11
ATOM     11  C   UNL     1       6.444   4.439  14.025  0.00  0.00    +0.000 A 
ATOM     12  C   UNL     1       7.438   4.968  13.183  0.00  0.00    +0.000 A 
ATOM     13  C   UNL     1       7.541   4.578  11.849  0.00  0.00    +0.000 A 
ATOM     14  C   UNL     1       6.631   3.651  11.370  0.00  0.00    +0.000 A 
ATOM     15  N   UNL     1       5.662   3.105  12.125  0.00  0.00    +0.000 NA
ATOM     16  C   UNL     1       5.595   3.511  13.424  0.00  0.00    +0.000 A 
ENDBRANCH   4  11
ENDBRANCH   1   2
BRANCH   1  17
ATOM     17  C   UNL     1       2.639   5.184  17.631  0.00  0.00    +0.000 C 
BRANCH  17  21
ATOM     18  C   UNL     1       1.381   3.036  21.154  0.00  0.00    +0.000 A 
ATOM     19  C   UNL     1       2.198   4.156  21.307  0.00  0.00    +0.000 A 
ATOM     20  C   UNL     1       2.742   4.799  20.185  0.00  0.00    +0.000 A 
ATOM     21  C   UNL     1       2.449   4.343  18.892  0.00  0.00    +0.000 A 
ATOM     22  C   UNL     1       1.712   3.147  18.766  0.00  0.00    +0.000 A 
ATOM     23  C   UNL     1       1.174   2.506  19.885  0.00  0.00    +0.000 A 
ENDBRANCH  17  21
ENDBRANCH   1  17
BRANCH   1  24
ATOM     24  C   UNL     1       3.367   7.553  17.383  0.00  0.00    +0.000 C 
BRANCH  24  25
ATOM     25  C   UNL     1       2.326   8.316  18.176  0.00  0.00    +0.000 A 
ATOM     26  C   UNL     1       1.876   8.159  19.510  0.00  0.00    +0.000 A 
ATOM     27  C   UNL     1       1.111   9.275  19.760  0.00  0.00    +0.000 A 
ATOM     28  N   UNL     1       1.032   9.951  18.580  0.00  0.00    +0.000 N 
ATOM     29  N   UNL     1       1.746   9.385  17.598  0.00  0.00    +0.000 NA
ATOM     30  H   UNL     1       0.541  10.818  18.380  0.00  0.00    +0.000 HD
ENDBRANCH  24  25
ENDBRANCH   1  24
TORSDOF 6
ENDMDL
MODEL 5
REMARK VINA RESULT:      -8.7      1.697      7.424
REMARK  Name = 
REMARK  6 active torsions:
REMARK  status: ('A' for Active; 'I' for Inactive)
REMARK    1  A    between atoms: C_4  and  C_5
REMARK    2  A    between atoms: C_5  and  N_6
REMARK    3  A    between atoms: N_6  and  C_7
REMARK    4  A    between atoms: N_6  and  C_13
REMARK    5  A    between atoms: C_7  and  C_8
REMARK    6  A    between atoms: C_15  and  C_16
REMARK                            x       y       z     vdW  Elec       q    Type
REMARK                         _______ _______ _______ _____ _____    ______ ____
ROOT
ATOM      1  N   UNL     1       3.528   5.386  17.953  0.00  0.00    +0.000 N 
ENDROOT
BRANCH   1   2
ATOM      2  C   UNL     1       4.792   5.229  17.372  0.00  0.00    +0.000 A 
ATOM      3  N   UNL     1       4.893   4.929  16.049  0.00  0.00    +0.000 NA
ATOM      4  C   UNL     1       6.119   4.666  15.514  0.00  0.00    +0.000 A 
ATOM      5  N   UNL     1       7.273   4.665  16.202  0.00  0.00    +0.000 NA
ATOM      6  C   UNL     1       7.137   4.957  17.490  0.00  0.00    +0.000 A 
ATOM      7  C   UNL     1       5.949   5.267  18.126  0.00  0.00    +0.000 A 
ATOM      8  C   UNL     1       6.200   5.399  19.597  0.00  0.00    +0.000 C 
ATOM      9  C   UNL     1       7.720   5.613  19.649  0.00  0.00    +0.000 C 
ATOM     10  C   UNL     1       8.293   4.868  18.447  0.00  0.00    +0.000 C 
BRANCH   4  11
ATOM     11  C   UNL     1       6.225   4.317  14.086  0.00  0.00    +0.000 A 
ATOM     12  C   UNL     1       5.247   3.552  13.424  0.00  0.00    +0.000 A 
ATOM     13  C   UNL     1       5.373   3.225  12.075  0.00  0.00    +0.000 A 
ATOM     14  C   UNL     1       6.495   3.672  11.398  0.00  0.00    +0.000 A 
ATOM     15  N   UNL     1       7.462   4.411  11.973  0.00  0.00    +0.000 NA
ATOM     16  C   UNL     1       7.301   4.711  13.292  0.00  0.00    +0.000 A 
ENDBRANCH   4  11
ENDBRANCH   1   2
BRANCH   1  17
ATOM     17  C   UNL     1       3.426   6.248  19.142  0.00  0.00    +0.000 C 
BRANCH  17  21
ATOM     18  C   UNL     1       1.083   9.866  18.977  0.00  0.00    +0.000 A 
ATOM     19  C   UNL     1       1.053   9.100  20.141  0.00  0.00    +0.000 A 
ATOM     20  C   UNL     1       1.687   7.850  20.187  0.00  0.00    +0.000 A 
ATOM     21  C   UNL     1       2.385   7.364  19.073  0.00  0.00    +0.000 A 
ATOM     22  C   UNL     1       2.310   8.105  17.875  0.00  0.00    +0.000 A 
ATOM     23  C   UNL     1       1.675   9.349  17.830  0.00  0.00    +0.000 A 
ENDBRANCH  17  21
ENDBRANCH   1  17
BRANCH   1  24
ATOM     24  C   UNL     1       2.634   4.204  17.962  0.00  0.00    +0.000 C 
BRANCH  24  25
ATOM     25  C   UNL     1       2.155   3.515  19.223  0.00  0.00    +0.000 A 
ATOM     26  C   UNL     1       2.864   2.785  20.208  0.00  0.00    +0.000 A 
ATOM     27  C   UNL     1       1.965   2.609  21.235  0.00  0.00    +0.000 A 
ATOM     28  N   UNL     1       0.778   3.103  20.786  0.00  0.00    +0.000 N 
ATOM     29  N   UNL     1       0.859   3.644  19.563  0.00  0.00    +0.000 NA
ATOM     30  H   UNL     1      -0.116   3.135  21.268  0.00  0.00    +0.000 HD
ENDBRANCH  24  25
ENDBRANCH   1  24
TORSDOF 6
ENDMDL
MODEL 6
REMARK VINA RESULT:      -8.7      1.600      7.152
REMARK  Name = 
REMARK  6 active torsions:
REMARK  status: ('A' for Active; 'I' for Inactive)
REMARK    1  A    between atoms: C_4  and  C_5
REMARK    2  A    between atoms: C_5  and  N_6
REMARK    3  A    between atoms: N_6  and  C_7
REMARK    4  A    between atoms: N_6  and  C_13
REMARK    5  A    between atoms: C_7  and  C_8
REMARK    6  A    between atoms: C_15  and  C_16
REMARK                            x       y       z     vdW  Elec       q    Type
REMARK                         _______ _______ _______ _____ _____    ______ ____
ROOT
ATOM      1  N   UNL     1       3.686   6.198  17.716  0.00  0.00    +0.000 N 
ENDROOT
BRANCH   1   2
ATOM      2  C   UNL     1       4.914   5.746  17.219  0.00  0.00    +0.000 A 
ATOM      3  N   UNL     1       5.019   5.375  15.914  0.00  0.00    +0.000 NA
ATOM      4  C   UNL     1       6.184   4.830  15.464  0.00  0.00    +0.000 A 
ATOM      5  N   UNL     1       7.272   4.609  16.222  0.00  0.00    +0.000 NA
ATOM      6  C   UNL     1       7.133   4.979  17.490  0.00  0.00    +0.000 A 
ATOM      7  C   UNL     1       6.010   5.566  18.042  0.00  0.00    +0.000 A 
ATOM      8  C   UNL     1       6.204   5.705  19.521  0.00  0.00    +0.000 C 
ATOM      9  C   UNL     1       7.729   5.586  19.660  0.00  0.00    +0.000 C 
ATOM     10  C   UNL     1       8.189   4.684  18.519  0.00  0.00    +0.000 C 
BRANCH   4  11
ATOM     11  C   UNL     1       6.288   4.404  14.057  0.00  0.00    +0.000 A 
ATOM     12  C   UNL     1       5.309   3.606  13.439  0.00  0.00    +0.000 A 
ATOM     13  C   UNL     1       5.433   3.206  12.109  0.00  0.00    +0.000 A 
ATOM     14  C   UNL     1       6.554   3.616  11.408  0.00  0.00    +0.000 A 
ATOM     15  N   UNL     1       7.521   4.384  11.940  0.00  0.00    +0.000 NA
ATOM     16  C   UNL     1       7.363   4.755  13.242  0.00  0.00    +0.000 A 
ENDBRANCH   4  11
ENDBRANCH   1   2
BRANCH   1  17
ATOM     17  C   UNL     1       2.523   5.306  17.577  0.00  0.00    +0.000 C 
BRANCH  17  21
ATOM     18  C   UNL     1       1.760   3.126  21.220  0.00  0.00    +0.000 A 
ATOM     19  C   UNL     1       1.064   2.768  20.066  0.00  0.00    +0.000 A 
ATOM     20  C   UNL     1       1.178   3.538  18.899  0.00  0.00    +0.000 A 
ATOM     21  C   UNL     1       2.017   4.661  18.866  0.00  0.00    +0.000 A 
ATOM     22  C   UNL     1       2.623   5.065  20.073  0.00  0.00    +0.000 A 
ATOM     23  C   UNL     1       2.505   4.300  21.236  0.00  0.00    +0.000 A 
ENDBRANCH  17  21
ENDBRANCH   1  17
BRANCH   1  24
ATOM     24  C   UNL     1       3.385   7.642  17.567  0.00  0.00    +0.000 C 
BRANCH  24  25
ATOM     25  C   UNL     1       2.245   8.346  18.274  0.00  0.00    +0.000 A 
ATOM     26  C   UNL     1       1.853   8.341  19.635  0.00  0.00    +0.000 A 
ATOM     27  C   UNL     1       0.915   9.343  19.738  0.00  0.00    +0.000 A 
ATOM     28  N   UNL     1       0.703   9.792  18.469  0.00  0.00    +0.000 N 
ATOM     29  N   UNL     1       1.484   9.195  17.559  0.00  0.00    +0.000 NA
ATOM     30  H   UNL     1       0.069  10.521  18.156  0.00  0.00    +0.000 HD
ENDBRANCH  24  25
ENDBRANCH   1  24
TORSDOF 6
ENDMDL
MODEL 7
REMARK VINA RESULT:      -8.7      1.684      7.171
REMARK  Name = 
REMARK  6 active torsions:
REMARK  status: ('A' for Active; 'I' for Inactive)
REMARK    1  A    between atoms: C_4  and  C_5
REMARK    2  A    between atoms: C_5  and  N_6
REMARK    3  A    between atoms: N_6  and  C_7
REMARK    4  A    between atoms: N_6  and  C_13
REMARK    5  A    between atoms: C_7  and  C_8
REMARK    6  A    between atoms: C_15  and  C_16
REMARK                            x       y       z     vdW  Elec       q    Type
REMARK                         _______ _______ _______ _____ _____    ______ ____
ROOT
ATOM      1  N   UNL     1       3.607   5.808  17.721  0.00  0.00    +0.000 N 
ENDROOT
BRANCH   1   2
ATOM      2  C   UNL     1       4.883   5.526  17.218  0.00  0.00    +0.000 A 
ATOM      3  N   UNL     1       5.033   5.192  15.908  0.00  0.00    +0.000 NA
ATOM      4  C   UNL     1       6.259   4.809  15.451  0.00  0.00    +0.000 A 
ATOM      5  N   UNL     1       7.367   4.719  16.206  0.00  0.00    +0.000 NA
ATOM      6  C   UNL     1       7.183   5.049  17.479  0.00  0.00    +0.000 A 
ATOM      7  C   UNL     1       5.994   5.477  18.039  0.00  0.00    +0.000 A 
ATOM      8  C   UNL     1       6.170   5.617  19.520  0.00  0.00    +0.000 C 
ATOM      9  C   UNL     1       7.698   5.695  19.659  0.00  0.00    +0.000 C 
ATOM     10  C   UNL     1       8.269   4.877  18.505  0.00  0.00    +0.000 C 
BRANCH   4  11
ATOM     11  C   UNL     1       6.415   4.422  14.038  0.00  0.00    +0.000 A 
ATOM     12  C   UNL     1       5.538   3.526  13.402  0.00  0.00    +0.000 A 
ATOM     13  C   UNL     1       5.711   3.165  12.066  0.00  0.00    +0.000 A 
ATOM     14  C   UNL     1       6.778   3.715  11.377  0.00  0.00    +0.000 A 
ATOM     15  N   UNL     1       7.649   4.580  11.926  0.00  0.00    +0.000 NA
ATOM     16  C   UNL     1       7.445   4.908  13.233  0.00  0.00    +0.000 A 
ENDBRANCH   4  11
ENDBRANCH   1   2
BRANCH   1  17
ATOM     17  C   UNL     1       2.660   4.688  17.847  0.00  0.00    +0.000 C 
BRANCH  17  21
ATOM     18  C   UNL     1       2.001   2.460  21.481  0.00  0.00    +0.000 A 
ATOM     19  C   UNL     1       1.014   3.343  21.048  0.00  0.00    +0.000 A 
ATOM     20  C   UNL     1       1.245   4.187  19.952  0.00  0.00    +0.000 A 
ATOM     21  C   UNL     1       2.462   4.135  19.257  0.00  0.00    +0.000 A 
ATOM     22  C   UNL     1       3.483   3.313  19.779  0.00  0.00    +0.000 A 
ATOM     23  C   UNL     1       3.252   2.476  20.873  0.00  0.00    +0.000 A 
ENDBRANCH  17  21
ENDBRANCH   1  17
BRANCH   1  24
ATOM     24  C   UNL     1       2.996   7.101  17.330  0.00  0.00    +0.000 C 
BRANCH  24  25
ATOM     25  C   UNL     1       2.332   8.052  18.305  0.00  0.00    +0.000 A 
ATOM     26  C   UNL     1       1.727   9.316  18.101  0.00  0.00    +0.000 A 
ATOM     27  C   UNL     1       1.082   9.595  19.285  0.00  0.00    +0.000 A 
ATOM     28  N   UNL     1       1.424   8.596  20.146  0.00  0.00    +0.000 N 
ATOM     29  N   UNL     1       2.193   7.655  19.584  0.00  0.00    +0.000 NA
ATOM     30  H   UNL     1       1.145   8.474  21.115  0.00  0.00    +0.000 HD
ENDBRANCH  24  25
ENDBRANCH   1  24
TORSDOF 6
ENDMDL
MODEL 8
REMARK VINA RESULT:      -8.6      0.915      1.293
REMARK  Name = 
REMARK  6 active torsions:
REMARK  status: ('A' for Active; 'I' for Inactive)
REMARK    1  A    between atoms: C_4  and  C_5
REMARK    2  A    between atoms: C_5  and  N_6
REMARK    3  A    between atoms: N_6  and  C_7
REMARK    4  A    between atoms: N_6  and  C_13
REMARK    5  A    between atoms: C_7  and  C_8
REMARK    6  A    between atoms: C_15  and  C_16
REMARK                            x       y       z     vdW  Elec       q    Type
REMARK                         _______ _______ _______ _____ _____    ______ ____
ROOT
ATOM      1  N   UNL     1       5.143   4.682  16.451  0.00  0.00    +0.000 N 
ENDROOT
BRANCH   1   2
ATOM      2  C   UNL     1       4.054   4.891  17.306  0.00  0.00    +0.000 A 
ATOM      3  N   UNL     1       3.614   6.157  17.541  0.00  0.00    +0.000 NA
ATOM      4  C   UNL     1       2.629   6.363  18.460  0.00  0.00    +0.000 A 
ATOM      5  N   UNL     1       2.041   5.397  19.185  0.00  0.00    +0.000 NA
ATOM      6  C   UNL     1       2.496   4.176  18.933  0.00  0.00    +0.000 A 
ATOM      7  C   UNL     1       3.469   3.852  18.005  0.00  0.00    +0.000 A 
ATOM      8  C   UNL     1       3.794   2.395  18.121  0.00  0.00    +0.000 C 
ATOM      9  C   UNL     1       2.565   1.847  18.863  0.00  0.00    +0.000 C 
ATOM     10  C   UNL     1       2.060   2.987  19.744  0.00  0.00    +0.000 C 
BRANCH   4  11
ATOM     11  C   UNL     1       2.171   7.737  18.733  0.00  0.00    +0.000 A 
ATOM     12  C   UNL     1       1.598   8.108  19.963  0.00  0.00    +0.000 A 
ATOM     13  C   UNL     1       1.163   9.412  20.196  0.00  0.00    +0.000 A 
ATOM     14  C   UNL     1       1.308  10.338  19.178  0.00  0.00    +0.000 A 
ATOM     15  N   UNL     1       1.852  10.047  17.983  0.00  0.00    +0.000 NA
ATOM     16  C   UNL     1       2.266   8.763  17.794  0.00  0.00    +0.000 A 
ENDBRANCH   4  11
ENDBRANCH   1   2
BRANCH   1  17
ATOM     17  C   UNL     1       4.895   3.956  15.195  0.00  0.00    +0.000 C 
BRANCH  17  21
ATOM     18  C   UNL     1       7.658   4.823  11.998  0.00  0.00    +0.000 A 
ATOM     19  C   UNL     1       6.791   3.740  11.859  0.00  0.00    +0.000 A 
ATOM     20  C   UNL     1       5.976   3.340  12.929  0.00  0.00    +0.000 A 
ATOM     21  C   UNL     1       6.000   4.040  14.143  0.00  0.00    +0.000 A 
ATOM     22  C   UNL     1       6.961   5.061  14.295  0.00  0.00    +0.000 A 
ATOM     23  C   UNL     1       7.774   5.456  13.230  0.00  0.00    +0.000 A 
ENDBRANCH  17  21
ENDBRANCH   1  17
BRANCH   1  24
ATOM     24  C   UNL     1       6.456   4.407  17.081  0.00  0.00    +0.000 C 
BRANCH  24  25
ATOM     25  C   UNL     1       7.283   5.452  17.802  0.00  0.00    +0.000 A 
ATOM     26  C   UNL     1       7.539   6.810  17.489  0.00  0.00    +0.000 A 
ATOM     27  C   UNL     1       8.142   7.325  18.614  0.00  0.00    +0.000 A 
ATOM     28  N   UNL     1       8.329   6.272  19.458  0.00  0.00    +0.000 N 
ATOM     29  N   UNL     1       7.833   5.121  18.985  0.00  0.00    +0.000 NA
ATOM     30  H   UNL     1       8.756   6.270  20.380  0.00  0.00    +0.000 HD
ENDBRANCH  24  25
ENDBRANCH   1  24
TORSDOF 6
ENDMDL
MODEL 9
REMARK VINA RESULT:      -8.4      1.033      1.328
REMARK  Name = 
REMARK  6 active torsions:
REMARK  status: ('A' for Active; 'I' for Inactive)
REMARK    1  A    between atoms: C_4  and  C_5
REMARK    2  A    between atoms: C_5  and  N_6
REMARK    3  A    between atoms: N_6  and  C_7
REMARK    4  A    between atoms: N_6  and  C_13
REMARK    5  A    between atoms: C_7  and  C_8
REMARK    6  A    between atoms: C_15  and  C_16
REMARK                            x       y       z     vdW  Elec       q    Type
REMARK                         _______ _______ _______ _____ _____    ______ ____
ROOT
ATOM      1  N   UNL     1       4.945   5.487  16.366  0.00  0.00    +0.000 N 
ENDROOT
BRANCH   1   2
ATOM      2  C   UNL     1       3.914   5.438  17.311  0.00  0.00    +0.000 A 
ATOM      3  N   UNL     1       3.378   6.595  17.786  0.00  0.00    +0.000 NA
ATOM      4  C   UNL     1       2.454   6.544  18.786  0.00  0.00    +0.000 A 
ATOM      5  N   UNL     1       2.019   5.416  19.374  0.00  0.00    +0.000 NA
ATOM      6  C   UNL     1       2.566   4.307  18.890  0.00  0.00    +0.000 A 
ATOM      7  C   UNL     1       3.486   4.244  17.860  0.00  0.00    +0.000 A 
ATOM      8  C   UNL     1       3.955   2.829  17.706  0.00  0.00    +0.000 C 
ATOM      9  C   UNL     1       2.847   2.041  18.422  0.00  0.00    +0.000 C 
ATOM     10  C   UNL     1       2.310   2.963  19.513  0.00  0.00    +0.000 C 
BRANCH   4  11
ATOM     11  C   UNL     1       1.893   7.799  19.318  0.00  0.00    +0.000 A 
ATOM     12  C   UNL     1       1.648   8.918  18.502  0.00  0.00    +0.000 A 
ATOM     13  C   UNL     1       1.126  10.099  19.028  0.00  0.00    +0.000 A 
ATOM     14  C   UNL     1       0.855  10.143  20.385  0.00  0.00    +0.000 A 
ATOM     15  N   UNL     1       1.062   9.106  21.216  0.00  0.00    +0.000 NA
ATOM     16  C   UNL     1       1.571   7.970  20.664  0.00  0.00    +0.000 A 
ENDBRANCH   4  11
ENDBRANCH   1   2
BRANCH   1  17
ATOM     17  C   UNL     1       5.341   4.225  15.721  0.00  0.00    +0.000 C 
BRANCH  17  21
ATOM     18  C   UNL     1       6.983   3.825  11.753  0.00  0.00    +0.000 A 
ATOM     19  C   UNL     1       7.636   4.648  12.668  0.00  0.00    +0.000 A 
ATOM     20  C   UNL     1       7.062   4.915  13.920  0.00  0.00    +0.000 A 
ATOM     21  C   UNL     1       5.838   4.335  14.281  0.00  0.00    +0.000 A 
ATOM     22  C   UNL     1       5.146   3.596  13.299  0.00  0.00    +0.000 A 
ATOM     23  C   UNL     1       5.717   3.334  12.051  0.00  0.00    +0.000 A 
ENDBRANCH  17  21
ENDBRANCH   1  17
BRANCH   1  24
ATOM     24  C   UNL     1       6.059   6.430  16.627  0.00  0.00    +0.000 C 
BRANCH  24  25
ATOM     25  C   UNL     1       6.917   6.400  17.876  0.00  0.00    +0.000 A 
ATOM     26  C   UNL     1       7.035   5.426  18.897  0.00  0.00    +0.000 A 
ATOM     27  C   UNL     1       8.131   5.814  19.633  0.00  0.00    +0.000 A 
ATOM     28  N   UNL     1       8.521   7.016  19.123  0.00  0.00    +0.000 N 
ATOM     29  N   UNL     1       7.793   7.404  18.068  0.00  0.00    +0.000 NA
ATOM     30  H   UNL     1       9.290   7.610  19.422  0.00  0.00    +0.000 HD
ENDBRANCH  24  25
ENDBRANCH   1  24
TORSDOF 6
ENDMDL
