MODEL 1
REMARK VINA RESULT:      -8.7      0.000      0.000
REMARK  Name = 
REMARK  5 active torsions:
REMARK  status: ('A' for Active; 'I' for Inactive)
REMARK    1  A    between atoms: C_9  and  C_10
REMARK    2  A    between atoms: N_12  and  C_13
REMARK    3  A    between atoms: C_13  and  C_14
REMARK    4  A    between atoms: C_13  and  C_20
REMARK    5  A    between atoms: C_14  and  C_15
REMARK                            x       y       z     vdW  Elec       q    Type
REMARK                         _______ _______ _______ _____ _____    ______ ____
ROOT
ATOM      1  C   UNL     1       3.290   6.057  18.954  0.00  0.00    +0.000 C 
ATOM      2  O   UNL     1       3.657   5.543  20.004  0.00  0.00    +0.000 OA
ATOM      3  N   UNL     1       3.565   5.556  17.702  0.00  0.00    +0.000 N 
ATOM      4  H   UNL     1       2.896   5.788  16.979  0.00  0.00    +0.000 HD
ENDROOT
BRANCH   1  13
ATOM      5  O   UNL     1      -0.230  10.761  22.929  0.00  0.00    +0.000 OA
ATOM      6  C   UNL     1       0.354  10.579  21.862  0.00  0.00    +0.000 C 
ATOM      7  C   UNL     1       0.963  11.723  21.092  0.00  0.00    +0.000 C 
ATOM      8  C   UNL     1       0.134  12.162  19.911  0.00  0.00    +0.000 C 
ATOM      9  S   UNL     1      -0.396  10.866  18.755  0.00  0.00    +0.000 S 
ATOM     10  C   UNL     1       0.871   9.616  18.958  0.00  0.00    +0.000 A 
ATOM     11  C   UNL     1       1.476   9.168  17.776  0.00  0.00    +0.000 A 
ATOM     12  C   UNL     1       2.287   8.033  17.777  0.00  0.00    +0.000 A 
ATOM     13  C   UNL     1       2.472   7.303  18.957  0.00  0.00    +0.000 A 
ATOM     14  C   UNL     1       1.894   7.755  20.149  0.00  0.00    +0.000 A 
ATOM     15  C   UNL     1       1.115   8.924  20.162  0.00  0.00    +0.000 A 
ATOM     16  N   UNL     1       0.569   9.307  21.402  0.00  0.00    +0.000 N 
ATOM     17  H   UNL     1       0.411   8.593  22.102  0.00  0.00    +0.000 HD
ENDBRANCH   1  13
BRANCH   3  18
ATOM     18  C   UNL     1       4.318   4.329  17.475  0.00  0.00    +0.000 C 
BRANCH  18  19
ATOM     19  C   UNL     1       5.336   4.491  16.347  0.00  0.00    +0.000 A 
ATOM     20  C   UNL     1       5.021   4.032  15.057  0.00  0.00    +0.000 A 
ATOM     21  C   UNL     1       5.929   4.174  14.003  0.00  0.00    +0.000 A 
ATOM     22  C   UNL     1       7.164   4.779  14.223  0.00  0.00    +0.000 A 
ATOM     23  C   UNL     1       7.490   5.246  15.492  0.00  0.00    +0.000 A 
ATOM     24  C   UNL     1       6.581   5.112  16.542  0.00  0.00    +0.000 A 
ENDBRANCH  18  19
BRANCH  18  25
ATOM     25  C   UNL     1       3.409   3.102  17.265  0.00  0.00    +0.000 C 
BRANCH  25  26
ATOM     26  C   UNL     1       2.391   2.895  18.343  0.00  0.00    +0.000 A 
ATOM     27  N   UNL     1       1.094   3.121  18.264  0.00  0.00    +0.000 NA
ATOM     28  C   UNL     1       0.607   2.937  19.532  0.00  0.00    +0.000 A 
ATOM     29  C   UNL     1       1.609   2.546  20.385  0.00  0.00    +0.000 A 
ATOM     30  N   UNL     1       2.733   2.485  19.611  0.00  0.00    +0.000 N 
ATOM     31  H   UNL     1       3.661   2.234  19.921  0.00  0.00    +0.000 HD
ENDBRANCH  25  26
ENDBRANCH  18  25
ENDBRANCH   3  18
TORSDOF 5
ENDMDL
MODEL 2
REMARK VINA RESULT:      -8.3      2.482      4.648
REMARK  Name = 
REMARK  5 active torsions:
REMARK  status: ('A' for Active; 'I' for Inactive)
REMARK    1  A    between atoms: C_9  and  C_10
REMARK    2  A    between atoms: N_12  and  C_13
REMARK    3  A    between atoms: C_13  and  C_14
REMARK    4  A    between atoms: C_13  and  C_20
REMARK    5  A    between atoms: C_14  and  C_15
REMARK                            x       y       z     vdW  Elec       q    Type
REMARK                         _______ _______ _______ _____ _____    ______ ____
ROOT
ATOM      1  C   UNL     1       2.261   8.029  18.619  0.00  0.00    +0.000 C 
ATOM      2  O   UNL     1       2.623   8.243  17.468  0.00  0.00    +0.000 OA
ATOM      3  N   UNL     1       2.524   6.873  19.317  0.00  0.00    +0.000 N 
ATOM      4  H   UNL     1       2.564   6.967  20.324  0.00  0.00    +0.000 HD
ENDROOT
BRANCH   1  13
ATOM      5  O   UNL     1      -0.457  14.581  18.559  0.00  0.00    +0.000 OA
ATOM      6  C   UNL     1      -0.544  13.457  19.052  0.00  0.00    +0.000 C 
ATOM      7  C   UNL     1      -1.838  12.953  19.640  0.00  0.00    +0.000 C 
ATOM      8  C   UNL     1      -1.871  12.996  21.147  0.00  0.00    +0.000 C 
ATOM      9  S   UNL     1      -0.471  12.239  22.020  0.00  0.00    +0.000 S 
ATOM     10  C   UNL     1       0.105  11.012  20.848  0.00  0.00    +0.000 A 
ATOM     11  C   UNL     1       0.248   9.712  21.352  0.00  0.00    +0.000 A 
ATOM     12  C   UNL     1       0.919   8.734  20.618  0.00  0.00    +0.000 A 
ATOM     13  C   UNL     1       1.494   9.053  19.382  0.00  0.00    +0.000 A 
ATOM     14  C   UNL     1       1.335  10.341  18.857  0.00  0.00    +0.000 A 
ATOM     15  C   UNL     1       0.620  11.317  19.572  0.00  0.00    +0.000 A 
ATOM     16  N   UNL     1       0.510  12.586  18.972  0.00  0.00    +0.000 N 
ATOM     17  H   UNL     1       1.220  12.872  18.310  0.00  0.00    +0.000 HD
ENDBRANCH   1  13
BRANCH   3  18
ATOM     18  C   UNL     1       3.290   5.760  18.770  0.00  0.00    +0.000 C 
BRANCH  18  19
ATOM     19  C   UNL     1       2.497   4.454  18.810  0.00  0.00    +0.000 A 
ATOM     20  C   UNL     1       2.792   3.435  17.888  0.00  0.00    +0.000 A 
ATOM     21  C   UNL     1       2.091   2.226  17.906  0.00  0.00    +0.000 A 
ATOM     22  C   UNL     1       1.085   2.017  18.846  0.00  0.00    +0.000 A 
ATOM     23  C   UNL     1       0.784   3.012  19.771  0.00  0.00    +0.000 A 
ATOM     24  C   UNL     1       1.490   4.216  19.759  0.00  0.00    +0.000 A 
ENDBRANCH  18  19
BRANCH  18  25
ATOM     25  C   UNL     1       4.680   5.616  19.421  0.00  0.00    +0.000 C 
BRANCH  25  26
ATOM     26  C   UNL     1       5.811   5.509  18.446  0.00  0.00    +0.000 A 
ATOM     27  N   UNL     1       6.178   6.409  17.555  0.00  0.00    +0.000 NA
ATOM     28  C   UNL     1       7.149   5.806  16.797  0.00  0.00    +0.000 A 
ATOM     29  C   UNL     1       7.412   4.542  17.261  0.00  0.00    +0.000 A 
ATOM     30  N   UNL     1       6.583   4.375  18.334  0.00  0.00    +0.000 N 
ATOM     31  H   UNL     1       6.511   3.551  18.913  0.00  0.00    +0.000 HD
ENDBRANCH  25  26
ENDBRANCH  18  25
ENDBRANCH   3  18
TORSDOF 5
ENDMDL
MODEL 3
REMARK VINA RESULT:      -8.2      3.368      8.276
REMARK  Name = 
REMARK  5 active torsions:
REMARK  status: ('A' for Active; 'I' for Inactive)
REMARK    1  A    between atoms: C_9  and  C_10
REMARK    2  A    between atoms: N_12  and  C_13
REMARK    3  A    between atoms: C_13  and  C_14
REMARK    4  A    between atoms: C_13  and  C_20
REMARK    5  A    between atoms: C_14  and  C_15
REMARK                            x       y       z     vdW  Elec       q    Type
REMARK                         _______ _______ _______ _____ _____    ______ ____
ROOT
ATOM      1  C   UNL     1       1.835   9.242  18.084  0.00  0.00    +0.000 C 
ATOM      2  O   UNL     1       2.308  10.075  17.320  0.00  0.00    +0.000 OA
ATOM      3  N   UNL     1       0.645   9.390  18.759  0.00  0.00    +0.000 N 
ATOM      4  H   UNL     1       0.165   8.532  18.998  0.00  0.00    +0.000 HD
ENDROOT
BRANCH   1  13
ATOM      5  O   UNL     1       2.153   3.430  22.140  0.00  0.00    +0.000 OA
ATOM      6  C   UNL     1       2.415   3.906  21.036  0.00  0.00    +0.000 C 
ATOM      7  C   UNL     1       2.560   3.032  19.815  0.00  0.00    +0.000 C 
ATOM      8  C   UNL     1       3.994   2.784  19.419  0.00  0.00    +0.000 C 
ATOM      9  S   UNL     1       5.061   4.243  19.251  0.00  0.00    +0.000 S 
ATOM     10  C   UNL     1       3.892   5.541  18.851  0.00  0.00    +0.000 A 
ATOM     11  C   UNL     1       4.196   6.302  17.714  0.00  0.00    +0.000 A 
ATOM     12  C   UNL     1       3.509   7.486  17.445  0.00  0.00    +0.000 A 
ATOM     13  C   UNL     1       2.533   7.949  18.335  0.00  0.00    +0.000 A 
ATOM     14  C   UNL     1       2.202   7.185  19.460  0.00  0.00    +0.000 A 
ATOM     15  C   UNL     1       2.859   5.968  19.710  0.00  0.00    +0.000 A 
ATOM     16  N   UNL     1       2.468   5.264  20.865  0.00  0.00    +0.000 N 
ATOM     17  H   UNL     1       2.067   5.783  21.636  0.00  0.00    +0.000 HD
ENDBRANCH   1  13
BRANCH   3  18
ATOM     18  C   UNL     1      -0.212  10.561  18.629  0.00  0.00    +0.000 C 
BRANCH  18  19
ATOM     19  C   UNL     1       0.169  11.656  19.625  0.00  0.00    +0.000 A 
ATOM     20  C   UNL     1      -0.500  11.736  20.858  0.00  0.00    +0.000 A 
ATOM     21  C   UNL     1      -0.166  12.720  21.793  0.00  0.00    +0.000 A 
ATOM     22  C   UNL     1       0.842  13.639  21.509  0.00  0.00    +0.000 A 
ATOM     23  C   UNL     1       1.520  13.570  20.297  0.00  0.00    +0.000 A 
ATOM     24  C   UNL     1       1.193  12.582  19.367  0.00  0.00    +0.000 A 
ENDBRANCH  18  19
BRANCH  18  25
ATOM     25  C   UNL     1      -1.713  10.212  18.697  0.00  0.00    +0.000 C 
BRANCH  25  26
ATOM     26  C   UNL     1      -2.507  10.668  17.512  0.00  0.00    +0.000 A 
ATOM     27  N   UNL     1      -3.670  11.290  17.529  0.00  0.00    +0.000 NA
ATOM     28  C   UNL     1      -4.072  11.360  16.219  0.00  0.00    +0.000 A 
ATOM     29  C   UNL     1      -3.121  10.819  15.390  0.00  0.00    +0.000 A 
ATOM     30  N   UNL     1      -2.112  10.416  16.218  0.00  0.00    +0.000 N 
ATOM     31  H   UNL     1      -1.251   9.967  15.940  0.00  0.00    +0.000 HD
ENDBRANCH  25  26
ENDBRANCH  18  25
ENDBRANCH   3  18
TORSDOF 5
ENDMDL
MODEL 4
REMARK VINA RESULT:      -8.2      0.124      1.153
REMARK  Name = 
REMARK  5 active torsions:
REMARK  status: ('A' for Active; 'I' for Inactive)
REMARK    1  A    between atoms: C_9  and  C_10
REMARK    2  A    between atoms: N_12  and  C_13
REMARK    3  A    between atoms: C_13  and  C_14
REMARK    4  A    between atoms: C_13  and  C_20
REMARK    5  A    between atoms: C_14  and  C_15
REMARK                            x       y       z     vdW  Elec       q    Type
REMARK                         _______ _______ _______ _____ _____    ______ ____
ROOT
ATOM      1  C   UNL     1       3.325   6.161  18.966  0.00  0.00    +0.000 C 
ATOM      2  O   UNL     1       3.757   5.701  20.017  0.00  0.00    +0.000 OA
ATOM      3  N   UNL     1       3.547   5.611  17.724  0.00  0.00    +0.000 N 
ATOM      4  H   UNL     1       2.837   5.797  17.028  0.00  0.00    +0.000 HD
ENDROOT
BRANCH   1  13
ATOM      5  O   UNL     1      -0.265  10.846  22.902  0.00  0.00    +0.000 OA
ATOM      6  C   UNL     1       0.316  10.661  21.833  0.00  0.00    +0.000 C 
ATOM      7  C   UNL     1       0.894  11.806  21.041  0.00  0.00    +0.000 C 
ATOM      8  C   UNL     1       0.047  12.211  19.861  0.00  0.00    +0.000 C 
ATOM      9  S   UNL     1      -0.464  10.887  18.728  0.00  0.00    +0.000 S 
ATOM     10  C   UNL     1       0.831   9.668  18.939  0.00  0.00    +0.000 A 
ATOM     11  C   UNL     1       1.436   9.216  17.758  0.00  0.00    +0.000 A 
ATOM     12  C   UNL     1       2.272   8.098  17.769  0.00  0.00    +0.000 A 
ATOM     13  C   UNL     1       2.481   7.389  18.958  0.00  0.00    +0.000 A 
ATOM     14  C   UNL     1       1.902   7.846  20.148  0.00  0.00    +0.000 A 
ATOM     15  C   UNL     1       1.098   8.999  20.150  0.00  0.00    +0.000 A 
ATOM     16  N   UNL     1       0.554   9.387  21.389  0.00  0.00    +0.000 N 
ATOM     17  H   UNL     1       0.416   8.680  22.100  0.00  0.00    +0.000 HD
ENDBRANCH   1  13
BRANCH   3  18
ATOM     18  C   UNL     1       4.315   4.391  17.512  0.00  0.00    +0.000 C 
BRANCH  18  19
ATOM     19  C   UNL     1       5.288   4.531  16.342  0.00  0.00    +0.000 A 
ATOM     20  C   UNL     1       6.534   5.150  16.547  0.00  0.00    +0.000 A 
ATOM     21  C   UNL     1       7.449   5.284  15.498  0.00  0.00    +0.000 A 
ATOM     22  C   UNL     1       7.133   4.802  14.230  0.00  0.00    +0.000 A 
ATOM     23  C   UNL     1       5.908   4.180  14.011  0.00  0.00    +0.000 A 
ATOM     24  C   UNL     1       4.997   4.037  15.060  0.00  0.00    +0.000 A 
ENDBRANCH  18  19
BRANCH  18  25
ATOM     25  C   UNL     1       3.422   3.141  17.377  0.00  0.00    +0.000 C 
BRANCH  25  26
ATOM     26  C   UNL     1       2.495   2.916  18.531  0.00  0.00    +0.000 A 
ATOM     27  N   UNL     1       2.819   2.500  19.740  0.00  0.00    +0.000 NA
ATOM     28  C   UNL     1       1.630   2.298  20.394  0.00  0.00    +0.000 A 
ATOM     29  C   UNL     1       0.571   2.642  19.592  0.00  0.00    +0.000 A 
ATOM     30  N   UNL     1       1.132   3.069  18.422  0.00  0.00    +0.000 N 
ATOM     31  H   UNL     1       0.637   3.393  17.603  0.00  0.00    +0.000 HD
ENDBRANCH  25  26
ENDBRANCH  18  25
ENDBRANCH   3  18
TORSDOF 5
ENDMDL
MODEL 5
REMARK VINA RESULT:      -8.2      3.313      8.124
REMARK  Name = 
REMARK  5 active torsions:
REMARK  status: ('A' for Active; 'I' for Inactive)
REMARK    1  A    between atoms: C_9  and  C_10
REMARK    2  A    between atoms: N_12  and  C_13
REMARK    3  A    between atoms: C_13  and  C_14
REMARK    4  A    between atoms: C_13  and  C_20
REMARK    5  A    between atoms: C_14  and  C_15
REMARK                            x       y       z     vdW  Elec       q    Type
REMARK                         _______ _______ _______ _____ _____    ______ ____
ROOT
ATOM      1  C   UNL     1       1.973   9.183  18.015  0.00  0.00    +0.000 C 
ATOM      2  O   UNL     1       2.429   9.953  17.177  0.00  0.00    +0.000 OA
ATOM      3  N   UNL     1       0.846   9.425  18.766  0.00  0.00    +0.000 N 
ATOM      4  H   UNL     1       0.343   8.606  19.081  0.00  0.00    +0.000 HD
ENDROOT
BRANCH   1  13
ATOM      5  O   UNL     1       2.126   3.438  22.174  0.00  0.00    +0.000 OA
ATOM      6  C   UNL     1       2.387   3.882  21.057  0.00  0.00    +0.000 C 
ATOM      7  C   UNL     1       2.474   2.981  19.851  0.00  0.00    +0.000 C 
ATOM      8  C   UNL     1       3.889   2.667  19.435  0.00  0.00    +0.000 C 
ATOM      9  S   UNL     1       5.012   4.077  19.220  0.00  0.00    +0.000 S 
ATOM     10  C   UNL     1       3.890   5.414  18.816  0.00  0.00    +0.000 A 
ATOM     11  C   UNL     1       4.204   6.141  17.660  0.00  0.00    +0.000 A 
ATOM     12  C   UNL     1       3.561   7.347  17.380  0.00  0.00    +0.000 A 
ATOM     13  C   UNL     1       2.622   7.867  18.278  0.00  0.00    +0.000 A 
ATOM     14  C   UNL     1       2.281   7.138  19.423  0.00  0.00    +0.000 A 
ATOM     15  C   UNL     1       2.891   5.899  19.685  0.00  0.00    +0.000 A 
ATOM     16  N   UNL     1       2.493   5.233  20.859  0.00  0.00    +0.000 N 
ATOM     17  H   UNL     1       2.127   5.783  21.627  0.00  0.00    +0.000 HD
ENDBRANCH   1  13
BRANCH   3  18
ATOM     18  C   UNL     1       0.042  10.634  18.640  0.00  0.00    +0.000 C 
BRANCH  18  19
ATOM     19  C   UNL     1       0.548  11.749  19.554  0.00  0.00    +0.000 A 
ATOM     20  C   UNL     1       1.633  12.543  19.144  0.00  0.00    +0.000 A 
ATOM     21  C   UNL     1       2.113  13.576  19.954  0.00  0.00    +0.000 A 
ATOM     22  C   UNL     1       1.515  13.832  21.186  0.00  0.00    +0.000 A 
ATOM     23  C   UNL     1       0.435  13.061  21.605  0.00  0.00    +0.000 A 
ATOM     24  C   UNL     1      -0.050  12.035  20.792  0.00  0.00    +0.000 A 
ENDBRANCH  18  19
BRANCH  18  25
ATOM     25  C   UNL     1      -1.466  10.369  18.829  0.00  0.00    +0.000 C 
BRANCH  25  26
ATOM     26  C   UNL     1      -2.268  10.436  17.567  0.00  0.00    +0.000 A 
ATOM     27  N   UNL     1      -3.176   9.572  17.156  0.00  0.00    +0.000 NA
ATOM     28  C   UNL     1      -3.519   9.969  15.889  0.00  0.00    +0.000 A 
ATOM     29  C   UNL     1      -2.849  11.116  15.541  0.00  0.00    +0.000 A 
ATOM     30  N   UNL     1      -2.085  11.427  16.629  0.00  0.00    +0.000 N 
ATOM     31  H   UNL     1      -1.457  12.213  16.715  0.00  0.00    +0.000 HD
ENDBRANCH  25  26
ENDBRANCH  18  25
ENDBRANCH   3  18
TORSDOF 5
ENDMDL
MODEL 6
REMARK VINA RESULT:      -8.0      3.045      8.575
REMARK  Name = 
REMARK  5 active torsions:
REMARK  status: ('A' for Active; 'I' for Inactive)
REMARK    1  A    between atoms: C_9  and  C_10
REMARK    2  A    between atoms: N_12  and  C_13
REMARK    3  A    between atoms: C_13  and  C_14
REMARK    4  A    between atoms: C_13  and  C_20
REMARK    5  A    between atoms: C_14  and  C_15
REMARK                            x       y       z     vdW  Elec       q    Type
REMARK                         _______ _______ _______ _____ _____    ______ ____
ROOT
ATOM      1  C   UNL     1       1.173   8.553  19.973  0.00  0.00    +0.000 C 
ATOM      2  O   UNL     1       0.977   8.374  21.170  0.00  0.00    +0.000 OA
ATOM      3  N   UNL     1       0.516   9.487  19.206  0.00  0.00    +0.000 N 
ATOM      4  H   UNL     1       1.024   9.831  18.401  0.00  0.00    +0.000 HD
ENDROOT
BRANCH   1  13
ATOM      5  O   UNL     1       4.836   2.482  19.757  0.00  0.00    +0.000 OA
ATOM      6  C   UNL     1       4.397   3.419  19.092  0.00  0.00    +0.000 C 
ATOM      7  C   UNL     1       4.127   3.280  17.615  0.00  0.00    +0.000 C 
ATOM      8  C   UNL     1       5.190   3.905  16.748  0.00  0.00    +0.000 C 
ATOM      9  S   UNL     1       5.649   5.622  17.122  0.00  0.00    +0.000 S 
ATOM     10  C   UNL     1       4.162   6.268  17.884  0.00  0.00    +0.000 A 
ATOM     11  C   UNL     1       3.673   7.464  17.342  0.00  0.00    +0.000 A 
ATOM     12  C   UNL     1       2.681   8.191  18.001  0.00  0.00    +0.000 A 
ATOM     13  C   UNL     1       2.192   7.752  19.237  0.00  0.00    +0.000 A 
ATOM     14  C   UNL     1       2.654   6.546  19.776  0.00  0.00    +0.000 A 
ATOM     15  C   UNL     1       3.619   5.786  19.093  0.00  0.00    +0.000 A 
ATOM     16  N   UNL     1       4.030   4.587  19.706  0.00  0.00    +0.000 N 
ATOM     17  H   UNL     1       3.950   4.506  20.712  0.00  0.00    +0.000 HD
ENDBRANCH   1  13
BRANCH   3  18
ATOM     18  C   UNL     1      -0.490  10.398  19.737  0.00  0.00    +0.000 C 
BRANCH  18  19
ATOM     19  C   UNL     1      -1.583  10.695  18.710  0.00  0.00    +0.000 A 
ATOM     20  C   UNL     1      -1.548  10.060  17.457  0.00  0.00    +0.000 A 
ATOM     21  C   UNL     1      -2.539  10.305  16.501  0.00  0.00    +0.000 A 
ATOM     22  C   UNL     1      -3.579  11.186  16.784  0.00  0.00    +0.000 A 
ATOM     23  C   UNL     1      -3.634  11.818  18.022  0.00  0.00    +0.000 A 
ATOM     24  C   UNL     1      -2.650  11.567  18.980  0.00  0.00    +0.000 A 
ENDBRANCH  18  19
BRANCH  18  25
ATOM     25  C   UNL     1       0.121  11.686  20.322  0.00  0.00    +0.000 C 
BRANCH  25  26
ATOM     26  C   UNL     1       1.005  12.436  19.375  0.00  0.00    +0.000 A 
ATOM     27  N   UNL     1       1.946  11.932  18.601  0.00  0.00    +0.000 NA
ATOM     28  C   UNL     1       2.582  13.010  18.040  0.00  0.00    +0.000 A 
ATOM     29  C   UNL     1       1.991  14.183  18.438  0.00  0.00    +0.000 A 
ATOM     30  N   UNL     1       0.966  13.807  19.257  0.00  0.00    +0.000 N 
ATOM     31  H   UNL     1       0.322  14.423  19.734  0.00  0.00    +0.000 HD
ENDBRANCH  25  26
ENDBRANCH  18  25
ENDBRANCH   3  18
TORSDOF 5
ENDMDL
MODEL 7
REMARK VINA RESULT:      -8.0      2.472      4.844
REMARK  Name = 
REMARK  5 active torsions:
REMARK  status: ('A' for Active; 'I' for Inactive)
REMARK    1  A    between atoms: C_9  and  C_10
REMARK    2  A    between atoms: N_12  and  C_13
REMARK    3  A    between atoms: C_13  and  C_14
REMARK    4  A    between atoms: C_13  and  C_20
REMARK    5  A    between atoms: C_14  and  C_15
REMARK                            x       y       z     vdW  Elec       q    Type
REMARK                         _______ _______ _______ _____ _____    ______ ____
ROOT
ATOM      1  C   UNL     1       2.136   8.585  18.077  0.00  0.00    +0.000 C 
ATOM      2  O   UNL     1       2.556   8.731  16.936  0.00  0.00    +0.000 OA
ATOM      3  N   UNL     1       2.167   7.398  18.774  0.00  0.00    +0.000 N 
ATOM      4  H   UNL     1       2.202   7.481  19.782  0.00  0.00    +0.000 HD
ENDROOT
BRANCH   1  13
ATOM      5  O   UNL     1       1.622  15.644  18.559  0.00  0.00    +0.000 OA
ATOM      6  C   UNL     1       1.083  14.572  18.832  0.00  0.00    +0.000 C 
ATOM      7  C   UNL     1      -0.404  14.473  19.061  0.00  0.00    +0.000 C 
ATOM      8  C   UNL     1      -0.785  14.386  20.518  0.00  0.00    +0.000 C 
ATOM      9  S   UNL     1       0.068  13.131  21.514  0.00  0.00    +0.000 S 
ATOM     10  C   UNL     1       0.510  11.896  20.295  0.00  0.00    +0.000 A 
ATOM     11  C   UNL     1       0.129  10.581  20.596  0.00  0.00    +0.000 A 
ATOM     12  C   UNL     1       0.629   9.508  19.858  0.00  0.00    +0.000 A 
ATOM     13  C   UNL     1       1.554   9.731  18.832  0.00  0.00    +0.000 A 
ATOM     14  C   UNL     1       1.923  11.041  18.504  0.00  0.00    +0.000 A 
ATOM     15  C   UNL     1       1.385  12.129  19.214  0.00  0.00    +0.000 A 
ATOM     16  N   UNL     1       1.811  13.412  18.821  0.00  0.00    +0.000 N 
ATOM     17  H   UNL     1       2.712  13.506  18.370  0.00  0.00    +0.000 HD
ENDBRANCH   1  13
BRANCH   3  18
ATOM     18  C   UNL     1       2.727   6.165  18.235  0.00  0.00    +0.000 C 
BRANCH  18  19
ATOM     19  C   UNL     1       2.068   4.930  18.847  0.00  0.00    +0.000 A 
ATOM     20  C   UNL     1       1.701   3.856  18.018  0.00  0.00    +0.000 A 
ATOM     21  C   UNL     1       1.105   2.709  18.551  0.00  0.00    +0.000 A 
ATOM     22  C   UNL     1       0.868   2.618  19.920  0.00  0.00    +0.000 A 
ATOM     23  C   UNL     1       1.231   3.668  20.758  0.00  0.00    +0.000 A 
ATOM     24  C   UNL     1       1.835   4.810  20.227  0.00  0.00    +0.000 A 
ENDBRANCH  18  19
BRANCH  18  25
ATOM     25  C   UNL     1       4.264   6.114  18.338  0.00  0.00    +0.000 C 
BRANCH  25  26
ATOM     26  C   UNL     1       4.942   5.489  17.159  0.00  0.00    +0.000 A 
ATOM     27  N   UNL     1       5.148   6.039  15.978  0.00  0.00    +0.000 NA
ATOM     28  C   UNL     1       5.656   5.040  15.187  0.00  0.00    +0.000 A 
ATOM     29  C   UNL     1       5.808   3.881  15.906  0.00  0.00    +0.000 A 
ATOM     30  N   UNL     1       5.387   4.186  17.169  0.00  0.00    +0.000 N 
ATOM     31  H   UNL     1       5.358   3.558  17.960  0.00  0.00    +0.000 HD
ENDBRANCH  25  26
ENDBRANCH  18  25
ENDBRANCH   3  18
TORSDOF 5
ENDMDL
MODEL 8
REMARK VINA RESULT:      -8.0      3.342      8.686
REMARK  Name = 
REMARK  5 active torsions:
REMARK  status: ('A' for Active; 'I' for Inactive)
REMARK    1  A    between atoms: C_9  and  C_10
REMARK    2  A    between atoms: N_12  and  C_13
REMARK    3  A    between atoms: C_13  and  C_14
REMARK    4  A    between atoms: C_13  and  C_20
REMARK    5  A    between atoms: C_14  and  C_15
REMARK                            x       y       z     vdW  Elec       q    Type
REMARK                         _______ _______ _______ _____ _____    ______ ____
ROOT
ATOM      1  C   UNL     1       1.166   8.945  20.143  0.00  0.00    +0.000 C 
ATOM      2  O   UNL     1       1.321   9.473  21.238  0.00  0.00    +0.000 OA
ATOM      3  N   UNL     1       0.436   9.489  19.111  0.00  0.00    +0.000 N 
ATOM      4  H   UNL     1       0.716   9.209  18.179  0.00  0.00    +0.000 HD
ENDROOT
BRANCH   1  13
ATOM      5  O   UNL     1       1.924   2.175  22.124  0.00  0.00    +0.000 OA
ATOM      6  C   UNL     1       1.968   2.961  21.178  0.00  0.00    +0.000 C 
ATOM      7  C   UNL     1       1.764   2.496  19.758  0.00  0.00    +0.000 C 
ATOM      8  C   UNL     1       3.047   2.369  18.976  0.00  0.00    +0.000 C 
ATOM      9  S   UNL     1       4.162   3.802  18.992  0.00  0.00    +0.000 S 
ATOM     10  C   UNL     1       3.041   5.168  19.280  0.00  0.00    +0.000 A 
ATOM     11  C   UNL     1       3.141   6.236  18.377  0.00  0.00    +0.000 A 
ATOM     12  C   UNL     1       2.507   7.451  18.638  0.00  0.00    +0.000 A 
ATOM     13  C   UNL     1       1.797   7.631  19.831  0.00  0.00    +0.000 A 
ATOM     14  C   UNL     1       1.669   6.565  20.728  0.00  0.00    +0.000 A 
ATOM     15  C   UNL     1       2.265   5.324  20.447  0.00  0.00    +0.000 A 
ATOM     16  N   UNL     1       2.089   4.306  21.404  0.00  0.00    +0.000 N 
ATOM     17  H   UNL     1       1.915   4.571  22.365  0.00  0.00    +0.000 HD
ENDBRANCH   1  13
BRANCH   3  18
ATOM     18  C   UNL     1      -0.232  10.781  19.193  0.00  0.00    +0.000 C 
BRANCH  18  19
ATOM     19  C   UNL     1      -1.519  10.807  18.370  0.00  0.00    +0.000 A 
ATOM     20  C   UNL     1      -1.635   9.984  17.237  0.00  0.00    +0.000 A 
ATOM     21  C   UNL     1      -2.804   9.978  16.471  0.00  0.00    +0.000 A 
ATOM     22  C   UNL     1      -3.875  10.795  16.826  0.00  0.00    +0.000 A 
ATOM     23  C   UNL     1      -3.781  11.611  17.949  0.00  0.00    +0.000 A 
ATOM     24  C   UNL     1      -2.617  11.609  18.720  0.00  0.00    +0.000 A 
ENDBRANCH  18  19
BRANCH  18  25
ATOM     25  C   UNL     1       0.702  11.958  18.845  0.00  0.00    +0.000 C 
BRANCH  25  26
ATOM     26  C   UNL     1       0.722  13.053  19.866  0.00  0.00    +0.000 A 
ATOM     27  N   UNL     1       1.208  12.988  21.091  0.00  0.00    +0.000 NA
ATOM     28  C   UNL     1       0.862  14.172  21.690  0.00  0.00    +0.000 A 
ATOM     29  C   UNL     1       0.201  14.989  20.807  0.00  0.00    +0.000 A 
ATOM     30  N   UNL     1       0.150  14.284  19.638  0.00  0.00    +0.000 N 
ATOM     31  H   UNL     1      -0.275  14.587  18.774  0.00  0.00    +0.000 HD
ENDBRANCH  25  26
ENDBRANCH  18  25
ENDBRANCH   3  18
TORSDOF 5
ENDMDL
MODEL 9
REMARK VINA RESULT:      -8.0      3.362      8.605
REMARK  Name = 
REMARK  5 active torsions:
REMARK  status: ('A' for Active; 'I' for Inactive)
REMARK    1  A    between atoms: C_9  and  C_10
REMARK    2  A    between atoms: N_12  and  C_13
REMARK    3  A    between atoms: C_13  and  C_14
REMARK    4  A    between atoms: C_13  and  C_20
REMARK    5  A    between atoms: C_14  and  C_15
REMARK                            x       y       z     vdW  Elec       q    Type
REMARK                         _______ _______ _______ _____ _____    ______ ____
ROOT
ATOM      1  C   UNL     1       1.323   8.837  20.081  0.00  0.00    +0.000 C 
ATOM      2  O   UNL     1       1.169   9.228  21.232  0.00  0.00    +0.000 OA
ATOM      3  N   UNL     1       0.986   9.560  18.960  0.00  0.00    +0.000 N 
ATOM      4  H   UNL     1       1.519   9.351  18.125  0.00  0.00    +0.000 HD
ENDROOT
BRANCH   1  13
ATOM      5  O   UNL     1       1.862   2.078  22.168  0.00  0.00    +0.000 OA
ATOM      6  C   UNL     1       1.947   2.849  21.213  0.00  0.00    +0.000 C 
ATOM      7  C   UNL     1       1.763   2.370  19.795  0.00  0.00    +0.000 C 
ATOM      8  C   UNL     1       3.059   2.199  19.044  0.00  0.00    +0.000 C 
ATOM      9  S   UNL     1       4.210   3.603  19.066  0.00  0.00    +0.000 S 
ATOM     10  C   UNL     1       3.118   5.002  19.310  0.00  0.00    +0.000 A 
ATOM     11  C   UNL     1       3.266   6.054  18.396  0.00  0.00    +0.000 A 
ATOM     12  C   UNL     1       2.658   7.289  18.626  0.00  0.00    +0.000 A 
ATOM     13  C   UNL     1       1.927   7.503  19.800  0.00  0.00    +0.000 A 
ATOM     14  C   UNL     1       1.751   6.453  20.709  0.00  0.00    +0.000 A 
ATOM     15  C   UNL     1       2.322   5.193  20.457  0.00  0.00    +0.000 A 
ATOM     16  N   UNL     1       2.098   4.194  21.424  0.00  0.00    +0.000 N 
ATOM     17  H   UNL     1       1.910   4.476  22.377  0.00  0.00    +0.000 HD
ENDBRANCH   1  13
BRANCH   3  18
ATOM     18  C   UNL     1       0.417  10.900  19.009  0.00  0.00    +0.000 C 
BRANCH  18  19
ATOM     19  C   UNL     1      -1.043  10.912  18.559  0.00  0.00    +0.000 A 
ATOM     20  C   UNL     1      -1.945  11.811  19.152  0.00  0.00    +0.000 A 
ATOM     21  C   UNL     1      -3.285  11.851  18.754  0.00  0.00    +0.000 A 
ATOM     22  C   UNL     1      -3.742  10.994  17.756  0.00  0.00    +0.000 A 
ATOM     23  C   UNL     1      -2.862  10.102  17.152  0.00  0.00    +0.000 A 
ATOM     24  C   UNL     1      -1.522  10.068  17.543  0.00  0.00    +0.000 A 
ENDBRANCH  18  19
BRANCH  18  25
ATOM     25  C   UNL     1       1.267  11.937  18.248  0.00  0.00    +0.000 C 
BRANCH  25  26
ATOM     26  C   UNL     1       2.009  12.894  19.129  0.00  0.00    +0.000 A 
ATOM     27  N   UNL     1       2.905  13.787  18.755  0.00  0.00    +0.000 NA
ATOM     28  C   UNL     1       3.414  14.311  19.915  0.00  0.00    +0.000 A 
ATOM     29  C   UNL     1       2.788  13.767  21.009  0.00  0.00    +0.000 A 
ATOM     30  N   UNL     1       1.870  12.895  20.499  0.00  0.00    +0.000 N 
ATOM     31  H   UNL     1       1.235  12.315  21.029  0.00  0.00    +0.000 HD
ENDBRANCH  25  26
ENDBRANCH  18  25
ENDBRANCH   3  18
TORSDOF 5
ENDMDL
