MODEL 1
REMARK VINA RESULT:      -8.7      0.000      0.000
REMARK  Name = 
REMARK  3 active torsions:
REMARK  status: ('A' for Active; 'I' for Inactive)
REMARK    1  A    between atoms: C_1  and  C_2
REMARK    2  A    between atoms: C_3  and  C_4
REMARK    3  A    between atoms: N_6  and  C_7
REMARK                            x       y       z     vdW  Elec       q    Type
REMARK                         _______ _______ _______ _____ _____    ______ ____
ROOT
ATOM      1  C   UNL     1       2.048   8.361  18.583  0.00  0.00    +0.000 C 
ATOM      2  O   UNL     1       2.105   8.794  17.434  0.00  0.00    +0.000 OA
ATOM      3  N   UNL     1       2.615   7.139  18.937  0.00  0.00    +0.000 N 
ATOM      4  H   UNL     1       2.323   6.738  19.822  0.00  0.00    +0.000 HD
ENDROOT
BRANCH   3   5
ATOM      5  C   UNL     1       3.358   6.336  18.020  0.00  0.00    +0.000 A 
ATOM      6  C   UNL     1       3.041   4.963  17.818  0.00  0.00    +0.000 A 
ATOM      7  C   UNL     1       3.827   4.108  17.041  0.00  0.00    +0.000 A 
ATOM      8  C   UNL     1       4.913   4.674  16.436  0.00  0.00    +0.000 A 
ATOM      9  N   UNL     1       5.885   4.079  15.647  0.00  0.00    +0.000 N 
ATOM     10  C   UNL     1       6.805   5.058  15.259  0.00  0.00    +0.000 A 
ATOM     11  O   UNL     1       7.795   4.890  14.570  0.00  0.00    +0.000 OA
ATOM     12  N   UNL     1       6.368   6.269  15.824  0.00  0.00    +0.000 N 
ATOM     13  C   UNL     1       5.208   6.032  16.561  0.00  0.00    +0.000 A 
ATOM     14  C   UNL     1       4.444   6.895  17.328  0.00  0.00    +0.000 A 
ATOM     15  H   UNL     1       5.956   3.104  15.399  0.00  0.00    +0.000 HD
ATOM     16  H   UNL     1       6.861   7.138  15.712  0.00  0.00    +0.000 HD
ENDBRANCH   3   5
BRANCH   1  19
ATOM     17  C   UNL     1       1.485  11.531  18.641  0.00  0.00    +0.000 C 
ATOM     18  C   UNL     1       1.081  10.490  19.627  0.00  0.00    +0.000 A 
ATOM     19  C   UNL     1       1.327   9.117  19.595  0.00  0.00    +0.000 A 
ATOM     20  O   UNL     1       0.778   8.521  20.707  0.00  0.00    +0.000 OA
ATOM     21  C   UNL     1       0.187   9.515  21.446  0.00  0.00    +0.000 A 
ATOM     22  C   UNL     1      -0.491   9.367  22.659  0.00  0.00    +0.000 A 
ATOM     23  C   UNL     1      -1.021  10.536  23.233  0.00  0.00    +0.000 A 
ATOM     24  C   UNL     1      -0.870  11.771  22.610  0.00  0.00    +0.000 A 
ATOM     25  F   UNL     1      -1.388  12.867  23.183  0.00  0.00    +0.000 F 
ATOM     26  C   UNL     1      -0.191  11.901  21.403  0.00  0.00    +0.000 A 
ATOM     27  C   UNL     1       0.349  10.744  20.812  0.00  0.00    +0.000 A 
ENDBRANCH   1  19
TORSDOF 2
ENDMDL
MODEL 2
REMARK VINA RESULT:      -8.3      1.087      1.697
REMARK  Name = 
REMARK  3 active torsions:
REMARK  status: ('A' for Active; 'I' for Inactive)
REMARK    1  A    between atoms: C_1  and  C_2
REMARK    2  A    between atoms: C_3  and  C_4
REMARK    3  A    between atoms: N_6  and  C_7
REMARK                            x       y       z     vdW  Elec       q    Type
REMARK                         _______ _______ _______ _____ _____    ______ ____
ROOT
ATOM      1  C   UNL     1       1.825   8.661  18.435  0.00  0.00    +0.000 C 
ATOM      2  O   UNL     1       2.191   9.081  17.340  0.00  0.00    +0.000 OA
ATOM      3  N   UNL     1       2.151   7.381  18.879  0.00  0.00    +0.000 N 
ATOM      4  H   UNL     1       1.621   7.020  19.666  0.00  0.00    +0.000 HD
ENDROOT
BRANCH   3   5
ATOM      5  C   UNL     1       2.984   6.494  18.134  0.00  0.00    +0.000 A 
ATOM      6  C   UNL     1       2.642   5.121  17.975  0.00  0.00    +0.000 A 
ATOM      7  C   UNL     1       3.497   4.190  17.379  0.00  0.00    +0.000 A 
ATOM      8  C   UNL     1       4.682   4.677  16.907  0.00  0.00    +0.000 A 
ATOM      9  N   UNL     1       5.732   3.998  16.309  0.00  0.00    +0.000 N 
ATOM     10  C   UNL     1       6.739   4.918  16.000  0.00  0.00    +0.000 A 
ATOM     11  O   UNL     1       7.811   4.670  15.477  0.00  0.00    +0.000 OA
ATOM     12  N   UNL     1       6.277   6.178  16.417  0.00  0.00    +0.000 N 
ATOM     13  C   UNL     1       5.013   6.030  16.987  0.00  0.00    +0.000 A 
ATOM     14  C   UNL     1       4.183   6.968  17.577  0.00  0.00    +0.000 A 
ATOM     15  H   UNL     1       5.798   3.007  16.137  0.00  0.00    +0.000 HD
ATOM     16  H   UNL     1       6.816   7.021  16.324  0.00  0.00    +0.000 HD
ENDBRANCH   3   5
BRANCH   1  19
ATOM     17  C   UNL     1       1.444   8.491  21.629  0.00  0.00    +0.000 C 
ATOM     18  C   UNL     1       0.815   9.431  20.659  0.00  0.00    +0.000 A 
ATOM     19  C   UNL     1       0.985   9.501  19.277  0.00  0.00    +0.000 A 
ATOM     20  O   UNL     1       0.213  10.517  18.763  0.00  0.00    +0.000 OA
ATOM     21  C   UNL     1      -0.449  11.091  19.819  0.00  0.00    +0.000 A 
ATOM     22  C   UNL     1      -1.347  12.160  19.763  0.00  0.00    +0.000 A 
ATOM     23  C   UNL     1      -1.902  12.583  20.984  0.00  0.00    +0.000 A 
ATOM     24  C   UNL     1      -1.563  11.956  22.180  0.00  0.00    +0.000 A 
ATOM     25  F   UNL     1      -2.111  12.384  23.327  0.00  0.00    +0.000 F 
ATOM     26  C   UNL     1      -0.669  10.892  22.217  0.00  0.00    +0.000 A 
ATOM     27  C   UNL     1      -0.104  10.452  21.006  0.00  0.00    +0.000 A 
ENDBRANCH   1  19
TORSDOF 2
ENDMDL
MODEL 3
REMARK VINA RESULT:      -8.3      1.611      1.837
REMARK  Name = 
REMARK  3 active torsions:
REMARK  status: ('A' for Active; 'I' for Inactive)
REMARK    1  A    between atoms: C_1  and  C_2
REMARK    2  A    between atoms: C_3  and  C_4
REMARK    3  A    between atoms: N_6  and  C_7
REMARK                            x       y       z     vdW  Elec       q    Type
REMARK                         _______ _______ _______ _____ _____    ______ ____
ROOT
ATOM      1  C   UNL     1       1.656   8.899  18.284  0.00  0.00    +0.000 C 
ATOM      2  O   UNL     1       2.108   9.206  17.183  0.00  0.00    +0.000 OA
ATOM      3  N   UNL     1       1.931   7.668  18.874  0.00  0.00    +0.000 N 
ATOM      4  H   UNL     1       1.339   7.390  19.651  0.00  0.00    +0.000 HD
ENDROOT
BRANCH   3   5
ATOM      5  C   UNL     1       2.806   6.706  18.286  0.00  0.00    +0.000 A 
ATOM      6  C   UNL     1       2.370   5.377  18.024  0.00  0.00    +0.000 A 
ATOM      7  C   UNL     1       3.231   4.368  17.584  0.00  0.00    +0.000 A 
ATOM      8  C   UNL     1       4.529   4.736  17.371  0.00  0.00    +0.000 A 
ATOM      9  N   UNL     1       5.606   3.958  16.975  0.00  0.00    +0.000 N 
ATOM     10  C   UNL     1       6.740   4.773  16.899  0.00  0.00    +0.000 A 
ATOM     11  O   UNL     1       7.866   4.422  16.593  0.00  0.00    +0.000 OA
ATOM     12  N   UNL     1       6.329   6.070  17.250  0.00  0.00    +0.000 N 
ATOM     13  C   UNL     1       4.968   6.047  17.553  0.00  0.00    +0.000 A 
ATOM     14  C   UNL     1       4.132   7.060  17.992  0.00  0.00    +0.000 A 
ATOM     15  H   UNL     1       5.607   2.967  16.792  0.00  0.00    +0.000 HD
ATOM     16  H   UNL     1       6.956   6.855  17.291  0.00  0.00    +0.000 HD
ENDBRANCH   3   5
BRANCH   1  19
ATOM     17  C   UNL     1      -1.260   9.893  17.345  0.00  0.00    +0.000 C 
ATOM     18  C   UNL     1      -0.496  10.258  18.570  0.00  0.00    +0.000 A 
ATOM     19  C   UNL     1       0.767   9.823  18.972  0.00  0.00    +0.000 A 
ATOM     20  O   UNL     1       1.101  10.409  20.171  0.00  0.00    +0.000 OA
ATOM     21  C   UNL     1       0.052  11.219  20.528  0.00  0.00    +0.000 A 
ATOM     22  C   UNL     1      -0.040  12.012  21.675  0.00  0.00    +0.000 A 
ATOM     23  C   UNL     1      -1.222  12.759  21.832  0.00  0.00    +0.000 A 
ATOM     24  C   UNL     1      -2.238  12.700  20.883  0.00  0.00    +0.000 A 
ATOM     25  F   UNL     1      -3.352  13.424  21.062  0.00  0.00    +0.000 F 
ATOM     26  C   UNL     1      -2.128  11.906  19.746  0.00  0.00    +0.000 A 
ATOM     27  C   UNL     1      -0.954  11.152  19.569  0.00  0.00    +0.000 A 
ENDBRANCH   1  19
TORSDOF 2
ENDMDL
MODEL 4
REMARK VINA RESULT:      -8.2      1.241      1.277
REMARK  Name = 
REMARK  3 active torsions:
REMARK  status: ('A' for Active; 'I' for Inactive)
REMARK    1  A    between atoms: C_1  and  C_2
REMARK    2  A    between atoms: C_3  and  C_4
REMARK    3  A    between atoms: N_6  and  C_7
REMARK                            x       y       z     vdW  Elec       q    Type
REMARK                         _______ _______ _______ _____ _____    ______ ____
ROOT
ATOM      1  C   UNL     1       1.815   7.673  19.954  0.00  0.00    +0.000 C 
ATOM      2  O   UNL     1       2.229   6.790  20.703  0.00  0.00    +0.000 OA
ATOM      3  N   UNL     1       2.188   7.734  18.614  0.00  0.00    +0.000 N 
ATOM      4  H   UNL     1       2.010   8.608  18.129  0.00  0.00    +0.000 HD
ENDROOT
BRANCH   3   5
ATOM      5  C   UNL     1       3.014   6.749  17.994  0.00  0.00    +0.000 A 
ATOM      6  C   UNL     1       2.640   5.375  17.982  0.00  0.00    +0.000 A 
ATOM      7  C   UNL     1       3.483   4.363  17.515  0.00  0.00    +0.000 A 
ATOM      8  C   UNL     1       4.690   4.767  17.020  0.00  0.00    +0.000 A 
ATOM      9  N   UNL     1       5.736   4.000  16.528  0.00  0.00    +0.000 N 
ATOM     10  C   UNL     1       6.773   4.856  16.142  0.00  0.00    +0.000 A 
ATOM     11  O   UNL     1       7.849   4.527  15.677  0.00  0.00    +0.000 OA
ATOM     12  N   UNL     1       6.333   6.166  16.404  0.00  0.00    +0.000 N 
ATOM     13  C   UNL     1       5.054   6.112  16.956  0.00  0.00    +0.000 A 
ATOM     14  C   UNL     1       4.236   7.130  17.417  0.00  0.00    +0.000 A 
ATOM     15  H   UNL     1       5.780   2.995  16.470  0.00  0.00    +0.000 HD
ATOM     16  H   UNL     1       6.896   6.980  16.231  0.00  0.00    +0.000 HD
ENDBRANCH   3   5
BRANCH   1  19
ATOM     17  C   UNL     1       0.485  10.136  18.363  0.00  0.00    +0.000 C 
ATOM     18  C   UNL     1       0.373   9.784  19.806  0.00  0.00    +0.000 A 
ATOM     19  C   UNL     1       0.951   8.714  20.490  0.00  0.00    +0.000 A 
ATOM     20  O   UNL     1       0.591   8.761  21.817  0.00  0.00    +0.000 OA
ATOM     21  C   UNL     1      -0.212   9.862  21.976  0.00  0.00    +0.000 A 
ATOM     22  C   UNL     1      -0.805  10.300  23.163  0.00  0.00    +0.000 A 
ATOM     23  C   UNL     1      -1.597  11.460  23.082  0.00  0.00    +0.000 A 
ATOM     24  C   UNL     1      -1.770  12.125  21.872  0.00  0.00    +0.000 A 
ATOM     25  F   UNL     1      -2.531  13.229  21.829  0.00  0.00    +0.000 F 
ATOM     26  C   UNL     1      -1.171  11.675  20.700  0.00  0.00    +0.000 A 
ATOM     27  C   UNL     1      -0.373  10.518  20.760  0.00  0.00    +0.000 A 
ENDBRANCH   1  19
TORSDOF 2
ENDMDL
MODEL 5
REMARK VINA RESULT:      -8.1      3.982      9.102
REMARK  Name = 
REMARK  3 active torsions:
REMARK  status: ('A' for Active; 'I' for Inactive)
REMARK    1  A    between atoms: C_1  and  C_2
REMARK    2  A    between atoms: C_3  and  C_4
REMARK    3  A    between atoms: N_6  and  C_7
REMARK                            x       y       z     vdW  Elec       q    Type
REMARK                         _______ _______ _______ _____ _____    ______ ____
ROOT
ATOM      1  C   UNL     1       2.063   7.162  19.856  0.00  0.00    +0.000 C 
ATOM      2  O   UNL     1       1.590   6.483  20.764  0.00  0.00    +0.000 OA
ATOM      3  N   UNL     1       1.800   8.525  19.743  0.00  0.00    +0.000 N 
ATOM      4  H   UNL     1       2.017   8.961  18.852  0.00  0.00    +0.000 HD
ENDROOT
BRANCH   3   5
ATOM      5  C   UNL     1       1.025   9.245  20.701  0.00  0.00    +0.000 A 
ATOM      6  C   UNL     1       1.033   8.883  22.078  0.00  0.00    +0.000 A 
ATOM      7  C   UNL     1       0.184   9.467  23.022  0.00  0.00    +0.000 A 
ATOM      8  C   UNL     1      -0.640  10.453  22.560  0.00  0.00    +0.000 A 
ATOM      9  N   UNL     1      -1.604  11.179  23.242  0.00  0.00    +0.000 N 
ATOM     10  C   UNL     1      -2.202  12.074  22.349  0.00  0.00    +0.000 A 
ATOM     11  O   UNL     1      -3.097  12.861  22.602  0.00  0.00    +0.000 OA
ATOM     12  N   UNL     1      -1.575  11.883  21.106  0.00  0.00    +0.000 N 
ATOM     13  C   UNL     1      -0.620  10.875  21.230  0.00  0.00    +0.000 A 
ATOM     14  C   UNL     1       0.210  10.307  20.279  0.00  0.00    +0.000 A 
ATOM     15  H   UNL     1      -1.869  11.082  24.210  0.00  0.00    +0.000 HD
ATOM     16  H   UNL     1      -1.827  12.395  20.278  0.00  0.00    +0.000 HD
ENDBRANCH   3   5
BRANCH   1  19
ATOM     17  C   UNL     1       2.340   4.011  19.250  0.00  0.00    +0.000 C 
ATOM     18  C   UNL     1       3.008   5.157  18.573  0.00  0.00    +0.000 A 
ATOM     19  C   UNL     1       2.883   6.520  18.838  0.00  0.00    +0.000 A 
ATOM     20  O   UNL     1       3.680   7.238  17.976  0.00  0.00    +0.000 OA
ATOM     21  C   UNL     1       4.312   6.330  17.165  0.00  0.00    +0.000 A 
ATOM     22  C   UNL     1       5.220   6.612  16.141  0.00  0.00    +0.000 A 
ATOM     23  C   UNL     1       5.740   5.512  15.436  0.00  0.00    +0.000 A 
ATOM     24  C   UNL     1       5.358   4.212  15.756  0.00  0.00    +0.000 A 
ATOM     25  F   UNL     1       5.872   3.184  15.065  0.00  0.00    +0.000 F 
ATOM     26  C   UNL     1       4.454   3.949  16.780  0.00  0.00    +0.000 A 
ATOM     27  C   UNL     1       3.923   5.036  17.498  0.00  0.00    +0.000 A 
ENDBRANCH   1  19
TORSDOF 2
ENDMDL
MODEL 6
REMARK VINA RESULT:      -7.9      4.294      8.157
REMARK  Name = 
REMARK  3 active torsions:
REMARK  status: ('A' for Active; 'I' for Inactive)
REMARK    1  A    between atoms: C_1  and  C_2
REMARK    2  A    between atoms: C_3  and  C_4
REMARK    3  A    between atoms: N_6  and  C_7
REMARK                            x       y       z     vdW  Elec       q    Type
REMARK                         _______ _______ _______ _____ _____    ______ ____
ROOT
ATOM      1  C   UNL     1       1.877   8.340  18.840  0.00  0.00    +0.000 C 
ATOM      2  O   UNL     1       2.239   8.835  17.775  0.00  0.00    +0.000 OA
ATOM      3  N   UNL     1       1.077   9.038  19.741  0.00  0.00    +0.000 N 
ATOM      4  H   UNL     1       1.023   8.670  20.686  0.00  0.00    +0.000 HD
ENDROOT
BRANCH   3   5
ATOM      5  C   UNL     1       0.564  10.342  19.471  0.00  0.00    +0.000 A 
ATOM      6  C   UNL     1      -0.655  10.521  18.758  0.00  0.00    +0.000 A 
ATOM      7  C   UNL     1      -1.119  11.774  18.349  0.00  0.00    +0.000 A 
ATOM      8  C   UNL     1      -0.354  12.846  18.711  0.00  0.00    +0.000 A 
ATOM      9  N   UNL     1      -0.536  14.190  18.422  0.00  0.00    +0.000 N 
ATOM     10  C   UNL     1       0.511  14.916  19.000  0.00  0.00    +0.000 A 
ATOM     11  O   UNL     1       0.679  16.120  18.938  0.00  0.00    +0.000 OA
ATOM     12  N   UNL     1       1.334  13.984  19.656  0.00  0.00    +0.000 N 
ATOM     13  C   UNL     1       0.809  12.706  19.469  0.00  0.00    +0.000 A 
ATOM     14  C   UNL     1       1.288  11.473  19.881  0.00  0.00    +0.000 A 
ATOM     15  H   UNL     1      -1.272  14.600  17.870  0.00  0.00    +0.000 HD
ATOM     16  H   UNL     1       2.174  14.240  20.146  0.00  0.00    +0.000 HD
ENDBRANCH   3   5
BRANCH   1  19
ATOM     17  C   UNL     1       4.269   6.653  17.496  0.00  0.00    +0.000 C 
ATOM     18  C   UNL     1       3.368   6.270  18.618  0.00  0.00    +0.000 A 
ATOM     19  C   UNL     1       2.335   7.005  19.198  0.00  0.00    +0.000 A 
ATOM     20  O   UNL     1       1.754   6.276  20.210  0.00  0.00    +0.000 OA
ATOM     21  C   UNL     1       2.417   5.076  20.270  0.00  0.00    +0.000 A 
ATOM     22  C   UNL     1       2.160   4.022  21.151  0.00  0.00    +0.000 A 
ATOM     23  C   UNL     1       2.978   2.884  21.029  0.00  0.00    +0.000 A 
ATOM     24  C   UNL     1       3.989   2.828  20.073  0.00  0.00    +0.000 A 
ATOM     25  F   UNL     1       4.751   1.729  19.983  0.00  0.00    +0.000 F 
ATOM     26  C   UNL     1       4.229   3.887  19.204  0.00  0.00    +0.000 A 
ATOM     27  C   UNL     1       3.421   5.033  19.308  0.00  0.00    +0.000 A 
ENDBRANCH   1  19
TORSDOF 2
ENDMDL
MODEL 7
REMARK VINA RESULT:      -7.9      1.503      2.188
REMARK  Name = 
REMARK  3 active torsions:
REMARK  status: ('A' for Active; 'I' for Inactive)
REMARK    1  A    between atoms: C_1  and  C_2
REMARK    2  A    between atoms: C_3  and  C_4
REMARK    3  A    between atoms: N_6  and  C_7
REMARK                            x       y       z     vdW  Elec       q    Type
REMARK                         _______ _______ _______ _____ _____    ______ ____
ROOT
ATOM      1  C   UNL     1       1.665   8.174  19.688  0.00  0.00    +0.000 C 
ATOM      2  O   UNL     1       2.100   7.482  20.606  0.00  0.00    +0.000 OA
ATOM      3  N   UNL     1       2.053   7.970  18.366  0.00  0.00    +0.000 N 
ATOM      4  H   UNL     1       1.852   8.717  17.709  0.00  0.00    +0.000 HD
ENDROOT
BRANCH   3   5
ATOM      5  C   UNL     1       2.922   6.910  17.970  0.00  0.00    +0.000 A 
ATOM      6  C   UNL     1       2.483   5.555  17.976  0.00  0.00    +0.000 A 
ATOM      7  C   UNL     1       3.339   4.478  17.734  0.00  0.00    +0.000 A 
ATOM      8  C   UNL     1       4.636   4.794  17.443  0.00  0.00    +0.000 A 
ATOM      9  N   UNL     1       5.709   3.951  17.198  0.00  0.00    +0.000 N 
ATOM     10  C   UNL     1       6.843   4.733  16.954  0.00  0.00    +0.000 A 
ATOM     11  O   UNL     1       7.966   4.327  16.714  0.00  0.00    +0.000 OA
ATOM     12  N   UNL     1       6.436   6.075  17.049  0.00  0.00    +0.000 N 
ATOM     13  C   UNL     1       5.078   6.115  17.362  0.00  0.00    +0.000 A 
ATOM     14  C   UNL     1       4.246   7.196  17.602  0.00  0.00    +0.000 A 
ATOM     15  H   UNL     1       5.708   2.944  17.212  0.00  0.00    +0.000 HD
ATOM     16  H   UNL     1       7.064   6.851  16.931  0.00  0.00    +0.000 HD
ENDBRANCH   3   5
BRANCH   1  19
ATOM     17  C   UNL     1       0.812   9.281  22.590  0.00  0.00    +0.000 C 
ATOM     18  C   UNL     1       0.383   9.753  21.244  0.00  0.00    +0.000 A 
ATOM     19  C   UNL     1       0.757   9.271  19.990  0.00  0.00    +0.000 A 
ATOM     20  O   UNL     1       0.124   9.994  19.005  0.00  0.00    +0.000 OA
ATOM     21  C   UNL     1      -0.654  10.933  19.634  0.00  0.00    +0.000 A 
ATOM     22  C   UNL     1      -1.475  11.884  19.023  0.00  0.00    +0.000 A 
ATOM     23  C   UNL     1      -2.180  12.752  19.877  0.00  0.00    +0.000 A 
ATOM     24  C   UNL     1      -2.054  12.653  21.259  0.00  0.00    +0.000 A 
ATOM     25  F   UNL     1      -2.740  13.495  22.046  0.00  0.00    +0.000 F 
ATOM     26  C   UNL     1      -1.233  11.698  21.850  0.00  0.00    +0.000 A 
ATOM     27  C   UNL     1      -0.521  10.820  21.014  0.00  0.00    +0.000 A 
ENDBRANCH   1  19
TORSDOF 2
ENDMDL
MODEL 8
REMARK VINA RESULT:      -7.9      1.369      1.420
REMARK  Name = 
REMARK  3 active torsions:
REMARK  status: ('A' for Active; 'I' for Inactive)
REMARK    1  A    between atoms: C_1  and  C_2
REMARK    2  A    between atoms: C_3  and  C_4
REMARK    3  A    between atoms: N_6  and  C_7
REMARK                            x       y       z     vdW  Elec       q    Type
REMARK                         _______ _______ _______ _____ _____    ______ ____
ROOT
ATOM      1  C   UNL     1       2.247   7.024  19.661  0.00  0.00    +0.000 C 
ATOM      2  O   UNL     1       1.966   5.846  19.869  0.00  0.00    +0.000 OA
ATOM      3  N   UNL     1       3.337   7.393  18.877  0.00  0.00    +0.000 N 
ATOM      4  H   UNL     1       3.648   8.357  18.950  0.00  0.00    +0.000 HD
ENDROOT
BRANCH   3   5
ATOM      5  C   UNL     1       4.163   6.443  18.205  0.00  0.00    +0.000 A 
ATOM      6  C   UNL     1       4.834   5.412  18.921  0.00  0.00    +0.000 A 
ATOM      7  C   UNL     1       5.761   4.553  18.325  0.00  0.00    +0.000 A 
ATOM      8  C   UNL     1       5.965   4.724  16.985  0.00  0.00    +0.000 A 
ATOM      9  N   UNL     1       6.838   4.057  16.140  0.00  0.00    +0.000 N 
ATOM     10  C   UNL     1       6.700   4.583  14.852  0.00  0.00    +0.000 A 
ATOM     11  O   UNL     1       7.320   4.243  13.860  0.00  0.00    +0.000 OA
ATOM     12  N   UNL     1       5.716   5.584  14.928  0.00  0.00    +0.000 N 
ATOM     13  C   UNL     1       5.270   5.681  16.245  0.00  0.00    +0.000 A 
ATOM     14  C   UNL     1       4.350   6.544  16.817  0.00  0.00    +0.000 A 
ATOM     15  H   UNL     1       7.491   3.330  16.389  0.00  0.00    +0.000 HD
ATOM     16  H   UNL     1       5.431   6.137  14.138  0.00  0.00    +0.000 HD
ENDBRANCH   3   5
BRANCH   1  19
ATOM     17  C   UNL     1       1.026   9.666  18.283  0.00  0.00    +0.000 C 
ATOM     18  C   UNL     1       0.921   9.215  19.698  0.00  0.00    +0.000 A 
ATOM     19  C   UNL     1       1.451   8.068  20.290  0.00  0.00    +0.000 A 
ATOM     20  O   UNL     1       1.119   8.037  21.624  0.00  0.00    +0.000 OA
ATOM     21  C   UNL     1       0.380   9.165  21.881  0.00  0.00    +0.000 A 
ATOM     22  C   UNL     1      -0.166   9.546  23.109  0.00  0.00    +0.000 A 
ATOM     23  C   UNL     1      -0.894  10.749  23.131  0.00  0.00    +0.000 A 
ATOM     24  C   UNL     1      -1.052  11.510  21.976  0.00  0.00    +0.000 A 
ATOM     25  F   UNL     1      -1.752  12.653  22.030  0.00  0.00    +0.000 F 
ATOM     26  C   UNL     1      -0.500  11.116  20.762  0.00  0.00    +0.000 A 
ATOM     27  C   UNL     1       0.234   9.916  20.719  0.00  0.00    +0.000 A 
ENDBRANCH   1  19
TORSDOF 2
ENDMDL
MODEL 9
REMARK VINA RESULT:      -7.9      4.185      9.031
REMARK  Name = 
REMARK  3 active torsions:
REMARK  status: ('A' for Active; 'I' for Inactive)
REMARK    1  A    between atoms: C_1  and  C_2
REMARK    2  A    between atoms: C_3  and  C_4
REMARK    3  A    between atoms: N_6  and  C_7
REMARK                            x       y       z     vdW  Elec       q    Type
REMARK                         _______ _______ _______ _____ _____    ______ ____
ROOT
ATOM      1  C   UNL     1       2.105   8.082  18.706  0.00  0.00    +0.000 C 
ATOM      2  O   UNL     1       1.844   7.929  19.897  0.00  0.00    +0.000 OA
ATOM      3  N   UNL     1       1.501   9.079  17.944  0.00  0.00    +0.000 N 
ATOM      4  H   UNL     1       1.576   8.992  16.935  0.00  0.00    +0.000 HD
ENDROOT
BRANCH   3   5
ATOM      5  C   UNL     1       0.595  10.033  18.495  0.00  0.00    +0.000 A 
ATOM      6  C   UNL     1       0.978  10.872  19.580  0.00  0.00    +0.000 A 
ATOM      7  C   UNL     1       0.081  11.715  20.241  0.00  0.00    +0.000 A 
ATOM      8  C   UNL     1      -1.197  11.730  19.760  0.00  0.00    +0.000 A 
ATOM      9  N   UNL     1      -2.300  12.428  20.226  0.00  0.00    +0.000 N 
ATOM     10  C   UNL     1      -3.398  12.119  19.415  0.00  0.00    +0.000 A 
ATOM     11  O   UNL     1      -4.533  12.543  19.539  0.00  0.00    +0.000 OA
ATOM     12  N   UNL     1      -2.937  11.221  18.437  0.00  0.00    +0.000 N 
ATOM     13  C   UNL     1      -1.583  10.970  18.655  0.00  0.00    +0.000 A 
ATOM     14  C   UNL     1      -0.711  10.126  17.988  0.00  0.00    +0.000 A 
ATOM     15  H   UNL     1      -2.341  13.040  21.025  0.00  0.00    +0.000 HD
ATOM     16  H   UNL     1      -3.531  10.826  17.729  0.00  0.00    +0.000 HD
ENDBRANCH   3   5
BRANCH   1  19
ATOM     17  C   UNL     1       1.707   4.934  18.155  0.00  0.00    +0.000 C 
ATOM     18  C   UNL     1       2.867   5.805  17.817  0.00  0.00    +0.000 A 
ATOM     19  C   UNL     1       3.033   7.169  18.056  0.00  0.00    +0.000 A 
ATOM     20  O   UNL     1       4.258   7.579  17.582  0.00  0.00    +0.000 OA
ATOM     21  C   UNL     1       4.870   6.475  17.045  0.00  0.00    +0.000 A 
ATOM     22  C   UNL     1       6.134   6.425  16.450  0.00  0.00    +0.000 A 
ATOM     23  C   UNL     1       6.553   5.175  15.962  0.00  0.00    +0.000 A 
ATOM     24  C   UNL     1       5.737   4.053  16.074  0.00  0.00    +0.000 A 
ATOM     25  F   UNL     1       6.166   2.874  15.598  0.00  0.00    +0.000 F 
ATOM     26  C   UNL     1       4.483   4.120  16.670  0.00  0.00    +0.000 A 
ATOM     27  C   UNL     1       4.045   5.361  17.166  0.00  0.00    +0.000 A 
ENDBRANCH   1  19
TORSDOF 2
ENDMDL
