MODEL 1
REMARK VINA RESULT:      -8.8      0.000      0.000
REMARK  Name = 
REMARK  4 active torsions:
REMARK  status: ('A' for Active; 'I' for Inactive)
REMARK    1  A    between atoms: C_1  and  C_2
REMARK    2  A    between atoms: C_5  and  C_6
REMARK    3  A    between atoms: N_8  and  C_9
REMARK    4  A    between atoms: C_16  and  C_18
REMARK                            x       y       z     vdW  Elec       q    Type
REMARK                         _______ _______ _______ _____ _____    ______ ____
ROOT
ATOM      1  C   UNL     1       1.823   5.538  19.390  0.00  0.00    +0.000 C 
ATOM      2  C   UNL     1       1.019   4.239  19.100  0.00  0.00    +0.000 C 
ATOM      3  C   UNL     1       2.006   3.131  19.536  0.00  0.00    +0.000 C 
ATOM      4  C   UNL     1       1.956   3.050  21.069  0.00  0.00    +0.000 C 
ATOM      5  C   UNL     1       2.670   4.351  21.489  0.00  0.00    +0.000 C 
ATOM      6  C   UNL     1       3.061   4.980  20.142  0.00  0.00    +0.000 C 
ATOM      7  N   UNL     1       3.285   3.783  19.356  0.00  0.00    +0.000 N 
ATOM      8  C   UNL     1       4.279   3.382  18.483  0.00  0.00    +0.000 C 
ATOM      9  O   UNL     1       4.210   2.313  17.887  0.00  0.00    +0.000 OA
ENDROOT
BRANCH   8  10
ATOM     10  C   UNL     1       5.468   4.263  18.278  0.00  0.00    +0.000 A 
ATOM     11  C   UNL     1       6.081   4.935  19.353  0.00  0.00    +0.000 A 
ATOM     12  C   UNL     1       7.231   5.698  19.191  0.00  0.00    +0.000 A 
ATOM     13  C   UNL     1       7.768   5.904  17.925  0.00  0.00    +0.000 A 
ATOM     14  C   UNL     1       7.114   5.311  16.839  0.00  0.00    +0.000 A 
ATOM     15  N   UNL     1       7.407   5.393  15.497  0.00  0.00    +0.000 N 
ATOM     16  C   UNL     1       6.524   4.643  14.772  0.00  0.00    +0.000 A 
ATOM     17  C   UNL     1       5.635   4.072  15.657  0.00  0.00    +0.000 A 
ATOM     18  C   UNL     1       5.985   4.490  16.977  0.00  0.00    +0.000 A 
ATOM     19  H   UNL     1       8.164   5.939  15.111  0.00  0.00    +0.000 HD
ENDBRANCH   8  10
BRANCH   1  22
ATOM     20  C   UNL     1       1.387   7.917  19.870  0.00  0.00    +0.000 C 
ATOM     21  O   UNL     1       2.207   8.291  19.037  0.00  0.00    +0.000 OA
ATOM     22  N   UNL     1       1.088   6.581  20.072  0.00  0.00    +0.000 N 
ATOM     23  H   UNL     1       0.566   6.336  20.908  0.00  0.00    +0.000 HD
BRANCH  20  28
ATOM     24  C   UNL     1      -1.375  11.764  23.240  0.00  0.00    +0.000 C 
ATOM     25  C   UNL     1      -0.641  10.779  22.379  0.00  0.00    +0.000 A 
ATOM     26  C   UNL     1       0.069   9.708  22.934  0.00  0.00    +0.000 A 
ATOM     27  C   UNL     1       0.722   8.786  22.107  0.00  0.00    +0.000 A 
ATOM     28  C   UNL     1       0.675   8.919  20.710  0.00  0.00    +0.000 A 
ATOM     29  C   UNL     1      -0.030   9.994  20.170  0.00  0.00    +0.000 A 
ATOM     30  F   UNL     1      -0.119  10.168  18.841  0.00  0.00    +0.000 F 
ATOM     31  C   UNL     1      -0.677  10.917  20.988  0.00  0.00    +0.000 A 
ENDBRANCH  20  28
ENDBRANCH   1  22
TORSDOF 3
ENDMDL
MODEL 2
REMARK VINA RESULT:      -8.7      3.785      9.418
REMARK  Name = 
REMARK  4 active torsions:
REMARK  status: ('A' for Active; 'I' for Inactive)
REMARK    1  A    between atoms: C_1  and  C_2
REMARK    2  A    between atoms: C_5  and  C_6
REMARK    3  A    between atoms: N_8  and  C_9
REMARK    4  A    between atoms: C_16  and  C_18
REMARK                            x       y       z     vdW  Elec       q    Type
REMARK                         _______ _______ _______ _____ _____    ______ ____
ROOT
ATOM      1  C   UNL     1       0.842  10.077  19.551  0.00  0.00    +0.000 C 
ATOM      2  C   UNL     1       1.349  11.228  20.465  0.00  0.00    +0.000 C 
ATOM      3  C   UNL     1       0.039  11.753  21.099  0.00  0.00    +0.000 C 
ATOM      4  C   UNL     1      -0.352  10.776  22.219  0.00  0.00    +0.000 C 
ATOM      5  C   UNL     1      -0.810   9.535  21.425  0.00  0.00    +0.000 C 
ATOM      6  C   UNL     1      -0.652   9.984  19.963  0.00  0.00    +0.000 C 
ATOM      7  N   UNL     1      -0.941  11.397  20.096  0.00  0.00    +0.000 N 
ATOM      8  C   UNL     1      -1.727  12.285  19.386  0.00  0.00    +0.000 C 
ATOM      9  O   UNL     1      -1.764  13.476  19.676  0.00  0.00    +0.000 OA
ENDROOT
BRANCH   8  10
ATOM     10  C   UNL     1      -2.560  11.778  18.254  0.00  0.00    +0.000 A 
ATOM     11  C   UNL     1      -1.979  11.374  17.037  0.00  0.00    +0.000 A 
ATOM     12  C   UNL     1      -2.731  10.830  16.002  0.00  0.00    +0.000 A 
ATOM     13  C   UNL     1      -4.116  10.754  16.101  0.00  0.00    +0.000 A 
ATOM     14  C   UNL     1      -4.709  11.234  17.274  0.00  0.00    +0.000 A 
ATOM     15  N   UNL     1      -6.043  11.316  17.603  0.00  0.00    +0.000 N 
ATOM     16  C   UNL     1      -6.190  11.833  18.860  0.00  0.00    +0.000 A 
ATOM     17  C   UNL     1      -4.932  12.100  19.352  0.00  0.00    +0.000 A 
ATOM     18  C   UNL     1      -3.974  11.736  18.357  0.00  0.00    +0.000 A 
ATOM     19  H   UNL     1      -6.799  11.040  16.993  0.00  0.00    +0.000 HD
ENDBRANCH   8  10
BRANCH   1  22
ATOM     20  C   UNL     1       2.144   8.266  18.500  0.00  0.00    +0.000 C 
ATOM     21  O   UNL     1       2.110   8.807  17.399  0.00  0.00    +0.000 OA
ATOM     22  N   UNL     1       1.597   8.845  19.632  0.00  0.00    +0.000 N 
ATOM     23  H   UNL     1       1.476   8.257  20.451  0.00  0.00    +0.000 HD
BRANCH  20  28
ATOM     24  C   UNL     1       4.618   3.051  19.188  0.00  0.00    +0.000 C 
ATOM     25  C   UNL     1       3.958   4.386  19.006  0.00  0.00    +0.000 A 
ATOM     26  C   UNL     1       2.995   4.855  19.907  0.00  0.00    +0.000 A 
ATOM     27  C   UNL     1       2.415   6.118  19.731  0.00  0.00    +0.000 A 
ATOM     28  C   UNL     1       2.789   6.932  18.650  0.00  0.00    +0.000 A 
ATOM     29  C   UNL     1       3.744   6.451  17.756  0.00  0.00    +0.000 A 
ATOM     30  F   UNL     1       4.150   7.188  16.710  0.00  0.00    +0.000 F 
ATOM     31  C   UNL     1       4.321   5.194  17.923  0.00  0.00    +0.000 A 
ENDBRANCH  20  28
ENDBRANCH   1  22
TORSDOF 3
ENDMDL
MODEL 3
REMARK VINA RESULT:      -8.7      3.837      9.535
REMARK  Name = 
REMARK  4 active torsions:
REMARK  status: ('A' for Active; 'I' for Inactive)
REMARK    1  A    between atoms: C_1  and  C_2
REMARK    2  A    between atoms: C_5  and  C_6
REMARK    3  A    between atoms: N_8  and  C_9
REMARK    4  A    between atoms: C_16  and  C_18
REMARK                            x       y       z     vdW  Elec       q    Type
REMARK                         _______ _______ _______ _____ _____    ______ ____
ROOT
ATOM      1  C   UNL     1       0.794  10.493  19.695  0.00  0.00    +0.000 C 
ATOM      2  C   UNL     1       1.113  11.571  20.769  0.00  0.00    +0.000 C 
ATOM      3  C   UNL     1      -0.265  11.804  21.430  0.00  0.00    +0.000 C 
ATOM      4  C   UNL     1      -0.513  10.637  22.398  0.00  0.00    +0.000 C 
ATOM      5  C   UNL     1      -0.771   9.461  21.433  0.00  0.00    +0.000 C 
ATOM      6  C   UNL     1      -0.672  10.123  20.049  0.00  0.00    +0.000 C 
ATOM      7  N   UNL     1      -1.173  11.446  20.362  0.00  0.00    +0.000 N 
ATOM      8  C   UNL     1      -2.079  12.295  19.754  0.00  0.00    +0.000 C 
ATOM      9  O   UNL     1      -2.298  13.417  20.200  0.00  0.00    +0.000 OA
ENDROOT
BRANCH   8  10
ATOM     10  C   UNL     1      -2.817  11.828  18.542  0.00  0.00    +0.000 A 
ATOM     11  C   UNL     1      -2.142  11.503  17.350  0.00  0.00    +0.000 A 
ATOM     12  C   UNL     1      -2.805  10.996  16.238  0.00  0.00    +0.000 A 
ATOM     13  C   UNL     1      -4.190  10.881  16.235  0.00  0.00    +0.000 A 
ATOM     14  C   UNL     1      -4.877  11.284  17.386  0.00  0.00    +0.000 A 
ATOM     15  N   UNL     1      -6.232  11.316  17.624  0.00  0.00    +0.000 N 
ATOM     16  C   UNL     1      -6.481  11.762  18.891  0.00  0.00    +0.000 A 
ATOM     17  C   UNL     1      -5.267  12.034  19.484  0.00  0.00    +0.000 A 
ATOM     18  C   UNL     1      -4.233  11.747  18.542  0.00  0.00    +0.000 A 
ATOM     19  H   UNL     1      -6.935  11.054  16.948  0.00  0.00    +0.000 HD
ENDBRANCH   8  10
BRANCH   1  22
ATOM     20  C   UNL     1       1.847   8.619  18.488  0.00  0.00    +0.000 C 
ATOM     21  O   UNL     1       1.258   8.888  17.446  0.00  0.00    +0.000 OA
ATOM     22  N   UNL     1       1.726   9.388  19.632  0.00  0.00    +0.000 N 
ATOM     23  H   UNL     1       2.068   8.995  20.503  0.00  0.00    +0.000 HD
BRANCH  20  28
ATOM     24  C   UNL     1       5.328   3.967  18.632  0.00  0.00    +0.000 C 
ATOM     25  C   UNL     1       4.449   5.182  18.600  0.00  0.00    +0.000 A 
ATOM     26  C   UNL     1       4.574   6.149  17.596  0.00  0.00    +0.000 A 
ATOM     27  C   UNL     1       3.722   7.260  17.571  0.00  0.00    +0.000 A 
ATOM     28  C   UNL     1       2.729   7.421  18.552  0.00  0.00    +0.000 A 
ATOM     29  C   UNL     1       2.619   6.454  19.550  0.00  0.00    +0.000 A 
ATOM     30  F   UNL     1       1.683   6.548  20.508  0.00  0.00    +0.000 F 
ATOM     31  C   UNL     1       3.468   5.349  19.582  0.00  0.00    +0.000 A 
ENDBRANCH  20  28
ENDBRANCH   1  22
TORSDOF 3
ENDMDL
MODEL 4
REMARK VINA RESULT:      -8.6      3.417      9.038
REMARK  Name = 
REMARK  4 active torsions:
REMARK  status: ('A' for Active; 'I' for Inactive)
REMARK    1  A    between atoms: C_1  and  C_2
REMARK    2  A    between atoms: C_5  and  C_6
REMARK    3  A    between atoms: N_8  and  C_9
REMARK    4  A    between atoms: C_16  and  C_18
REMARK                            x       y       z     vdW  Elec       q    Type
REMARK                         _______ _______ _______ _____ _____    ______ ____
ROOT
ATOM      1  C   UNL     1       1.059   9.248  20.280  0.00  0.00    +0.000 C 
ATOM      2  C   UNL     1       1.516  10.366  21.258  0.00  0.00    +0.000 C 
ATOM      3  C   UNL     1       0.172  10.947  21.754  0.00  0.00    +0.000 C 
ATOM      4  C   UNL     1      -0.382   9.980  22.812  0.00  0.00    +0.000 C 
ATOM      5  C   UNL     1      -0.808   8.769  21.958  0.00  0.00    +0.000 C 
ATOM      6  C   UNL     1      -0.473   9.221  20.528  0.00  0.00    +0.000 C 
ATOM      7  N   UNL     1      -0.710  10.646  20.647  0.00  0.00    +0.000 N 
ATOM      8  C   UNL     1      -1.374  11.575  19.868  0.00  0.00    +0.000 C 
ATOM      9  O   UNL     1      -1.387  12.764  20.169  0.00  0.00    +0.000 OA
ENDROOT
BRANCH   8  10
ATOM     10  C   UNL     1      -2.102  11.117  18.647  0.00  0.00    +0.000 A 
ATOM     11  C   UNL     1      -1.448  10.403  17.625  0.00  0.00    +0.000 A 
ATOM     12  C   UNL     1      -2.126   9.904  16.518  0.00  0.00    +0.000 A 
ATOM     13  C   UNL     1      -3.476  10.181  16.336  0.00  0.00    +0.000 A 
ATOM     14  C   UNL     1      -4.114  10.963  17.305  0.00  0.00    +0.000 A 
ATOM     15  N   UNL     1      -5.415  11.414  17.341  0.00  0.00    +0.000 N 
ATOM     16  C   UNL     1      -5.635  12.137  18.479  0.00  0.00    +0.000 A 
ATOM     17  C   UNL     1      -4.455  12.165  19.191  0.00  0.00    +0.000 A 
ATOM     18  C   UNL     1      -3.471  11.433  18.459  0.00  0.00    +0.000 A 
ATOM     19  H   UNL     1      -6.098  11.238  16.619  0.00  0.00    +0.000 HD
ENDBRANCH   8  10
BRANCH   1  22
ATOM     20  C   UNL     1       2.233   7.302  19.323  0.00  0.00    +0.000 C 
ATOM     21  O   UNL     1       2.208   7.775  18.191  0.00  0.00    +0.000 OA
ATOM     22  N   UNL     1       1.743   7.981  20.425  0.00  0.00    +0.000 N 
ATOM     23  H   UNL     1       1.606   7.453  21.281  0.00  0.00    +0.000 HD
BRANCH  20  28
ATOM     24  C   UNL     1       4.544   2.028  20.119  0.00  0.00    +0.000 C 
ATOM     25  C   UNL     1       3.965   3.399  19.928  0.00  0.00    +0.000 A 
ATOM     26  C   UNL     1       4.664   4.401  19.245  0.00  0.00    +0.000 A 
ATOM     27  C   UNL     1       4.090   5.664  19.055  0.00  0.00    +0.000 A 
ATOM     28  C   UNL     1       2.804   5.945  19.545  0.00  0.00    +0.000 A 
ATOM     29  C   UNL     1       2.120   4.941  20.229  0.00  0.00    +0.000 A 
ATOM     30  F   UNL     1       0.884   5.147  20.711  0.00  0.00    +0.000 F 
ATOM     31  C   UNL     1       2.689   3.684  20.425  0.00  0.00    +0.000 A 
ENDBRANCH  20  28
ENDBRANCH   1  22
TORSDOF 3
ENDMDL
MODEL 5
REMARK VINA RESULT:      -8.2      0.879      1.247
REMARK  Name = 
REMARK  4 active torsions:
REMARK  status: ('A' for Active; 'I' for Inactive)
REMARK    1  A    between atoms: C_1  and  C_2
REMARK    2  A    between atoms: C_5  and  C_6
REMARK    3  A    between atoms: N_8  and  C_9
REMARK    4  A    between atoms: C_16  and  C_18
REMARK                            x       y       z     vdW  Elec       q    Type
REMARK                         _______ _______ _______ _____ _____    ______ ____
ROOT
ATOM      1  C   UNL     1       1.860   5.702  19.312  0.00  0.00    +0.000 C 
ATOM      2  C   UNL     1       1.030   4.434  18.969  0.00  0.00    +0.000 C 
ATOM      3  C   UNL     1       1.974   3.288  19.404  0.00  0.00    +0.000 C 
ATOM      4  C   UNL     1       1.881   3.173  20.933  0.00  0.00    +0.000 C 
ATOM      5  C   UNL     1       2.618   4.443  21.403  0.00  0.00    +0.000 C 
ATOM      6  C   UNL     1       3.062   5.092  20.082  0.00  0.00    +0.000 C 
ATOM      7  N   UNL     1       3.274   3.908  19.274  0.00  0.00    +0.000 N 
ATOM      8  C   UNL     1       4.281   3.501  18.418  0.00  0.00    +0.000 C 
ATOM      9  O   UNL     1       4.198   2.448  17.795  0.00  0.00    +0.000 OA
ENDROOT
BRANCH   8  10
ATOM     10  C   UNL     1       5.498   4.353  18.266  0.00  0.00    +0.000 A 
ATOM     11  C   UNL     1       6.107   4.972  19.374  0.00  0.00    +0.000 A 
ATOM     12  C   UNL     1       7.282   5.706  19.260  0.00  0.00    +0.000 A 
ATOM     13  C   UNL     1       7.851   5.936  18.012  0.00  0.00    +0.000 A 
ATOM     14  C   UNL     1       7.204   5.397  16.895  0.00  0.00    +0.000 A 
ATOM     15  N   UNL     1       7.528   5.512  15.562  0.00  0.00    +0.000 N 
ATOM     16  C   UNL     1       6.639   4.812  14.796  0.00  0.00    +0.000 A 
ATOM     17  C   UNL     1       5.716   4.240  15.644  0.00  0.00    +0.000 A 
ATOM     18  C   UNL     1       6.049   4.606  16.983  0.00  0.00    +0.000 A 
ATOM     19  H   UNL     1       8.308   6.048  15.210  0.00  0.00    +0.000 HD
ENDBRANCH   8  10
BRANCH   1  22
ATOM     20  C   UNL     1       1.381   8.084  19.730  0.00  0.00    +0.000 C 
ATOM     21  O   UNL     1       2.137   8.450  18.836  0.00  0.00    +0.000 OA
ATOM     22  N   UNL     1       1.136   6.749  20.000  0.00  0.00    +0.000 N 
ATOM     23  H   UNL     1       0.673   6.522  20.874  0.00  0.00    +0.000 HD
BRANCH  20  28
ATOM     24  C   UNL     1      -1.348  12.091  22.937  0.00  0.00    +0.000 C 
ATOM     25  C   UNL     1      -0.666  11.046  22.105  0.00  0.00    +0.000 A 
ATOM     26  C   UNL     1      -0.863  10.968  20.721  0.00  0.00    +0.000 A 
ATOM     27  C   UNL     1      -0.192  10.002  19.963  0.00  0.00    +0.000 A 
ATOM     28  C   UNL     1       0.690   9.097  20.576  0.00  0.00    +0.000 A 
ATOM     29  C   UNL     1       0.874   9.181  21.955  0.00  0.00    +0.000 A 
ATOM     30  F   UNL     1       1.712   8.350  22.596  0.00  0.00    +0.000 F 
ATOM     31  C   UNL     1       0.204  10.137  22.716  0.00  0.00    +0.000 A 
ENDBRANCH  20  28
ENDBRANCH   1  22
TORSDOF 3
ENDMDL
MODEL 6
REMARK VINA RESULT:      -8.2      2.930      8.434
REMARK  Name = 
REMARK  4 active torsions:
REMARK  status: ('A' for Active; 'I' for Inactive)
REMARK    1  A    between atoms: C_1  and  C_2
REMARK    2  A    between atoms: C_5  and  C_6
REMARK    3  A    between atoms: N_8  and  C_9
REMARK    4  A    between atoms: C_16  and  C_18
REMARK                            x       y       z     vdW  Elec       q    Type
REMARK                         _______ _______ _______ _____ _____    ______ ____
ROOT
ATOM      1  C   UNL     1       4.392   4.682  17.918  0.00  0.00    +0.000 C 
ATOM      2  C   UNL     1       4.440   3.691  19.114  0.00  0.00    +0.000 C 
ATOM      3  C   UNL     1       2.990   3.740  19.648  0.00  0.00    +0.000 C 
ATOM      4  C   UNL     1       2.128   2.875  18.716  0.00  0.00    +0.000 C 
ATOM      5  C   UNL     1       2.069   3.732  17.435  0.00  0.00    +0.000 C 
ATOM      6  C   UNL     1       2.873   4.984  17.822  0.00  0.00    +0.000 C 
ATOM      7  N   UNL     1       2.565   5.060  19.236  0.00  0.00    +0.000 N 
ATOM      8  C   UNL     1       2.190   6.088  20.080  0.00  0.00    +0.000 C 
ATOM      9  O   UNL     1       2.035   5.900  21.283  0.00  0.00    +0.000 OA
ENDROOT
BRANCH   8  10
ATOM     10  C   UNL     1       1.954   7.449  19.513  0.00  0.00    +0.000 A 
ATOM     11  C   UNL     1       2.440   7.811  18.242  0.00  0.00    +0.000 A 
ATOM     12  C   UNL     1       2.166   9.047  17.668  0.00  0.00    +0.000 A 
ATOM     13  C   UNL     1       1.471  10.017  18.381  0.00  0.00    +0.000 A 
ATOM     14  C   UNL     1       1.059   9.696  19.679  0.00  0.00    +0.000 A 
ATOM     15  N   UNL     1       0.404  10.479  20.603  0.00  0.00    +0.000 N 
ATOM     16  C   UNL     1       0.173   9.770  21.748  0.00  0.00    +0.000 A 
ATOM     17  C   UNL     1       0.695   8.507  21.569  0.00  0.00    +0.000 A 
ATOM     18  C   UNL     1       1.272   8.440  20.265  0.00  0.00    +0.000 A 
ATOM     19  H   UNL     1       0.144  11.443  20.450  0.00  0.00    +0.000 HD
ENDBRANCH   8  10
BRANCH   1  22
ATOM     20  C   UNL     1       5.301   5.083  15.661  0.00  0.00    +0.000 C 
ATOM     21  O   UNL     1       5.132   6.294  15.749  0.00  0.00    +0.000 OA
ATOM     22  N   UNL     1       5.020   4.214  16.701  0.00  0.00    +0.000 N 
ATOM     23  H   UNL     1       4.984   3.222  16.490  0.00  0.00    +0.000 HD
BRANCH  20  28
ATOM     24  C   UNL     1       7.251   2.733  10.715  0.00  0.00    +0.000 C 
ATOM     25  C   UNL     1       6.731   3.353  11.978  0.00  0.00    +0.000 A 
ATOM     26  C   UNL     1       5.434   3.099  12.439  0.00  0.00    +0.000 A 
ATOM     27  C   UNL     1       4.983   3.667  13.637  0.00  0.00    +0.000 A 
ATOM     28  C   UNL     1       5.824   4.498  14.395  0.00  0.00    +0.000 A 
ATOM     29  C   UNL     1       7.111   4.748  13.923  0.00  0.00    +0.000 A 
ATOM     30  F   UNL     1       7.964   5.526  14.609  0.00  0.00    +0.000 F 
ATOM     31  C   UNL     1       7.563   4.190  12.729  0.00  0.00    +0.000 A 
ENDBRANCH  20  28
ENDBRANCH   1  22
TORSDOF 3
ENDMDL
MODEL 7
REMARK VINA RESULT:      -8.1      3.708      9.476
REMARK  Name = 
REMARK  4 active torsions:
REMARK  status: ('A' for Active; 'I' for Inactive)
REMARK    1  A    between atoms: C_1  and  C_2
REMARK    2  A    between atoms: C_5  and  C_6
REMARK    3  A    between atoms: N_8  and  C_9
REMARK    4  A    between atoms: C_16  and  C_18
REMARK                            x       y       z     vdW  Elec       q    Type
REMARK                         _______ _______ _______ _____ _____    ______ ____
ROOT
ATOM      1  C   UNL     1       1.127   9.848  18.695  0.00  0.00    +0.000 C 
ATOM      2  C   UNL     1       2.120  11.044  18.706  0.00  0.00    +0.000 C 
ATOM      3  C   UNL     1       1.309  12.147  19.425  0.00  0.00    +0.000 C 
ATOM      4  C   UNL     1       1.357  11.843  20.931  0.00  0.00    +0.000 C 
ATOM      5  C   UNL     1       0.451  10.600  21.043  0.00  0.00    +0.000 C 
ATOM      6  C   UNL     1      -0.019  10.384  19.595  0.00  0.00    +0.000 C 
ATOM      7  N   UNL     1      -0.053  11.756  19.130  0.00  0.00    +0.000 N 
ATOM      8  C   UNL     1      -0.967  12.501  18.409  0.00  0.00    +0.000 C 
ATOM      9  O   UNL     1      -0.732  13.661  18.088  0.00  0.00    +0.000 OA
ENDROOT
BRANCH   8  10
ATOM     10  C   UNL     1      -2.273  11.884  18.030  0.00  0.00    +0.000 A 
ATOM     11  C   UNL     1      -2.430  11.173  16.825  0.00  0.00    +0.000 A 
ATOM     12  C   UNL     1      -3.616  10.529  16.492  0.00  0.00    +0.000 A 
ATOM     13  C   UNL     1      -4.735  10.648  17.309  0.00  0.00    +0.000 A 
ATOM     14  C   UNL     1      -4.614  11.424  18.466  0.00  0.00    +0.000 A 
ATOM     15  N   UNL     1      -5.567  11.736  19.409  0.00  0.00    +0.000 N 
ATOM     16  C   UNL     1      -5.024  12.509  20.396  0.00  0.00    +0.000 A 
ATOM     17  C   UNL     1      -3.697  12.712  20.085  0.00  0.00    +0.000 A 
ATOM     18  C   UNL     1      -3.416  12.039  18.857  0.00  0.00    +0.000 A 
ATOM     19  H   UNL     1      -6.531  11.438  19.364  0.00  0.00    +0.000 HD
ENDBRANCH   8  10
BRANCH   1  22
ATOM     20  C   UNL     1       2.419   7.811  18.187  0.00  0.00    +0.000 C 
ATOM     21  O   UNL     1       2.713   8.212  17.065  0.00  0.00    +0.000 OA
ATOM     22  N   UNL     1       1.690   8.573  19.083  0.00  0.00    +0.000 N 
ATOM     23  H   UNL     1       1.309   8.105  19.899  0.00  0.00    +0.000 HD
BRANCH  20  28
ATOM     24  C   UNL     1       4.048   2.532  19.994  0.00  0.00    +0.000 C 
ATOM     25  C   UNL     1       3.604   3.886  19.525  0.00  0.00    +0.000 A 
ATOM     26  C   UNL     1       2.715   4.665  20.273  0.00  0.00    +0.000 A 
ATOM     27  C   UNL     1       2.340   5.939  19.828  0.00  0.00    +0.000 A 
ATOM     28  C   UNL     1       2.848   6.454  18.624  0.00  0.00    +0.000 A 
ATOM     29  C   UNL     1       3.728   5.665  17.884  0.00  0.00    +0.000 A 
ATOM     30  F   UNL     1       4.255   6.108  16.731  0.00  0.00    +0.000 F 
ATOM     31  C   UNL     1       4.101   4.395  18.321  0.00  0.00    +0.000 A 
ENDBRANCH  20  28
ENDBRANCH   1  22
TORSDOF 3
ENDMDL
MODEL 8
REMARK VINA RESULT:      -8.1      3.246      9.123
REMARK  Name = 
REMARK  4 active torsions:
REMARK  status: ('A' for Active; 'I' for Inactive)
REMARK    1  A    between atoms: C_1  and  C_2
REMARK    2  A    between atoms: C_5  and  C_6
REMARK    3  A    between atoms: N_8  and  C_9
REMARK    4  A    between atoms: C_16  and  C_18
REMARK                            x       y       z     vdW  Elec       q    Type
REMARK                         _______ _______ _______ _____ _____    ______ ____
ROOT
ATOM      1  C   UNL     1       1.156   8.935  20.137  0.00  0.00    +0.000 C 
ATOM      2  C   UNL     1       1.845   9.825  21.209  0.00  0.00    +0.000 C 
ATOM      3  C   UNL     1       0.640  10.486  21.919  0.00  0.00    +0.000 C 
ATOM      4  C   UNL     1       0.049   9.446  22.883  0.00  0.00    +0.000 C 
ATOM      5  C   UNL     1      -0.611   8.442  21.916  0.00  0.00    +0.000 C 
ATOM      6  C   UNL     1      -0.338   9.062  20.536  0.00  0.00    +0.000 C 
ATOM      7  N   UNL     1      -0.365  10.470  20.878  0.00  0.00    +0.000 N 
ATOM      8  C   UNL     1      -0.957  11.582  20.310  0.00  0.00    +0.000 C 
ATOM      9  O   UNL     1      -0.780  12.704  20.774  0.00  0.00    +0.000 OA
ENDROOT
BRANCH   8  10
ATOM     10  C   UNL     1      -1.841  11.410  19.119  0.00  0.00    +0.000 A 
ATOM     11  C   UNL     1      -1.376  10.800  17.939  0.00  0.00    +0.000 A 
ATOM     12  C   UNL     1      -2.207  10.564  16.849  0.00  0.00    +0.000 A 
ATOM     13  C   UNL     1      -3.522  11.016  16.854  0.00  0.00    +0.000 A 
ATOM     14  C   UNL     1      -3.967  11.700  17.991  0.00  0.00    +0.000 A 
ATOM     15  N   UNL     1      -5.191  12.282  18.231  0.00  0.00    +0.000 N 
ATOM     16  C   UNL     1      -5.217  12.834  19.481  0.00  0.00    +0.000 A 
ATOM     17  C   UNL     1      -3.986  12.615  20.059  0.00  0.00    +0.000 A 
ATOM     18  C   UNL     1      -3.171  11.904  19.127  0.00  0.00    +0.000 A 
ATOM     19  H   UNL     1      -5.953  12.301  17.568  0.00  0.00    +0.000 HD
ENDBRANCH   8  10
BRANCH   1  22
ATOM     20  C   UNL     1       2.280   7.142  18.872  0.00  0.00    +0.000 C 
ATOM     21  O   UNL     1       2.512   7.882  17.922  0.00  0.00    +0.000 OA
ATOM     22  N   UNL     1       1.668   7.586  20.031  0.00  0.00    +0.000 N 
ATOM     23  H   UNL     1       1.323   6.885  20.680  0.00  0.00    +0.000 HD
BRANCH  20  28
ATOM     24  C   UNL     1       3.850   1.550  18.638  0.00  0.00    +0.000 C 
ATOM     25  C   UNL     1       3.439   2.990  18.722  0.00  0.00    +0.000 A 
ATOM     26  C   UNL     1       4.136   3.905  19.519  0.00  0.00    +0.000 A 
ATOM     27  C   UNL     1       3.749   5.250  19.558  0.00  0.00    +0.000 A 
ATOM     28  C   UNL     1       2.658   5.703  18.798  0.00  0.00    +0.000 A 
ATOM     29  C   UNL     1       1.968   4.780  18.013  0.00  0.00    +0.000 A 
ATOM     30  F   UNL     1       0.923   5.155  17.258  0.00  0.00    +0.000 F 
ATOM     31  C   UNL     1       2.345   3.439  17.975  0.00  0.00    +0.000 A 
ENDBRANCH  20  28
ENDBRANCH   1  22
TORSDOF 3
ENDMDL
MODEL 9
REMARK VINA RESULT:      -8.0      3.616      9.489
REMARK  Name = 
REMARK  4 active torsions:
REMARK  status: ('A' for Active; 'I' for Inactive)
REMARK    1  A    between atoms: C_1  and  C_2
REMARK    2  A    between atoms: C_5  and  C_6
REMARK    3  A    between atoms: N_8  and  C_9
REMARK    4  A    between atoms: C_16  and  C_18
REMARK                            x       y       z     vdW  Elec       q    Type
REMARK                         _______ _______ _______ _____ _____    ______ ____
ROOT
ATOM      1  C   UNL     1       1.089   9.850  18.698  0.00  0.00    +0.000 C 
ATOM      2  C   UNL     1       2.089  11.040  18.713  0.00  0.00    +0.000 C 
ATOM      3  C   UNL     1       1.284  12.144  19.437  0.00  0.00    +0.000 C 
ATOM      4  C   UNL     1       1.332  11.834  20.941  0.00  0.00    +0.000 C 
ATOM      5  C   UNL     1       0.420  10.596  21.049  0.00  0.00    +0.000 C 
ATOM      6  C   UNL     1      -0.053  10.388  19.601  0.00  0.00    +0.000 C 
ATOM      7  N   UNL     1      -0.080  11.762  19.142  0.00  0.00    +0.000 N 
ATOM      8  C   UNL     1      -0.991  12.515  18.425  0.00  0.00    +0.000 C 
ATOM      9  O   UNL     1      -0.750  13.675  18.108  0.00  0.00    +0.000 OA
ENDROOT
BRANCH   8  10
ATOM     10  C   UNL     1      -2.301  11.906  18.045  0.00  0.00    +0.000 A 
ATOM     11  C   UNL     1      -2.464  11.205  16.835  0.00  0.00    +0.000 A 
ATOM     12  C   UNL     1      -3.654  10.569  16.500  0.00  0.00    +0.000 A 
ATOM     13  C   UNL     1      -4.770  10.686  17.321  0.00  0.00    +0.000 A 
ATOM     14  C   UNL     1      -4.642  11.453  18.484  0.00  0.00    +0.000 A 
ATOM     15  N   UNL     1      -5.591  11.761  19.432  0.00  0.00    +0.000 N 
ATOM     16  C   UNL     1      -5.042  12.525  20.423  0.00  0.00    +0.000 A 
ATOM     17  C   UNL     1      -3.715  12.724  20.110  0.00  0.00    +0.000 A 
ATOM     18  C   UNL     1      -3.440  12.060  18.876  0.00  0.00    +0.000 A 
ATOM     19  H   UNL     1      -6.557  11.468  19.388  0.00  0.00    +0.000 HD
ENDBRANCH   8  10
BRANCH   1  22
ATOM     20  C   UNL     1       2.390   7.819  18.188  0.00  0.00    +0.000 C 
ATOM     21  O   UNL     1       2.703   8.232  17.076  0.00  0.00    +0.000 OA
ATOM     22  N   UNL     1       1.646   8.570  19.080  0.00  0.00    +0.000 N 
ATOM     23  H   UNL     1       1.251   8.092  19.884  0.00  0.00    +0.000 HD
BRANCH  20  28
ATOM     24  C   UNL     1       4.074   2.480  19.756  0.00  0.00    +0.000 C 
ATOM     25  C   UNL     1       3.663   3.866  19.352  0.00  0.00    +0.000 A 
ATOM     26  C   UNL     1       4.046   4.414  18.123  0.00  0.00    +0.000 A 
ATOM     27  C   UNL     1       3.625   5.699  17.757  0.00  0.00    +0.000 A 
ATOM     28  C   UNL     1       2.812   6.456  18.616  0.00  0.00    +0.000 A 
ATOM     29  C   UNL     1       2.442   5.901  19.841  0.00  0.00    +0.000 A 
ATOM     30  F   UNL     1       1.658   6.573  20.699  0.00  0.00    +0.000 F 
ATOM     31  C   UNL     1       2.863   4.625  20.211  0.00  0.00    +0.000 A 
ENDBRANCH  20  28
ENDBRANCH   1  22
TORSDOF 3
ENDMDL
