MODEL 1
REMARK VINA RESULT:      -8.3      0.000      0.000
REMARK  Name = 
REMARK  5 active torsions:
REMARK  status: ('A' for Active; 'I' for Inactive)
REMARK    1  A    between atoms: C_2  and  C_3
REMARK    2  A    between atoms: C_3  and  N_4
REMARK    3  A    between atoms: N_15  and  C_16
REMARK    4  A    between atoms: N_20  and  C_21
REMARK    5  A    between atoms: C_21  and  C_22
REMARK                            x       y       z     vdW  Elec       q    Type
REMARK                         _______ _______ _______ _____ _____    ______ ____
ROOT
ATOM      1  O   UNL     1       3.640   6.699  19.529  0.00  0.00    +0.000 OA
ATOM      2  C   UNL     1       2.728   6.826  18.724  0.00  0.00    +0.000 C 
ATOM      3  N   UNL     1       1.978   5.672  18.259  0.00  0.00    +0.000 N 
ATOM      4  H   UNL     1       1.249   5.880  17.577  0.00  0.00    +0.000 HD
ENDROOT
BRANCH   3   5
ATOM      5  C   UNL     1       2.201   4.374  18.713  0.00  0.00    +0.000 A 
ATOM      6  C   UNL     1       1.656   3.783  19.834  0.00  0.00    +0.000 A 
ATOM      7  C   UNL     1       2.195   2.487  19.884  0.00  0.00    +0.000 A 
ATOM      8  N   UNL     1       3.011   2.244  18.863  0.00  0.00    +0.000 NA
ATOM      9  N   UNL     1       2.988   3.388  18.142  0.00  0.00    +0.000 N 
BRANCH   9  10
ATOM     10  C   UNL     1       3.873   3.484  16.986  0.00  0.00    +0.000 C 
BRANCH  10  11
ATOM     11  C   UNL     1       4.943   4.529  17.186  0.00  0.00    +0.000 A 
ATOM     12  C   UNL     1       5.067   5.614  16.298  0.00  0.00    +0.000 A 
ATOM     13  C   UNL     1       6.014   6.621  16.523  0.00  0.00    +0.000 A 
ATOM     14  C   UNL     1       6.843   6.556  17.643  0.00  0.00    +0.000 A 
ATOM     15 CL   UNL     1       7.961   7.827  17.950  0.00  0.00    +0.000 Cl
ATOM     16  C   UNL     1       6.743   5.473  18.509  0.00  0.00    +0.000 A 
ATOM     17  F   UNL     1       7.532   5.376  19.588  0.00  0.00    +0.000 F 
ATOM     18  C   UNL     1       5.808   4.462  18.285  0.00  0.00    +0.000 A 
ENDBRANCH  10  11
ENDBRANCH   9  10
ENDBRANCH   3   5
BRANCH   2  19
ATOM     19  C   UNL     1       2.237   8.179  18.255  0.00  0.00    +0.000 C 
BRANCH  19  20
ATOM     20  N   UNL     1       1.463   8.860  19.264  0.00  0.00    +0.000 N 
ATOM     21  N   UNL     1       0.893   8.245  20.351  0.00  0.00    +0.000 NA
ATOM     22  C   UNL     1       0.369   9.238  21.025  0.00  0.00    +0.000 A 
ATOM     23  N   UNL     1       0.495  10.442  20.440  0.00  0.00    +0.000 N 
ATOM     24  C   UNL     1       1.238  10.234  19.305  0.00  0.00    +0.000 A 
ATOM     25  O   UNL     1       1.618  11.059  18.490  0.00  0.00    +0.000 OA
ATOM     26  C   UNL     1       0.046  11.758  20.871  0.00  0.00    +0.000 C 
ATOM     27  C   UNL     1      -1.363  11.716  21.445  0.00  0.00    +0.000 C 
ATOM     28  C   UNL     1      -1.419  11.236  22.896  0.00  0.00    +0.000 C 
ATOM     29  C   UNL     1      -0.403  10.159  23.272  0.00  0.00    +0.000 C 
ATOM     30  C   UNL     1      -0.390   8.993  22.299  0.00  0.00    +0.000 C 
ENDBRANCH  19  20
ENDBRANCH   2  19
TORSDOF 5
ENDMDL
MODEL 2
REMARK VINA RESULT:      -8.1      2.949      4.484
REMARK  Name = 
REMARK  5 active torsions:
REMARK  status: ('A' for Active; 'I' for Inactive)
REMARK    1  A    between atoms: C_2  and  C_3
REMARK    2  A    between atoms: C_3  and  N_4
REMARK    3  A    between atoms: N_15  and  C_16
REMARK    4  A    between atoms: N_20  and  C_21
REMARK    5  A    between atoms: C_21  and  C_22
REMARK                            x       y       z     vdW  Elec       q    Type
REMARK                         _______ _______ _______ _____ _____    ______ ____
ROOT
ATOM      1  O   UNL     1       3.333   6.532  19.339  0.00  0.00    +0.000 OA
ATOM      2  C   UNL     1       3.034   7.101  18.299  0.00  0.00    +0.000 C 
ATOM      3  N   UNL     1       3.928   7.082  17.155  0.00  0.00    +0.000 N 
ATOM      4  H   UNL     1       3.597   7.600  16.341  0.00  0.00    +0.000 HD
ENDROOT
BRANCH   3   5
ATOM      5  C   UNL     1       5.141   6.397  17.136  0.00  0.00    +0.000 A 
ATOM      6  C   UNL     1       6.400   6.934  17.308  0.00  0.00    +0.000 A 
ATOM      7  C   UNL     1       7.296   5.860  17.182  0.00  0.00    +0.000 A 
ATOM      8  N   UNL     1       6.669   4.708  16.965  0.00  0.00    +0.000 NA
ATOM      9  N   UNL     1       5.357   5.040  16.965  0.00  0.00    +0.000 N 
BRANCH   9  10
ATOM     10  C   UNL     1       4.389   3.994  16.652  0.00  0.00    +0.000 C 
BRANCH  10  11
ATOM     11  C   UNL     1       3.653   3.527  17.883  0.00  0.00    +0.000 A 
ATOM     12  C   UNL     1       4.345   3.254  19.078  0.00  0.00    +0.000 A 
ATOM     13  C   UNL     1       3.655   2.889  20.240  0.00  0.00    +0.000 A 
ATOM     14  C   UNL     1       2.264   2.799  20.221  0.00  0.00    +0.000 A 
ATOM     15 CL   UNL     1       1.414   2.412  21.667  0.00  0.00    +0.000 Cl
ATOM     16  C   UNL     1       1.576   3.041  19.037  0.00  0.00    +0.000 A 
ATOM     17  F   UNL     1       0.240   2.952  18.983  0.00  0.00    +0.000 F 
ATOM     18  C   UNL     1       2.258   3.397  17.873  0.00  0.00    +0.000 A 
ENDBRANCH  10  11
ENDBRANCH   9  10
ENDBRANCH   3   5
BRANCH   2  19
ATOM     19  C   UNL     1       1.683   7.749  18.083  0.00  0.00    +0.000 C 
BRANCH  19  20
ATOM     20  N   UNL     1       1.676   9.140  18.465  0.00  0.00    +0.000 N 
ATOM     21  N   UNL     1       2.291  10.142  17.756  0.00  0.00    +0.000 NA
ATOM     22  C   UNL     1       1.962  11.227  18.412  0.00  0.00    +0.000 A 
ATOM     23  N   UNL     1       1.236  11.014  19.523  0.00  0.00    +0.000 N 
ATOM     24  C   UNL     1       1.000   9.662  19.566  0.00  0.00    +0.000 A 
ATOM     25  O   UNL     1       0.352   9.035  20.388  0.00  0.00    +0.000 OA
ATOM     26  C   UNL     1       0.697  11.950  20.498  0.00  0.00    +0.000 C 
ATOM     27  C   UNL     1       1.701  13.037  20.856  0.00  0.00    +0.000 C 
ATOM     28  C   UNL     1       1.772  14.168  19.829  0.00  0.00    +0.000 C 
ATOM     29  C   UNL     1       1.580  13.746  18.372  0.00  0.00    +0.000 C 
ATOM     30  C   UNL     1       2.463  12.575  17.975  0.00  0.00    +0.000 C 
ENDBRANCH  19  20
ENDBRANCH   2  19
TORSDOF 5
ENDMDL
MODEL 3
REMARK VINA RESULT:      -8.0      2.054      2.342
REMARK  Name = 
REMARK  5 active torsions:
REMARK  status: ('A' for Active; 'I' for Inactive)
REMARK    1  A    between atoms: C_2  and  C_3
REMARK    2  A    between atoms: C_3  and  N_4
REMARK    3  A    between atoms: N_15  and  C_16
REMARK    4  A    between atoms: N_20  and  C_21
REMARK    5  A    between atoms: C_21  and  C_22
REMARK                            x       y       z     vdW  Elec       q    Type
REMARK                         _______ _______ _______ _____ _____    ______ ____
ROOT
ATOM      1  O   UNL     1       1.986   5.986  17.678  0.00  0.00    +0.000 OA
ATOM      2  C   UNL     1       2.465   6.782  18.473  0.00  0.00    +0.000 C 
ATOM      3  N   UNL     1       3.266   6.326  19.595  0.00  0.00    +0.000 N 
ATOM      4  H   UNL     1       3.606   7.065  20.209  0.00  0.00    +0.000 HD
ENDROOT
BRANCH   3   5
ATOM      5  C   UNL     1       3.582   4.988  19.823  0.00  0.00    +0.000 A 
ATOM      6  C   UNL     1       2.800   4.049  20.464  0.00  0.00    +0.000 A 
ATOM      7  C   UNL     1       3.552   2.863  20.468  0.00  0.00    +0.000 A 
ATOM      8  N   UNL     1       4.724   3.011  19.858  0.00  0.00    +0.000 NA
ATOM      9  N   UNL     1       4.723   4.299  19.445  0.00  0.00    +0.000 N 
BRANCH   9  10
ATOM     10  C   UNL     1       5.932   4.815  18.814  0.00  0.00    +0.000 C 
BRANCH  10  11
ATOM     11  C   UNL     1       5.954   4.529  17.332  0.00  0.00    +0.000 A 
ATOM     12  C   UNL     1       4.884   3.860  16.710  0.00  0.00    +0.000 A 
ATOM     13  C   UNL     1       4.871   3.658  15.324  0.00  0.00    +0.000 A 
ATOM     14  C   UNL     1       5.928   4.127  14.546  0.00  0.00    +0.000 A 
ATOM     15 CL   UNL     1       5.880   3.932  12.837  0.00  0.00    +0.000 Cl
ATOM     16  C   UNL     1       7.002   4.764  15.158  0.00  0.00    +0.000 A 
ATOM     17  F   UNL     1       8.038   5.217  14.438  0.00  0.00    +0.000 F 
ATOM     18  C   UNL     1       7.024   4.961  16.538  0.00  0.00    +0.000 A 
ENDBRANCH  10  11
ENDBRANCH   9  10
ENDBRANCH   3   5
BRANCH   2  19
ATOM     19  C   UNL     1       2.368   8.282  18.284  0.00  0.00    +0.000 C 
BRANCH  19  20
ATOM     20  N   UNL     1       1.575   8.912  19.309  0.00  0.00    +0.000 N 
ATOM     21  N   UNL     1       1.023   8.252  20.379  0.00  0.00    +0.000 NA
ATOM     22  C   UNL     1       0.470   9.211  21.078  0.00  0.00    +0.000 A 
ATOM     23  N   UNL     1       0.560  10.434  20.526  0.00  0.00    +0.000 N 
ATOM     24  C   UNL     1       1.310  10.278  19.386  0.00  0.00    +0.000 A 
ATOM     25  O   UNL     1       1.666  11.135  18.595  0.00  0.00    +0.000 OA
ATOM     26  C   UNL     1       0.073  11.724  20.991  0.00  0.00    +0.000 C 
ATOM     27  C   UNL     1      -1.335  11.626  21.562  0.00  0.00    +0.000 C 
ATOM     28  C   UNL     1      -1.378  11.106  23.000  0.00  0.00    +0.000 C 
ATOM     29  C   UNL     1      -0.330  10.049  23.348  0.00  0.00    +0.000 C 
ATOM     30  C   UNL     1      -0.283   8.910  22.344  0.00  0.00    +0.000 C 
ENDBRANCH  19  20
ENDBRANCH   2  19
TORSDOF 5
ENDMDL
MODEL 4
REMARK VINA RESULT:      -8.0      2.644      3.872
REMARK  Name = 
REMARK  5 active torsions:
REMARK  status: ('A' for Active; 'I' for Inactive)
REMARK    1  A    between atoms: C_2  and  C_3
REMARK    2  A    between atoms: C_3  and  N_4
REMARK    3  A    between atoms: N_15  and  C_16
REMARK    4  A    between atoms: N_20  and  C_21
REMARK    5  A    between atoms: C_21  and  C_22
REMARK                            x       y       z     vdW  Elec       q    Type
REMARK                         _______ _______ _______ _____ _____    ______ ____
ROOT
ATOM      1  O   UNL     1       3.436   6.982  19.215  0.00  0.00    +0.000 OA
ATOM      2  C   UNL     1       3.315   7.511  18.119  0.00  0.00    +0.000 C 
ATOM      3  N   UNL     1       4.277   7.259  17.060  0.00  0.00    +0.000 N 
ATOM      4  H   UNL     1       4.099   7.760  16.189  0.00  0.00    +0.000 HD
ENDROOT
BRANCH   3   5
ATOM      5  C   UNL     1       5.355   6.386  17.189  0.00  0.00    +0.000 A 
ATOM      6  C   UNL     1       6.667   6.723  17.453  0.00  0.00    +0.000 A 
ATOM      7  C   UNL     1       7.378   5.512  17.465  0.00  0.00    +0.000 A 
ATOM      8  N   UNL     1       6.588   4.465  17.247  0.00  0.00    +0.000 NA
ATOM      9  N   UNL     1       5.355   5.004  17.107  0.00  0.00    +0.000 N 
BRANCH   9  10
ATOM     10  C   UNL     1       4.256   4.112  16.755  0.00  0.00    +0.000 C 
BRANCH  10  11
ATOM     11  C   UNL     1       3.523   3.620  17.979  0.00  0.00    +0.000 A 
ATOM     12  C   UNL     1       4.151   3.601  19.238  0.00  0.00    +0.000 A 
ATOM     13  C   UNL     1       3.448   3.211  20.385  0.00  0.00    +0.000 A 
ATOM     14  C   UNL     1       2.107   2.842  20.285  0.00  0.00    +0.000 A 
ATOM     15 CL   UNL     1       1.230   2.425  21.705  0.00  0.00    +0.000 Cl
ATOM     16  C   UNL     1       1.489   2.833  19.040  0.00  0.00    +0.000 A 
ATOM     17  F   UNL     1       0.204   2.473  18.909  0.00  0.00    +0.000 F 
ATOM     18  C   UNL     1       2.185   3.211  17.892  0.00  0.00    +0.000 A 
ENDBRANCH  10  11
ENDBRANCH   9  10
ENDBRANCH   3   5
BRANCH   2  19
ATOM     19  C   UNL     1       2.112   8.352  17.746  0.00  0.00    +0.000 C 
BRANCH  19  20
ATOM     20  N   UNL     1       1.455   8.909  18.903  0.00  0.00    +0.000 N 
ATOM     21  N   UNL     1       0.931   8.166  19.931  0.00  0.00    +0.000 NA
ATOM     22  C   UNL     1       0.516   9.070  20.782  0.00  0.00    +0.000 A 
ATOM     23  N   UNL     1       0.669  10.341  20.371  0.00  0.00    +0.000 N 
ATOM     24  C   UNL     1       1.314  10.271  19.161  0.00  0.00    +0.000 A 
ATOM     25  O   UNL     1       1.682  11.190  18.448  0.00  0.00    +0.000 OA
ATOM     26  C   UNL     1       0.330  11.597  21.024  0.00  0.00    +0.000 C 
ATOM     27  C   UNL     1      -1.033  11.536  21.698  0.00  0.00    +0.000 C 
ATOM     28  C   UNL     1      -1.012  10.846  23.063  0.00  0.00    +0.000 C 
ATOM     29  C   UNL     1      -0.035   9.679  23.195  0.00  0.00    +0.000 C 
ATOM     30  C   UNL     1      -0.161   8.672  22.064  0.00  0.00    +0.000 C 
ENDBRANCH  19  20
ENDBRANCH   2  19
TORSDOF 5
ENDMDL
MODEL 5
REMARK VINA RESULT:      -7.9      0.977      1.324
REMARK  Name = 
REMARK  5 active torsions:
REMARK  status: ('A' for Active; 'I' for Inactive)
REMARK    1  A    between atoms: C_2  and  C_3
REMARK    2  A    between atoms: C_3  and  N_4
REMARK    3  A    between atoms: N_15  and  C_16
REMARK    4  A    between atoms: N_20  and  C_21
REMARK    5  A    between atoms: C_21  and  C_22
REMARK                            x       y       z     vdW  Elec       q    Type
REMARK                         _______ _______ _______ _____ _____    ______ ____
ROOT
ATOM      1  O   UNL     1       3.289   6.398  20.004  0.00  0.00    +0.000 OA
ATOM      2  C   UNL     1       2.534   6.590  19.063  0.00  0.00    +0.000 C 
ATOM      3  N   UNL     1       1.773   5.498  18.481  0.00  0.00    +0.000 N 
ATOM      4  H   UNL     1       1.185   5.757  17.690  0.00  0.00    +0.000 HD
ENDROOT
BRANCH   3   5
ATOM      5  C   UNL     1       1.808   4.192  18.966  0.00  0.00    +0.000 A 
ATOM      6  C   UNL     1       1.102   3.686  20.038  0.00  0.00    +0.000 A 
ATOM      7  C   UNL     1       1.485   2.340  20.148  0.00  0.00    +0.000 A 
ATOM      8  N   UNL     1       2.358   1.989  19.209  0.00  0.00    +0.000 NA
ATOM      9  N   UNL     1       2.528   3.114  18.478  0.00  0.00    +0.000 N 
BRANCH   9  10
ATOM     10  C   UNL     1       3.517   3.089  17.406  0.00  0.00    +0.000 C 
BRANCH  10  11
ATOM     11  C   UNL     1       4.534   4.194  17.558  0.00  0.00    +0.000 A 
ATOM     12  C   UNL     1       5.426   4.209  18.646  0.00  0.00    +0.000 A 
ATOM     13  C   UNL     1       6.416   5.195  18.749  0.00  0.00    +0.000 A 
ATOM     14  C   UNL     1       6.526   6.173  17.762  0.00  0.00    +0.000 A 
ATOM     15 CL   UNL     1       7.782   7.344  17.859  0.00  0.00    +0.000 Cl
ATOM     16  C   UNL     1       5.630   6.179  16.698  0.00  0.00    +0.000 A 
ATOM     17  F   UNL     1       5.703   7.112  15.739  0.00  0.00    +0.000 F 
ATOM     18  C   UNL     1       4.637   5.205  16.594  0.00  0.00    +0.000 A 
ENDBRANCH  10  11
ENDBRANCH   9  10
ENDBRANCH   3   5
BRANCH   2  19
ATOM     19  C   UNL     1       2.243   7.974  18.520  0.00  0.00    +0.000 C 
BRANCH  19  20
ATOM     20  N   UNL     1       1.438   8.758  19.424  0.00  0.00    +0.000 N 
ATOM     21  N   UNL     1       0.826   8.261  20.547  0.00  0.00    +0.000 NA
ATOM     22  C   UNL     1       0.285   9.320  21.095  0.00  0.00    +0.000 A 
ATOM     23  N   UNL     1       0.440  10.457  20.394  0.00  0.00    +0.000 N 
ATOM     24  C   UNL     1       1.222  10.129  19.314  0.00  0.00    +0.000 A 
ATOM     25  O   UNL     1       1.637  10.865  18.433  0.00  0.00    +0.000 OA
ATOM     26  C   UNL     1      -0.015  11.811  20.670  0.00  0.00    +0.000 C 
ATOM     27  C   UNL     1      -1.444  11.834  21.193  0.00  0.00    +0.000 C 
ATOM     28  C   UNL     1      -1.556  11.507  22.683  0.00  0.00    +0.000 C 
ATOM     29  C   UNL     1      -0.561  10.471  23.205  0.00  0.00    +0.000 C 
ATOM     30  C   UNL     1      -0.522   9.210  22.359  0.00  0.00    +0.000 C 
ENDBRANCH  19  20
ENDBRANCH   2  19
TORSDOF 5
ENDMDL
MODEL 6
REMARK VINA RESULT:      -7.8      2.767      4.331
REMARK  Name = 
REMARK  5 active torsions:
REMARK  status: ('A' for Active; 'I' for Inactive)
REMARK    1  A    between atoms: C_2  and  C_3
REMARK    2  A    between atoms: C_3  and  N_4
REMARK    3  A    between atoms: N_15  and  C_16
REMARK    4  A    between atoms: N_20  and  C_21
REMARK    5  A    between atoms: C_21  and  C_22
REMARK                            x       y       z     vdW  Elec       q    Type
REMARK                         _______ _______ _______ _____ _____    ______ ____
ROOT
ATOM      1  O   UNL     1       3.310   6.895  19.296  0.00  0.00    +0.000 OA
ATOM      2  C   UNL     1       3.007   7.359  18.206  0.00  0.00    +0.000 C 
ATOM      3  N   UNL     1       3.871   7.178  17.052  0.00  0.00    +0.000 N 
ATOM      4  H   UNL     1       3.539   7.617  16.194  0.00  0.00    +0.000 HD
ENDROOT
BRANCH   3   5
ATOM      5  C   UNL     1       5.056   6.446  17.084  0.00  0.00    +0.000 A 
ATOM      6  C   UNL     1       6.336   6.945  17.209  0.00  0.00    +0.000 A 
ATOM      7  C   UNL     1       7.188   5.830  17.166  0.00  0.00    +0.000 A 
ATOM      8  N   UNL     1       6.515   4.690  17.043  0.00  0.00    +0.000 NA
ATOM      9  N   UNL     1       5.218   5.072  17.020  0.00  0.00    +0.000 N 
BRANCH   9  10
ATOM     10  C   UNL     1       4.207   4.045  16.793  0.00  0.00    +0.000 C 
BRANCH  10  11
ATOM     11  C   UNL     1       3.466   3.700  18.062  0.00  0.00    +0.000 A 
ATOM     12  C   UNL     1       2.083   3.932  18.175  0.00  0.00    +0.000 A 
ATOM     13  C   UNL     1       1.382   3.548  19.325  0.00  0.00    +0.000 A 
ATOM     14  C   UNL     1       2.057   2.921  20.372  0.00  0.00    +0.000 A 
ATOM     15 CL   UNL     1       1.182   2.393  21.756  0.00  0.00    +0.000 Cl
ATOM     16  C   UNL     1       3.429   2.713  20.277  0.00  0.00    +0.000 A 
ATOM     17  F   UNL     1       4.109   2.123  21.270  0.00  0.00    +0.000 F 
ATOM     18  C   UNL     1       4.135   3.102  19.138  0.00  0.00    +0.000 A 
ENDBRANCH  10  11
ENDBRANCH   9  10
ENDBRANCH   3   5
BRANCH   2  19
ATOM     19  C   UNL     1       1.677   8.034  17.949  0.00  0.00    +0.000 C 
BRANCH  19  20
ATOM     20  N   UNL     1       1.667   9.409  18.384  0.00  0.00    +0.000 N 
ATOM     21  N   UNL     1       2.330  10.429  17.748  0.00  0.00    +0.000 NA
ATOM     22  C   UNL     1       1.982  11.492  18.429  0.00  0.00    +0.000 A 
ATOM     23  N   UNL     1       1.197  11.246  19.493  0.00  0.00    +0.000 N 
ATOM     24  C   UNL     1       0.943   9.897  19.469  0.00  0.00    +0.000 A 
ATOM     25  O   UNL     1       0.246   9.248  20.232  0.00  0.00    +0.000 OA
ATOM     26  C   UNL     1       0.621  12.151  20.476  0.00  0.00    +0.000 C 
ATOM     27  C   UNL     1       1.618  13.208  20.927  0.00  0.00    +0.000 C 
ATOM     28  C   UNL     1       1.755  14.377  19.950  0.00  0.00    +0.000 C 
ATOM     29  C   UNL     1       1.633  14.016  18.471  0.00  0.00    +0.000 C 
ATOM     30  C   UNL     1       2.520  12.849  18.072  0.00  0.00    +0.000 C 
ENDBRANCH  19  20
ENDBRANCH   2  19
TORSDOF 5
ENDMDL
MODEL 7
REMARK VINA RESULT:      -7.8      1.666      2.019
REMARK  Name = 
REMARK  5 active torsions:
REMARK  status: ('A' for Active; 'I' for Inactive)
REMARK    1  A    between atoms: C_2  and  C_3
REMARK    2  A    between atoms: C_3  and  N_4
REMARK    3  A    between atoms: N_15  and  C_16
REMARK    4  A    between atoms: N_20  and  C_21
REMARK    5  A    between atoms: C_21  and  C_22
REMARK                            x       y       z     vdW  Elec       q    Type
REMARK                         _______ _______ _______ _____ _____    ______ ____
ROOT
ATOM      1  O   UNL     1       1.900   5.524  17.869  0.00  0.00    +0.000 OA
ATOM      2  C   UNL     1       2.334   6.254  18.747  0.00  0.00    +0.000 C 
ATOM      3  N   UNL     1       2.561   5.752  20.091  0.00  0.00    +0.000 N 
ATOM      4  H   UNL     1       2.909   6.443  20.756  0.00  0.00    +0.000 HD
ENDROOT
BRANCH   3   5
ATOM      5  C   UNL     1       2.350   4.426  20.464  0.00  0.00    +0.000 A 
ATOM      6  C   UNL     1       1.164   3.862  20.885  0.00  0.00    +0.000 A 
ATOM      7  C   UNL     1       1.458   2.518  21.167  0.00  0.00    +0.000 A 
ATOM      8  N   UNL     1       2.732   2.223  20.929  0.00  0.00    +0.000 NA
ATOM      9  N   UNL     1       3.262   3.383  20.477  0.00  0.00    +0.000 N 
BRANCH   9  10
ATOM     10  C   UNL     1       4.696   3.422  20.213  0.00  0.00    +0.000 C 
BRANCH  10  11
ATOM     11  C   UNL     1       4.993   3.912  18.817  0.00  0.00    +0.000 A 
ATOM     12  C   UNL     1       4.407   3.296  17.696  0.00  0.00    +0.000 A 
ATOM     13  C   UNL     1       4.628   3.795  16.405  0.00  0.00    +0.000 A 
ATOM     14  C   UNL     1       5.433   4.919  16.225  0.00  0.00    +0.000 A 
ATOM     15 CL   UNL     1       5.650   5.567  14.646  0.00  0.00    +0.000 Cl
ATOM     16  C   UNL     1       6.037   5.515  17.326  0.00  0.00    +0.000 A 
ATOM     17  F   UNL     1       6.825   6.590  17.184  0.00  0.00    +0.000 F 
ATOM     18  C   UNL     1       5.829   5.018  18.613  0.00  0.00    +0.000 A 
ENDBRANCH  10  11
ENDBRANCH   9  10
ENDBRANCH   3   5
BRANCH   2  19
ATOM     19  C   UNL     1       2.781   7.676  18.479  0.00  0.00    +0.000 C 
BRANCH  19  20
ATOM     20  N   UNL     1       1.881   8.649  19.049  0.00  0.00    +0.000 N 
ATOM     21  N   UNL     1       1.272   8.518  20.272  0.00  0.00    +0.000 NA
ATOM     22  C   UNL     1       0.625   9.648  20.414  0.00  0.00    +0.000 A 
ATOM     23  N   UNL     1       0.711  10.481  19.361  0.00  0.00    +0.000 N 
ATOM     24  C   UNL     1       1.556   9.872  18.467  0.00  0.00    +0.000 A 
ATOM     25  O   UNL     1       1.940  10.291  17.387  0.00  0.00    +0.000 OA
ATOM     26  C   UNL     1       0.135  11.800  19.146  0.00  0.00    +0.000 C 
ATOM     27  C   UNL     1      -1.309  11.873  19.621  0.00  0.00    +0.000 C 
ATOM     28  C   UNL     1      -1.448  12.074  21.131  0.00  0.00    +0.000 C 
ATOM     29  C   UNL     1      -0.390  11.378  21.986  0.00  0.00    +0.000 C 
ATOM     30  C   UNL     1      -0.215   9.911  21.632  0.00  0.00    +0.000 C 
ENDBRANCH  19  20
ENDBRANCH   2  19
TORSDOF 5
ENDMDL
MODEL 8
REMARK VINA RESULT:      -7.7      3.482      7.955
REMARK  Name = 
REMARK  5 active torsions:
REMARK  status: ('A' for Active; 'I' for Inactive)
REMARK    1  A    between atoms: C_2  and  C_3
REMARK    2  A    between atoms: C_3  and  N_4
REMARK    3  A    between atoms: N_15  and  C_16
REMARK    4  A    between atoms: N_20  and  C_21
REMARK    5  A    between atoms: C_21  and  C_22
REMARK                            x       y       z     vdW  Elec       q    Type
REMARK                         _______ _______ _______ _____ _____    ______ ____
ROOT
ATOM      1  O   UNL     1       5.209   3.327  19.745  0.00  0.00    +0.000 OA
ATOM      2  C   UNL     1       5.162   4.039  18.753  0.00  0.00    +0.000 C 
ATOM      3  N   UNL     1       3.891   4.388  18.144  0.00  0.00    +0.000 N 
ATOM      4  H   UNL     1       3.958   4.972  17.311  0.00  0.00    +0.000 HD
ENDROOT
BRANCH   3   5
ATOM      5  C   UNL     1       2.657   3.989  18.653  0.00  0.00    +0.000 A 
ATOM      6  C   UNL     1       1.812   3.033  18.127  0.00  0.00    +0.000 A 
ATOM      7  C   UNL     1       0.692   3.004  18.973  0.00  0.00    +0.000 A 
ATOM      8  N   UNL     1       0.806   3.858  19.985  0.00  0.00    +0.000 NA
ATOM      9  N   UNL     1       2.016   4.434  19.797  0.00  0.00    +0.000 N 
BRANCH   9  10
ATOM     10  C   UNL     1       2.408   5.509  20.702  0.00  0.00    +0.000 C 
BRANCH  10  11
ATOM     11  C   UNL     1       1.945   6.856  20.203  0.00  0.00    +0.000 A 
ATOM     12  C   UNL     1       1.220   7.725  21.039  0.00  0.00    +0.000 A 
ATOM     13  C   UNL     1       0.851   9.003  20.600  0.00  0.00    +0.000 A 
ATOM     14  C   UNL     1       1.210   9.427  19.321  0.00  0.00    +0.000 A 
ATOM     15 CL   UNL     1       0.812  11.020  18.808  0.00  0.00    +0.000 Cl
ATOM     16  C   UNL     1       1.904   8.562  18.480  0.00  0.00    +0.000 A 
ATOM     17  F   UNL     1       2.254   8.937  17.242  0.00  0.00    +0.000 F 
ATOM     18  C   UNL     1       2.266   7.285  18.909  0.00  0.00    +0.000 A 
ENDBRANCH  10  11
ENDBRANCH   9  10
ENDBRANCH   3   5
BRANCH   2  19
ATOM     19  C   UNL     1       6.391   4.703  18.167  0.00  0.00    +0.000 C 
BRANCH  19  20
ATOM     20  N   UNL     1       6.461   4.556  16.734  0.00  0.00    +0.000 N 
ATOM     21  N   UNL     1       5.849   3.551  16.026  0.00  0.00    +0.000 NA
ATOM     22  C   UNL     1       6.108   3.853  14.779  0.00  0.00    +0.000 A 
ATOM     23  N   UNL     1       6.889   4.936  14.613  0.00  0.00    +0.000 N 
ATOM     24  C   UNL     1       7.106   5.440  15.872  0.00  0.00    +0.000 A 
ATOM     25  O   UNL     1       7.735   6.437  16.187  0.00  0.00    +0.000 OA
ATOM     26  C   UNL     1       7.389   5.568  13.402  0.00  0.00    +0.000 C 
ATOM     27  C   UNL     1       7.873   4.544  12.386  0.00  0.00    +0.000 C 
ATOM     28  C   UNL     1       6.745   3.908  11.572  0.00  0.00    +0.000 C 
ATOM     29  C   UNL     1       5.435   3.684  12.327  0.00  0.00    +0.000 C 
ATOM     30  C   UNL     1       5.633   2.975  13.655  0.00  0.00    +0.000 C 
ENDBRANCH  19  20
ENDBRANCH   2  19
TORSDOF 5
ENDMDL
MODEL 9
REMARK VINA RESULT:      -7.7      1.811      2.302
REMARK  Name = 
REMARK  5 active torsions:
REMARK  status: ('A' for Active; 'I' for Inactive)
REMARK    1  A    between atoms: C_2  and  C_3
REMARK    2  A    between atoms: C_3  and  N_4
REMARK    3  A    between atoms: N_15  and  C_16
REMARK    4  A    between atoms: N_20  and  C_21
REMARK    5  A    between atoms: C_21  and  C_22
REMARK                            x       y       z     vdW  Elec       q    Type
REMARK                         _______ _______ _______ _____ _____    ______ ____
ROOT
ATOM      1  O   UNL     1       2.263   7.235  20.311  0.00  0.00    +0.000 OA
ATOM      2  C   UNL     1       2.331   7.313  19.093  0.00  0.00    +0.000 C 
ATOM      3  N   UNL     1       2.271   6.122  18.264  0.00  0.00    +0.000 N 
ATOM      4  H   UNL     1       2.352   6.290  17.262  0.00  0.00    +0.000 HD
ENDROOT
BRANCH   3   5
ATOM      5  C   UNL     1       2.091   4.837  18.773  0.00  0.00    +0.000 A 
ATOM      6  C   UNL     1       1.272   4.467  19.819  0.00  0.00    +0.000 A 
ATOM      7  C   UNL     1       1.448   3.083  19.973  0.00  0.00    +0.000 A 
ATOM      8  N   UNL     1       2.301   2.584  19.083  0.00  0.00    +0.000 NA
ATOM      9  N   UNL     1       2.667   3.654  18.340  0.00  0.00    +0.000 N 
BRANCH   9  10
ATOM     10  C   UNL     1       3.689   3.458  17.318  0.00  0.00    +0.000 C 
BRANCH  10  11
ATOM     11  C   UNL     1       4.805   4.465  17.443  0.00  0.00    +0.000 A 
ATOM     12  C   UNL     1       5.068   5.383  16.409  0.00  0.00    +0.000 A 
ATOM     13  C   UNL     1       6.057   6.364  16.554  0.00  0.00    +0.000 A 
ATOM     14  C   UNL     1       6.790   6.440  17.738  0.00  0.00    +0.000 A 
ATOM     15 CL   UNL     1       7.960   7.685  17.937  0.00  0.00    +0.000 Cl
ATOM     16  C   UNL     1       6.553   5.519  18.752  0.00  0.00    +0.000 A 
ATOM     17  F   UNL     1       7.248   5.559  19.898  0.00  0.00    +0.000 F 
ATOM     18  C   UNL     1       5.576   4.534  18.611  0.00  0.00    +0.000 A 
ENDBRANCH  10  11
ENDBRANCH   9  10
ENDBRANCH   3   5
BRANCH   2  19
ATOM     19  C   UNL     1       2.354   8.638  18.360  0.00  0.00    +0.000 C 
BRANCH  19  20
ATOM     20  N   UNL     1       1.059   9.272  18.333  0.00  0.00    +0.000 N 
ATOM     21  N   UNL     1       0.140   9.115  17.325  0.00  0.00    +0.000 NA
ATOM     22  C   UNL     1      -0.898   9.792  17.750  0.00  0.00    +0.000 A 
ATOM     23  N   UNL     1      -0.714  10.428  18.920  0.00  0.00    +0.000 N 
ATOM     24  C   UNL     1       0.544  10.077  19.346  0.00  0.00    +0.000 A 
ATOM     25  O   UNL     1       1.108  10.401  20.378  0.00  0.00    +0.000 OA
ATOM     26  C   UNL     1      -1.614  11.268  19.695  0.00  0.00    +0.000 C 
ATOM     27  C   UNL     1      -2.390  12.234  18.811  0.00  0.00    +0.000 C 
ATOM     28  C   UNL     1      -3.598  11.598  18.122  0.00  0.00    +0.000 C 
ATOM     29  C   UNL     1      -3.422  10.140  17.699  0.00  0.00    +0.000 C 
ATOM     30  C   UNL     1      -2.142   9.903  16.914  0.00  0.00    +0.000 C 
ENDBRANCH  19  20
ENDBRANCH   2  19
TORSDOF 5
ENDMDL
