MODEL 1
REMARK VINA RESULT:      -7.6      0.000      0.000
REMARK  Name = 
REMARK  4 active torsions:
REMARK  status: ('A' for Active; 'I' for Inactive)
REMARK    1  A    between atoms: C_2  and  C_22
REMARK    2  A    between atoms: N_3  and  C_4
REMARK    3  A    between atoms: C_7  and  C_9
REMARK    4  A    between atoms: C_20  and  O_21
REMARK                            x       y       z     vdW  Elec       q    Type
REMARK                         _______ _______ _______ _____ _____    ______ ____
ROOT
ATOM      1  C   UNL     1      -1.373  12.766  22.665  0.00  0.00    +0.000 C 
ATOM      2  C   UNL     1      -2.884  12.645  22.495  0.00  0.00    +0.000 C 
ATOM      3  N   UNL     1      -3.442  13.961  22.782  0.00  0.00    +0.000 N 
ATOM      4  C   UNL     1      -4.774  14.384  22.730  0.00  0.00    +0.000 C 
ATOM      5  O   UNL     1      -5.063  15.564  22.913  0.00  0.00    +0.000 OA
ATOM      6  C   UNL     1      -2.362  14.911  23.041  0.00  0.00    +0.000 C 
ATOM      7  C   UNL     1      -1.100  14.262  22.455  0.00  0.00    +0.000 C 
ENDROOT
BRANCH   4   8
ATOM      8  C   UNL     1      -5.879  13.395  22.436  0.00  0.00    +0.000 A 
ATOM      9  C   UNL     1      -6.753  13.042  23.477  0.00  0.00    +0.000 A 
ATOM     10  C   UNL     1      -7.708  12.044  23.329  0.00  0.00    +0.000 A 
ATOM     11  C   UNL     1      -7.901  11.468  22.085  0.00  0.00    +0.000 A 
ATOM     12  C   UNL     1      -7.157  11.903  20.980  0.00  0.00    +0.000 A 
ATOM     13  C   UNL     1      -7.456  11.415  19.708  0.00  0.00    +0.000 A 
ATOM     14  N   UNL     1      -6.831  11.791  18.574  0.00  0.00    +0.000 NA
ATOM     15  C   UNL     1      -5.840  12.689  18.718  0.00  0.00    +0.000 A 
ATOM     16  C   UNL     1      -5.445  13.226  19.937  0.00  0.00    +0.000 A 
ATOM     17  C   UNL     1      -6.121  12.864  21.128  0.00  0.00    +0.000 A 
ENDBRANCH   4   8
BRANCH   1  20
ATOM     18  O   UNL     1      -0.195  10.300  23.377  0.00  0.00    +0.000 OA
ATOM     19  C   UNL     1      -0.115  10.686  22.211  0.00  0.00    +0.000 C 
ATOM     20  N   UNL     1      -0.645  11.880  21.783  0.00  0.00    +0.000 N 
ATOM     21  H   UNL     1      -0.468  12.109  20.806  0.00  0.00    +0.000 HD
BRANCH  19  22
ATOM     22  C   UNL     1       0.516   9.893  21.142  0.00  0.00    +0.000 A 
ATOM     23  C   UNL     1       0.629  10.276  19.765  0.00  0.00    +0.000 A 
ATOM     24  C   UNL     1       1.305   9.244  19.181  0.00  0.00    +0.000 A 
ATOM     25  N   UNL     1       1.549   8.354  20.165  0.00  0.00    +0.000 N 
ATOM     26  N   UNL     1       1.104   8.688  21.376  0.00  0.00    +0.000 NA
ATOM     27  C   UNL     1       2.283   7.176  19.755  0.00  0.00    +0.000 C 
ATOM     28  C   UNL     1       2.476   7.414  18.244  0.00  0.00    +0.000 C 
ATOM     29  C   UNL     1       1.847   8.791  17.894  0.00  0.00    +0.000 C 
ENDBRANCH  19  22
ENDBRANCH   1  20
BRANCH   7  30
ATOM     30  O   UNL     1       0.082  14.714  23.110  0.00  0.00    +0.000 OA
ATOM     31  H   UNL     1      -0.130  14.935  24.036  0.00  0.00    +0.000 HD
ENDBRANCH   7  30
TORSDOF 4
ENDMDL
MODEL 2
REMARK VINA RESULT:      -7.6      0.670      1.019
REMARK  Name = 
REMARK  4 active torsions:
REMARK  status: ('A' for Active; 'I' for Inactive)
REMARK    1  A    between atoms: C_2  and  C_22
REMARK    2  A    between atoms: N_3  and  C_4
REMARK    3  A    between atoms: C_7  and  C_9
REMARK    4  A    between atoms: C_20  and  O_21
REMARK                            x       y       z     vdW  Elec       q    Type
REMARK                         _______ _______ _______ _____ _____    ______ ____
ROOT
ATOM      1  C   UNL     1      -1.432  12.671  22.548  0.00  0.00    +0.000 C 
ATOM      2  C   UNL     1      -2.930  12.525  22.301  0.00  0.00    +0.000 C 
ATOM      3  N   UNL     1      -3.517  13.841  22.519  0.00  0.00    +0.000 N 
ATOM      4  C   UNL     1      -4.849  14.245  22.384  0.00  0.00    +0.000 C 
ATOM      5  O   UNL     1      -5.161  15.427  22.517  0.00  0.00    +0.000 OA
ATOM      6  C   UNL     1      -2.464  14.813  22.807  0.00  0.00    +0.000 C 
ATOM      7  C   UNL     1      -1.165  14.164  22.308  0.00  0.00    +0.000 C 
ENDROOT
BRANCH   4   8
ATOM      8  C   UNL     1      -5.926  13.234  22.061  0.00  0.00    +0.000 A 
ATOM      9  C   UNL     1      -6.893  12.953  23.041  0.00  0.00    +0.000 A 
ATOM     10  C   UNL     1      -7.833  11.944  22.877  0.00  0.00    +0.000 A 
ATOM     11  C   UNL     1      -7.913  11.279  21.666  0.00  0.00    +0.000 A 
ATOM     12  C   UNL     1      -7.070  11.637  20.605  0.00  0.00    +0.000 A 
ATOM     13  C   UNL     1      -7.252  11.058  19.349  0.00  0.00    +0.000 A 
ATOM     14  N   UNL     1      -6.524  11.354  18.254  0.00  0.00    +0.000 NA
ATOM     15  C   UNL     1      -5.548  12.263  18.423  0.00  0.00    +0.000 A 
ATOM     16  C   UNL     1      -5.265  12.888  19.632  0.00  0.00    +0.000 A 
ATOM     17  C   UNL     1      -6.048  12.610  20.778  0.00  0.00    +0.000 A 
ENDBRANCH   4   8
BRANCH   1  20
ATOM     18  O   UNL     1      -0.148  10.313  23.427  0.00  0.00    +0.000 OA
ATOM     19  C   UNL     1      -0.068  10.630  22.240  0.00  0.00    +0.000 C 
ATOM     20  N   UNL     1      -0.648  11.769  21.732  0.00  0.00    +0.000 N 
ATOM     21  H   UNL     1      -0.465  11.947  20.745  0.00  0.00    +0.000 HD
BRANCH  19  22
ATOM     22  C   UNL     1       0.618   9.806  21.231  0.00  0.00    +0.000 A 
ATOM     23  C   UNL     1       1.127   8.480  21.432  0.00  0.00    +0.000 A 
ATOM     24  C   UNL     1       1.643   8.129  20.219  0.00  0.00    +0.000 A 
ATOM     25  N   UNL     1       1.435   9.184  19.404  0.00  0.00    +0.000 N 
ATOM     26  N   UNL     1       0.815  10.229  19.953  0.00  0.00    +0.000 NA
ATOM     27  C   UNL     1       1.899   9.009  18.046  0.00  0.00    +0.000 C 
ATOM     28  C   UNL     1       2.518   7.597  18.086  0.00  0.00    +0.000 C 
ATOM     29  C   UNL     1       2.316   7.028  19.517  0.00  0.00    +0.000 C 
ENDBRANCH  19  22
ENDBRANCH   1  20
BRANCH   7  30
ATOM     30  O   UNL     1      -0.025  14.649  23.011  0.00  0.00    +0.000 OA
ATOM     31  H   UNL     1      -0.321  15.225  23.741  0.00  0.00    +0.000 HD
ENDBRANCH   7  30
TORSDOF 4
ENDMDL
MODEL 3
REMARK VINA RESULT:      -7.3      2.720      4.729
REMARK  Name = 
REMARK  4 active torsions:
REMARK  status: ('A' for Active; 'I' for Inactive)
REMARK    1  A    between atoms: C_2  and  C_22
REMARK    2  A    between atoms: N_3  and  C_4
REMARK    3  A    between atoms: C_7  and  C_9
REMARK    4  A    between atoms: C_20  and  O_21
REMARK                            x       y       z     vdW  Elec       q    Type
REMARK                         _______ _______ _______ _____ _____    ______ ____
ROOT
ATOM      1  C   UNL     1       0.511   9.192  20.358  0.00  0.00    +0.000 C 
ATOM      2  C   UNL     1      -0.629   9.801  19.548  0.00  0.00    +0.000 C 
ATOM      3  N   UNL     1      -1.037  11.011  20.250  0.00  0.00    +0.000 N 
ATOM      4  C   UNL     1      -2.015  11.946  19.897  0.00  0.00    +0.000 C 
ATOM      5  O   UNL     1      -2.168  12.971  20.559  0.00  0.00    +0.000 OA
ATOM      6  C   UNL     1      -0.166  11.235  21.402  0.00  0.00    +0.000 C 
ATOM      7  C   UNL     1       1.086  10.384  21.136  0.00  0.00    +0.000 C 
ENDROOT
BRANCH   4   8
ATOM      8  C   UNL     1      -2.893  11.716  18.688  0.00  0.00    +0.000 A 
ATOM      9  C   UNL     1      -2.294  11.244  17.509  0.00  0.00    +0.000 A 
ATOM     10  C   UNL     1      -3.002  11.134  16.318  0.00  0.00    +0.000 A 
ATOM     11  C   UNL     1      -4.366  11.367  16.314  0.00  0.00    +0.000 A 
ATOM     12  C   UNL     1      -5.033  11.688  17.504  0.00  0.00    +0.000 A 
ATOM     13  C   UNL     1      -6.425  11.783  17.515  0.00  0.00    +0.000 A 
ATOM     14  N   UNL     1      -7.168  12.049  18.608  0.00  0.00    +0.000 NA
ATOM     15  C   UNL     1      -6.486  12.250  19.749  0.00  0.00    +0.000 A 
ATOM     16  C   UNL     1      -5.102  12.199  19.850  0.00  0.00    +0.000 A 
ATOM     17  C   UNL     1      -4.316  11.884  18.716  0.00  0.00    +0.000 A 
ENDBRANCH   4   8
BRANCH   1  20
ATOM     18  O   UNL     1       1.533   6.600  20.822  0.00  0.00    +0.000 OA
ATOM     19  C   UNL     1       1.898   7.215  19.821  0.00  0.00    +0.000 C 
ATOM     20  N   UNL     1       1.463   8.486  19.527  0.00  0.00    +0.000 N 
ATOM     21  H   UNL     1       1.878   8.907  18.697  0.00  0.00    +0.000 HD
BRANCH  19  22
ATOM     22  C   UNL     1       2.802   6.642  18.809  0.00  0.00    +0.000 A 
ATOM     23  C   UNL     1       3.534   7.380  17.821  0.00  0.00    +0.000 A 
ATOM     24  C   UNL     1       4.241   6.428  17.145  0.00  0.00    +0.000 A 
ATOM     25  N   UNL     1       3.922   5.249  17.716  0.00  0.00    +0.000 N 
ATOM     26  N   UNL     1       3.061   5.308  18.732  0.00  0.00    +0.000 NA
ATOM     27  C   UNL     1       4.587   4.095  17.151  0.00  0.00    +0.000 C 
ATOM     28  C   UNL     1       5.428   4.719  16.018  0.00  0.00    +0.000 C 
ATOM     29  C   UNL     1       5.204   6.256  16.049  0.00  0.00    +0.000 C 
ENDBRANCH  19  22
ENDBRANCH   1  20
BRANCH   7  30
ATOM     30  O   UNL     1       1.735  10.004  22.345  0.00  0.00    +0.000 OA
ATOM     31  H   UNL     1       2.641  10.364  22.349  0.00  0.00    +0.000 HD
ENDBRANCH   7  30
TORSDOF 4
ENDMDL
MODEL 4
REMARK VINA RESULT:      -7.3      4.968     11.858
REMARK  Name = 
REMARK  4 active torsions:
REMARK  status: ('A' for Active; 'I' for Inactive)
REMARK    1  A    between atoms: C_2  and  C_22
REMARK    2  A    between atoms: N_3  and  C_4
REMARK    3  A    between atoms: C_7  and  C_9
REMARK    4  A    between atoms: C_20  and  O_21
REMARK                            x       y       z     vdW  Elec       q    Type
REMARK                         _______ _______ _______ _____ _____    ______ ____
ROOT
ATOM      1  C   UNL     1       2.230   4.924  20.815  0.00  0.00    +0.000 C 
ATOM      2  C   UNL     1       3.416   5.054  19.864  0.00  0.00    +0.000 C 
ATOM      3  N   UNL     1       3.439   3.839  19.060  0.00  0.00    +0.000 N 
ATOM      4  C   UNL     1       4.306   3.486  18.021  0.00  0.00    +0.000 C 
ATOM      5  O   UNL     1       4.125   2.454  17.379  0.00  0.00    +0.000 OA
ATOM      6  C   UNL     1       2.292   2.998  19.398  0.00  0.00    +0.000 C 
ATOM      7  C   UNL     1       1.298   3.932  20.105  0.00  0.00    +0.000 C 
ENDROOT
BRANCH   4   8
ATOM      8  C   UNL     1       5.474   4.377  17.665  0.00  0.00    +0.000 A 
ATOM      9  C   UNL     1       6.184   4.996  18.707  0.00  0.00    +0.000 A 
ATOM     10  C   UNL     1       7.180   5.932  18.462  0.00  0.00    +0.000 A 
ATOM     11  C   UNL     1       7.585   6.170  17.160  0.00  0.00    +0.000 A 
ATOM     12  C   UNL     1       7.012   5.456  16.099  0.00  0.00    +0.000 A 
ATOM     13  C   UNL     1       7.523   5.602  14.809  0.00  0.00    +0.000 A 
ATOM     14  N   UNL     1       7.073   4.939  13.725  0.00  0.00    +0.000 NA
ATOM     15  C   UNL     1       6.044   4.098  13.934  0.00  0.00    +0.000 A 
ATOM     16  C   UNL     1       5.446   3.890  15.170  0.00  0.00    +0.000 A 
ATOM     17  C   UNL     1       5.936   4.554  16.320  0.00  0.00    +0.000 A 
ENDBRANCH   4   8
BRANCH   1  20
ATOM     18  O   UNL     1       2.437   7.289  19.284  0.00  0.00    +0.000 OA
ATOM     19  C   UNL     1       1.774   7.305  20.320  0.00  0.00    +0.000 C 
ATOM     20  N   UNL     1       1.634   6.204  21.133  0.00  0.00    +0.000 N 
ATOM     21  H   UNL     1       1.103   6.360  21.988  0.00  0.00    +0.000 HD
BRANCH  19  22
ATOM     22  C   UNL     1       1.024   8.486  20.778  0.00  0.00    +0.000 A 
ATOM     23  C   UNL     1       0.683   9.628  19.980  0.00  0.00    +0.000 A 
ATOM     24  C   UNL     1      -0.025  10.432  20.826  0.00  0.00    +0.000 A 
ATOM     25  N   UNL     1      -0.072   9.782  22.007  0.00  0.00    +0.000 N 
ATOM     26  N   UNL     1       0.538   8.598  22.044  0.00  0.00    +0.000 NA
ATOM     27  C   UNL     1      -0.803  10.465  23.052  0.00  0.00    +0.000 C 
ATOM     28  C   UNL     1      -1.237  11.771  22.354  0.00  0.00    +0.000 C 
ATOM     29  C   UNL     1      -0.737  11.715  20.885  0.00  0.00    +0.000 C 
ENDBRANCH  19  22
ENDBRANCH   1  20
BRANCH   7  30
ATOM     30  O   UNL     1       0.449   3.221  21.001  0.00  0.00    +0.000 OA
ATOM     31  H   UNL     1      -0.153   2.651  20.487  0.00  0.00    +0.000 HD
ENDBRANCH   7  30
TORSDOF 4
ENDMDL
MODEL 5
REMARK VINA RESULT:      -7.2      7.561     12.165
REMARK  Name = 
REMARK  4 active torsions:
REMARK  status: ('A' for Active; 'I' for Inactive)
REMARK    1  A    between atoms: C_2  and  C_22
REMARK    2  A    between atoms: N_3  and  C_4
REMARK    3  A    between atoms: C_7  and  C_9
REMARK    4  A    between atoms: C_20  and  O_21
REMARK                            x       y       z     vdW  Elec       q    Type
REMARK                         _______ _______ _______ _____ _____    ______ ____
ROOT
ATOM      1  C   UNL     1       5.314  15.367  18.091  0.00  0.00    +0.000 C 
ATOM      2  C   UNL     1       6.724  14.785  18.062  0.00  0.00    +0.000 C 
ATOM      3  N   UNL     1       7.619  15.843  18.513  0.00  0.00    +0.000 N 
ATOM      4  C   UNL     1       9.005  15.804  18.699  0.00  0.00    +0.000 C 
ATOM      5  O   UNL     1       9.599  16.766  19.180  0.00  0.00    +0.000 OA
ATOM      6  C   UNL     1       6.843  17.020  18.898  0.00  0.00    +0.000 C 
ATOM      7  C   UNL     1       5.411  16.510  19.112  0.00  0.00    +0.000 C 
ENDROOT
BRANCH   4   8
ATOM      8  C   UNL     1       9.793  14.570  18.320  0.00  0.00    +0.000 A 
ATOM      9  C   UNL     1      10.665  14.647  17.221  0.00  0.00    +0.000 A 
ATOM     10  C   UNL     1      11.322  13.528  16.726  0.00  0.00    +0.000 A 
ATOM     11  C   UNL     1      11.227  12.327  17.406  0.00  0.00    +0.000 A 
ATOM     12  C   UNL     1      10.494  12.244  18.597  0.00  0.00    +0.000 A 
ATOM     13  C   UNL     1      10.519  11.067  19.347  0.00  0.00    +0.000 A 
ATOM     14  N   UNL     1       9.881  10.891  20.521  0.00  0.00    +0.000 NA
ATOM     15  C   UNL     1       9.164  11.938  20.966  0.00  0.00    +0.000 A 
ATOM     16  C   UNL     1       9.053  13.149  20.293  0.00  0.00    +0.000 A 
ATOM     17  C   UNL     1       9.749  13.355  19.077  0.00  0.00    +0.000 A 
ENDBRANCH   4   8
BRANCH   1  20
ATOM     18  O   UNL     1       2.521  15.671  17.799  0.00  0.00    +0.000 OA
ATOM     19  C   UNL     1       2.966  14.595  18.197  0.00  0.00    +0.000 C 
ATOM     20  N   UNL     1       4.310  14.367  18.384  0.00  0.00    +0.000 N 
ATOM     21  H   UNL     1       4.546  13.453  18.766  0.00  0.00    +0.000 HD
BRANCH  19  22
ATOM     22  C   UNL     1       2.116  13.426  18.475  0.00  0.00    +0.000 A 
ATOM     23  C   UNL     1       2.420  12.065  18.138  0.00  0.00    +0.000 A 
ATOM     24  C   UNL     1       1.358  11.354  18.616  0.00  0.00    +0.000 A 
ATOM     25  N   UNL     1       0.526  12.255  19.178  0.00  0.00    +0.000 N 
ATOM     26  N   UNL     1       0.928  13.525  19.131  0.00  0.00    +0.000 NA
ATOM     27  C   UNL     1      -0.670  11.698  19.769  0.00  0.00    +0.000 C 
ATOM     28  C   UNL     1      -0.519  10.192  19.469  0.00  0.00    +0.000 C 
ATOM     29  C   UNL     1       0.834   9.987  18.734  0.00  0.00    +0.000 C 
ENDBRANCH  19  22
ENDBRANCH   1  20
BRANCH   7  30
ATOM     30  O   UNL     1       4.445  17.535  18.899  0.00  0.00    +0.000 OA
ATOM     31  H   UNL     1       4.139  17.499  17.974  0.00  0.00    +0.000 HD
ENDBRANCH   7  30
TORSDOF 4
ENDMDL
MODEL 6
REMARK VINA RESULT:      -7.2      3.001      5.291
REMARK  Name = 
REMARK  4 active torsions:
REMARK  status: ('A' for Active; 'I' for Inactive)
REMARK    1  A    between atoms: C_2  and  C_22
REMARK    2  A    between atoms: N_3  and  C_4
REMARK    3  A    between atoms: C_7  and  C_9
REMARK    4  A    between atoms: C_20  and  O_21
REMARK                            x       y       z     vdW  Elec       q    Type
REMARK                         _______ _______ _______ _____ _____    ______ ____
ROOT
ATOM      1  C   UNL     1       0.992   8.534  20.722  0.00  0.00    +0.000 C 
ATOM      2  C   UNL     1      -0.050   9.191  19.822  0.00  0.00    +0.000 C 
ATOM      3  N   UNL     1      -0.479  10.407  20.501  0.00  0.00    +0.000 N 
ATOM      4  C   UNL     1      -1.390  11.379  20.076  0.00  0.00    +0.000 C 
ATOM      5  O   UNL     1      -1.568  12.401  20.735  0.00  0.00    +0.000 OA
ATOM      6  C   UNL     1       0.292  10.587  21.730  0.00  0.00    +0.000 C 
ATOM      7  C   UNL     1       1.533   9.698  21.566  0.00  0.00    +0.000 C 
ENDROOT
BRANCH   4   8
ATOM      8  C   UNL     1      -2.162  11.192  18.789  0.00  0.00    +0.000 A 
ATOM      9  C   UNL     1      -1.579  10.428  17.766  0.00  0.00    +0.000 A 
ATOM     10  C   UNL     1      -2.159  10.319  16.508  0.00  0.00    +0.000 A 
ATOM     11  C   UNL     1      -3.410  10.866  16.288  0.00  0.00    +0.000 A 
ATOM     12  C   UNL     1      -4.099  11.503  17.329  0.00  0.00    +0.000 A 
ATOM     13  C   UNL     1      -5.414  11.926  17.134  0.00  0.00    +0.000 A 
ATOM     14  N   UNL     1      -6.178  12.515  18.075  0.00  0.00    +0.000 NA
ATOM     15  C   UNL     1      -5.595  12.711  19.271  0.00  0.00    +0.000 A 
ATOM     16  C   UNL     1      -4.288  12.347  19.570  0.00  0.00    +0.000 A 
ATOM     17  C   UNL     1      -3.490  11.695  18.599  0.00  0.00    +0.000 A 
ENDBRANCH   4   8
BRANCH   1  20
ATOM     18  O   UNL     1       1.462   5.751  20.830  0.00  0.00    +0.000 OA
ATOM     19  C   UNL     1       2.142   6.443  20.073  0.00  0.00    +0.000 C 
ATOM     20  N   UNL     1       1.991   7.806  19.971  0.00  0.00    +0.000 N 
ATOM     21  H   UNL     1       2.650   8.270  19.347  0.00  0.00    +0.000 HD
BRANCH  19  22
ATOM     22  C   UNL     1       3.158   5.883  19.166  0.00  0.00    +0.000 A 
ATOM     23  C   UNL     1       2.963   5.555  17.784  0.00  0.00    +0.000 A 
ATOM     24  C   UNL     1       4.181   5.102  17.369  0.00  0.00    +0.000 A 
ATOM     25  N   UNL     1       4.993   5.173  18.444  0.00  0.00    +0.000 N 
ATOM     26  N   UNL     1       4.438   5.642  19.561  0.00  0.00    +0.000 NA
ATOM     27  C   UNL     1       6.356   4.750  18.211  0.00  0.00    +0.000 C 
ATOM     28  C   UNL     1       6.323   4.325  16.728  0.00  0.00    +0.000 C 
ATOM     29  C   UNL     1       4.891   4.589  16.189  0.00  0.00    +0.000 C 
ENDBRANCH  19  22
ENDBRANCH   1  20
BRANCH   7  30
ATOM     30  O   UNL     1       2.057   9.282  22.823  0.00  0.00    +0.000 OA
ATOM     31  H   UNL     1       2.709   8.570  22.679  0.00  0.00    +0.000 HD
ENDBRANCH   7  30
TORSDOF 4
ENDMDL
MODEL 7
REMARK VINA RESULT:      -7.2      1.563      2.467
REMARK  Name = 
REMARK  4 active torsions:
REMARK  status: ('A' for Active; 'I' for Inactive)
REMARK    1  A    between atoms: C_2  and  C_22
REMARK    2  A    between atoms: N_3  and  C_4
REMARK    3  A    between atoms: C_7  and  C_9
REMARK    4  A    between atoms: C_20  and  O_21
REMARK                            x       y       z     vdW  Elec       q    Type
REMARK                         _______ _______ _______ _____ _____    ______ ____
ROOT
ATOM      1  C   UNL     1      -0.483  11.997  21.526  0.00  0.00    +0.000 C 
ATOM      2  C   UNL     1      -1.961  11.981  21.150  0.00  0.00    +0.000 C 
ATOM      3  N   UNL     1      -2.423  13.361  21.222  0.00  0.00    +0.000 N 
ATOM      4  C   UNL     1      -3.689  13.882  20.936  0.00  0.00    +0.000 C 
ATOM      5  O   UNL     1      -3.885  15.095  20.958  0.00  0.00    +0.000 OA
ATOM      6  C   UNL     1      -1.303  14.244  21.542  0.00  0.00    +0.000 C 
ATOM      7  C   UNL     1      -0.040  13.434  21.212  0.00  0.00    +0.000 C 
ENDROOT
BRANCH   4   8
ATOM      8  C   UNL     1      -4.834  12.960  20.582  0.00  0.00    +0.000 A 
ATOM      9  C   UNL     1      -4.850  12.376  19.305  0.00  0.00    +0.000 A 
ATOM     10  C   UNL     1      -5.928  11.627  18.853  0.00  0.00    +0.000 A 
ATOM     11  C   UNL     1      -6.963  11.331  19.724  0.00  0.00    +0.000 A 
ATOM     12  C   UNL     1      -6.912  11.762  21.056  0.00  0.00    +0.000 A 
ATOM     13  C   UNL     1      -7.889  11.342  21.959  0.00  0.00    +0.000 A 
ATOM     14  N   UNL     1      -7.917  11.666  23.267  0.00  0.00    +0.000 NA
ATOM     15  C   UNL     1      -6.927  12.468  23.697  0.00  0.00    +0.000 A 
ATOM     16  C   UNL     1      -5.914  12.961  22.883  0.00  0.00    +0.000 A 
ATOM     17  C   UNL     1      -5.857  12.597  21.516  0.00  0.00    +0.000 A 
ENDBRANCH   4   8
BRANCH   1  20
ATOM     18  O   UNL     1      -0.046   9.368  22.462  0.00  0.00    +0.000 OA
ATOM     19  C   UNL     1       0.421   9.699  21.373  0.00  0.00    +0.000 C 
ATOM     20  N   UNL     1       0.271  10.962  20.850  0.00  0.00    +0.000 N 
ATOM     21  H   UNL     1       0.748  11.126  19.965  0.00  0.00    +0.000 HD
BRANCH  19  22
ATOM     22  C   UNL     1       1.152   8.771  20.494  0.00  0.00    +0.000 A 
ATOM     23  C   UNL     1       1.611   9.054  19.166  0.00  0.00    +0.000 A 
ATOM     24  C   UNL     1       2.247   7.911  18.777  0.00  0.00    +0.000 A 
ATOM     25  N   UNL     1       2.147   7.056  19.815  0.00  0.00    +0.000 N 
ATOM     26  N   UNL     1       1.501   7.515  20.887  0.00  0.00    +0.000 NA
ATOM     27  C   UNL     1       2.780   5.771  19.613  0.00  0.00    +0.000 C 
ATOM     28  C   UNL     1       3.327   5.893  18.176  0.00  0.00    +0.000 C 
ATOM     29  C   UNL     1       2.987   7.317  17.656  0.00  0.00    +0.000 C 
ENDBRANCH  19  22
ENDBRANCH   1  20
BRANCH   7  30
ATOM     30  O   UNL     1       1.079  13.857  21.985  0.00  0.00    +0.000 OA
ATOM     31  H   UNL     1       0.760  14.278  22.805  0.00  0.00    +0.000 HD
ENDBRANCH   7  30
TORSDOF 4
ENDMDL
MODEL 8
REMARK VINA RESULT:      -7.2      7.559     12.072
REMARK  Name = 
REMARK  4 active torsions:
REMARK  status: ('A' for Active; 'I' for Inactive)
REMARK    1  A    between atoms: C_2  and  C_22
REMARK    2  A    between atoms: N_3  and  C_4
REMARK    3  A    between atoms: C_7  and  C_9
REMARK    4  A    between atoms: C_20  and  O_21
REMARK                            x       y       z     vdW  Elec       q    Type
REMARK                         _______ _______ _______ _____ _____    ______ ____
ROOT
ATOM      1  C   UNL     1       5.259  15.620  18.365  0.00  0.00    +0.000 C 
ATOM      2  C   UNL     1       6.645  14.986  18.295  0.00  0.00    +0.000 C 
ATOM      3  N   UNL     1       7.577  15.963  18.845  0.00  0.00    +0.000 N 
ATOM      4  C   UNL     1       8.958  15.852  19.037  0.00  0.00    +0.000 C 
ATOM      5  O   UNL     1       9.584  16.743  19.606  0.00  0.00    +0.000 OA
ATOM      6  C   UNL     1       6.844  17.132  19.327  0.00  0.00    +0.000 C 
ATOM      7  C   UNL     1       5.390  16.663  19.484  0.00  0.00    +0.000 C 
ENDROOT
BRANCH   4   8
ATOM      8  C   UNL     1       9.700  14.625  18.556  0.00  0.00    +0.000 A 
ATOM      9  C   UNL     1      10.541  14.750  17.438  0.00  0.00    +0.000 A 
ATOM     10  C   UNL     1      11.153  13.650  16.852  0.00  0.00    +0.000 A 
ATOM     11  C   UNL     1      11.044  12.410  17.457  0.00  0.00    +0.000 A 
ATOM     12  C   UNL     1      10.344  12.269  18.662  0.00  0.00    +0.000 A 
ATOM     13  C   UNL     1      10.359  11.046  19.334  0.00  0.00    +0.000 A 
ATOM     14  N   UNL     1       9.752  10.811  20.514  0.00  0.00    +0.000 NA
ATOM     15  C   UNL     1       9.077  11.845  21.046  0.00  0.00    +0.000 A 
ATOM     16  C   UNL     1       8.980  13.099  20.456  0.00  0.00    +0.000 A 
ATOM     17  C   UNL     1       9.645  13.365  19.235  0.00  0.00    +0.000 A 
ENDBRANCH   4   8
BRANCH   1  20
ATOM     18  O   UNL     1       2.501  16.007  17.892  0.00  0.00    +0.000 OA
ATOM     19  C   UNL     1       2.891  14.909  18.289  0.00  0.00    +0.000 C 
ATOM     20  N   UNL     1       4.213  14.640  18.560  0.00  0.00    +0.000 N 
ATOM     21  H   UNL     1       4.400  13.710  18.931  0.00  0.00    +0.000 HD
BRANCH  19  22
ATOM     22  C   UNL     1       1.995  13.755  18.475  0.00  0.00    +0.000 A 
ATOM     23  C   UNL     1       0.581  13.816  18.702  0.00  0.00    +0.000 A 
ATOM     24  C   UNL     1       0.195  12.510  18.782  0.00  0.00    +0.000 A 
ATOM     25  N   UNL     1       1.315  11.778  18.611  0.00  0.00    +0.000 N 
ATOM     26  N   UNL     1       2.437  12.469  18.415  0.00  0.00    +0.000 NA
ATOM     27  C   UNL     1       1.120  10.345  18.643  0.00  0.00    +0.000 C 
ATOM     28  C   UNL     1      -0.394  10.222  18.912  0.00  0.00    +0.000 C 
ATOM     29  C   UNL     1      -0.985  11.656  18.974  0.00  0.00    +0.000 C 
ENDBRANCH  19  22
ENDBRANCH   1  20
BRANCH   7  30
ATOM     30  O   UNL     1       4.468  17.742  19.355  0.00  0.00    +0.000 OA
ATOM     31  H   UNL     1       4.110  17.751  18.448  0.00  0.00    +0.000 HD
ENDBRANCH   7  30
TORSDOF 4
ENDMDL
MODEL 9
REMARK VINA RESULT:      -7.1      6.324      8.311
REMARK  Name = 
REMARK  4 active torsions:
REMARK  status: ('A' for Active; 'I' for Inactive)
REMARK    1  A    between atoms: C_2  and  C_22
REMARK    2  A    between atoms: N_3  and  C_4
REMARK    3  A    between atoms: C_7  and  C_9
REMARK    4  A    between atoms: C_20  and  O_21
REMARK                            x       y       z     vdW  Elec       q    Type
REMARK                         _______ _______ _______ _____ _____    ______ ____
ROOT
ATOM      1  C   UNL     1       3.944  15.037  18.900  0.00  0.00    +0.000 C 
ATOM      2  C   UNL     1       3.093  13.801  19.172  0.00  0.00    +0.000 C 
ATOM      3  N   UNL     1       1.728  14.145  18.792  0.00  0.00    +0.000 N 
ATOM      4  C   UNL     1       0.580  13.346  18.814  0.00  0.00    +0.000 C 
ATOM      5  O   UNL     1      -0.484  13.768  18.366  0.00  0.00    +0.000 OA
ATOM      6  C   UNL     1       1.695  15.491  18.225  0.00  0.00    +0.000 C 
ATOM      7  C   UNL     1       3.147  15.805  17.836  0.00  0.00    +0.000 C 
ENDROOT
BRANCH   4   8
ATOM      8  C   UNL     1       0.634  11.945  19.379  0.00  0.00    +0.000 A 
ATOM      9  C   UNL     1       1.314  10.956  18.649  0.00  0.00    +0.000 A 
ATOM     10  C   UNL     1       1.296   9.620  19.028  0.00  0.00    +0.000 A 
ATOM     11  C   UNL     1       0.707   9.262  20.228  0.00  0.00    +0.000 A 
ATOM     12  C   UNL     1       0.155  10.240  21.066  0.00  0.00    +0.000 A 
ATOM     13  C   UNL     1      -0.310   9.886  22.333  0.00  0.00    +0.000 A 
ATOM     14  N   UNL     1      -0.825  10.750  23.231  0.00  0.00    +0.000 NA
ATOM     15  C   UNL     1      -0.900  12.034  22.838  0.00  0.00    +0.000 A 
ATOM     16  C   UNL     1      -0.485  12.494  21.594  0.00  0.00    +0.000 A 
ATOM     17  C   UNL     1       0.091  11.600  20.659  0.00  0.00    +0.000 A 
ENDBRANCH   4   8
BRANCH   1  20
ATOM     18  O   UNL     1       6.175  16.768  18.988  0.00  0.00    +0.000 OA
ATOM     19  C   UNL     1       6.334  15.606  18.615  0.00  0.00    +0.000 C 
ATOM     20  N   UNL     1       5.301  14.702  18.526  0.00  0.00    +0.000 N 
ATOM     21  H   UNL     1       5.554  13.788  18.155  0.00  0.00    +0.000 HD
BRANCH  19  22
ATOM     22  C   UNL     1       7.651  15.046  18.266  0.00  0.00    +0.000 A 
ATOM     23  C   UNL     1       8.850  15.798  18.033  0.00  0.00    +0.000 A 
ATOM     24  C   UNL     1       9.797  14.850  17.774  0.00  0.00    +0.000 A 
ATOM     25  N   UNL     1       9.168  13.660  17.857  0.00  0.00    +0.000 N 
ATOM     26  N   UNL     1       7.871  13.707  18.157  0.00  0.00    +0.000 NA
ATOM     27  C   UNL     1      10.010  12.506  17.630  0.00  0.00    +0.000 C 
ATOM     28  C   UNL     1      11.380  13.148  17.331  0.00  0.00    +0.000 C 
ATOM     29  C   UNL     1      11.222  14.688  17.456  0.00  0.00    +0.000 C 
ENDBRANCH  19  22
ENDBRANCH   1  20
BRANCH   7  30
ATOM     30  O   UNL     1       3.407  17.205  17.841  0.00  0.00    +0.000 OA
ATOM     31  H   UNL     1       2.821  17.637  18.491  0.00  0.00    +0.000 HD
ENDBRANCH   7  30
TORSDOF 4
ENDMDL
