MODEL 1
REMARK VINA RESULT:      -8.2      0.000      0.000
REMARK  Name = 
REMARK  6 active torsions:
REMARK  status: ('A' for Active; 'I' for Inactive)
REMARK    1  A    between atoms: C_1  and  C_2
REMARK    2  A    between atoms: C_5  and  N_6
REMARK    3  A    between atoms: C_9  and  C_10
REMARK    4  A    between atoms: N_12  and  C_13
REMARK    5  A    between atoms: C_13  and  C_14
REMARK    6  A    between atoms: C_22  and  C_23
REMARK                            x       y       z     vdW  Elec       q    Type
REMARK                         _______ _______ _______ _____ _____    ______ ____
ROOT
ATOM      1  N   UNL     1       1.398   9.941  18.702  0.00  0.00    +0.000 N 
ATOM      2  N   UNL     1       1.754   9.476  17.470  0.00  0.00    +0.000 NA
ATOM      3  C   UNL     1       2.184   8.240  17.679  0.00  0.00    +0.000 A 
ATOM      4  C   UNL     1       2.092   7.844  19.022  0.00  0.00    +0.000 A 
ATOM      5  C   UNL     1       1.485   8.919  19.651  0.00  0.00    +0.000 A 
ENDROOT
BRANCH   1  10
ATOM      6  C   UNL     1      -0.624  15.292  19.381  0.00  0.00    +0.000 C 
ATOM      7  C   UNL     1      -0.055  13.926  19.126  0.00  0.00    +0.000 A 
ATOM      8  C   UNL     1      -0.914  12.871  18.796  0.00  0.00    +0.000 A 
ATOM      9  C   UNL     1      -0.415  11.575  18.636  0.00  0.00    +0.000 A 
ATOM     10  C   UNL     1       0.951  11.293  18.801  0.00  0.00    +0.000 A 
ATOM     11  C   UNL     1       1.818  12.353  19.075  0.00  0.00    +0.000 A 
ATOM     12  C   UNL     1       1.312  13.654  19.247  0.00  0.00    +0.000 A 
ATOM     13 CL   UNL     1       2.448  14.910  19.604  0.00  0.00    +0.000 Cl
ENDBRANCH   1  10
BRANCH   4  14
ATOM     14  C   UNL     1       2.588   6.616  19.603  0.00  0.00    +0.000 C 
ATOM     15  O   UNL     1       2.012   6.013  20.503  0.00  0.00    +0.000 OA
ATOM     16  N   UNL     1       3.776   6.182  19.068  0.00  0.00    +0.000 N 
ATOM     17  H   UNL     1       4.075   6.533  18.164  0.00  0.00    +0.000 HD
BRANCH  16  18
ATOM     18  C   UNL     1       4.309   4.920  19.485  0.00  0.00    +0.000 C 
BRANCH  18  19
ATOM     19  C   UNL     1       3.748   3.839  18.642  0.00  0.00    +0.000 A 
ATOM     20  N   UNL     1       3.520   3.886  17.336  0.00  0.00    +0.000 NA
ATOM     21  N   UNL     1       2.350   3.179  17.090  0.00  0.00    +0.000 NA
ATOM     22  C   UNL     1       1.991   2.666  18.238  0.00  0.00    +0.000 A 
ATOM     23  N   UNL     1       3.013   2.808  19.145  0.00  0.00    +0.000 N 
ATOM     24  C   UNL     1       2.556   2.504  20.495  0.00  0.00    +0.000 C 
ATOM     25  C   UNL     1       1.079   2.880  20.375  0.00  0.00    +0.000 C 
ATOM     26  C   UNL     1       0.700   2.445  18.931  0.00  0.00    +0.000 C 
ENDBRANCH  18  19
ENDBRANCH  16  18
ENDBRANCH   4  14
BRANCH   5  27
ATOM     27  C   UNL     1       1.082   8.938  21.120  0.00  0.00    +0.000 C 
ATOM     28  C   UNL     1      -0.300   8.532  21.556  0.00  0.00    +0.000 C 
ATOM     29  C   UNL     1       0.123   9.976  21.637  0.00  0.00    +0.000 C 
ENDBRANCH   5  27
TORSDOF 5
ENDMDL
MODEL 2
REMARK VINA RESULT:      -8.2      1.565      1.904
REMARK  Name = 
REMARK  6 active torsions:
REMARK  status: ('A' for Active; 'I' for Inactive)
REMARK    1  A    between atoms: C_1  and  C_2
REMARK    2  A    between atoms: C_5  and  N_6
REMARK    3  A    between atoms: C_9  and  C_10
REMARK    4  A    between atoms: N_12  and  C_13
REMARK    5  A    between atoms: C_13  and  C_14
REMARK    6  A    between atoms: C_22  and  C_23
REMARK                            x       y       z     vdW  Elec       q    Type
REMARK                         _______ _______ _______ _____ _____    ______ ____
ROOT
ATOM      1  N   UNL     1       1.256   9.693  18.966  0.00  0.00    +0.000 N 
ATOM      2  N   UNL     1       1.687   9.669  17.672  0.00  0.00    +0.000 NA
ATOM      3  C   UNL     1       2.336   8.522  17.544  0.00  0.00    +0.000 A 
ATOM      4  C   UNL     1       2.324   7.749  18.716  0.00  0.00    +0.000 A 
ATOM      5  C   UNL     1       1.533   8.475  19.592  0.00  0.00    +0.000 A 
ENDROOT
BRANCH   1  10
ATOM      6  C   UNL     1      -1.318  14.595  20.556  0.00  0.00    +0.000 C 
ATOM      7  C   UNL     1      -0.689  13.274  20.214  0.00  0.00    +0.000 A 
ATOM      8  C   UNL     1       0.692  13.106  20.368  0.00  0.00    +0.000 A 
ATOM      9  C   UNL     1       1.308  11.914  19.977  0.00  0.00    +0.000 A 
ATOM     10  C   UNL     1       0.569  10.858  19.420  0.00  0.00    +0.000 A 
ATOM     11  C   UNL     1      -0.817  11.001  19.317  0.00  0.00    +0.000 A 
ATOM     12  C   UNL     1      -1.433  12.206  19.700  0.00  0.00    +0.000 A 
ATOM     13 CL   UNL     1      -3.152  12.313  19.523  0.00  0.00    +0.000 Cl
ENDBRANCH   1  10
BRANCH   4  14
ATOM     14  C   UNL     1       3.040   6.514  18.951  0.00  0.00    +0.000 C 
ATOM     15  O   UNL     1       3.368   6.125  20.068  0.00  0.00    +0.000 OA
ATOM     16  N   UNL     1       3.338   5.812  17.809  0.00  0.00    +0.000 N 
ATOM     17  H   UNL     1       2.826   6.007  16.955  0.00  0.00    +0.000 HD
BRANCH  16  18
ATOM     18  C   UNL     1       3.946   4.520  17.923  0.00  0.00    +0.000 C 
BRANCH  18  19
ATOM     19  C   UNL     1       2.895   3.484  18.048  0.00  0.00    +0.000 A 
ATOM     20  N   UNL     1       1.739   3.442  17.399  0.00  0.00    +0.000 NA
ATOM     21  N   UNL     1       0.785   2.944  18.277  0.00  0.00    +0.000 NA
ATOM     22  C   UNL     1       1.432   2.623  19.367  0.00  0.00    +0.000 A 
ATOM     23  N   UNL     1       2.784   2.663  19.129  0.00  0.00    +0.000 N 
ATOM     24  C   UNL     1       3.534   2.585  20.375  0.00  0.00    +0.000 C 
ATOM     25  C   UNL     1       2.528   3.215  21.340  0.00  0.00    +0.000 C 
ATOM     26  C   UNL     1       1.151   2.716  20.820  0.00  0.00    +0.000 C 
ENDBRANCH  18  19
ENDBRANCH  16  18
ENDBRANCH   4  14
BRANCH   5  27
ATOM     27  C   UNL     1       1.140   8.001  20.985  0.00  0.00    +0.000 C 
ATOM     28  C   UNL     1      -0.114   8.497  21.654  0.00  0.00    +0.000 C 
ATOM     29  C   UNL     1       1.235   8.932  22.165  0.00  0.00    +0.000 C 
ENDBRANCH   5  27
TORSDOF 5
ENDMDL
MODEL 3
REMARK VINA RESULT:      -8.1      1.207      1.374
REMARK  Name = 
REMARK  6 active torsions:
REMARK  status: ('A' for Active; 'I' for Inactive)
REMARK    1  A    between atoms: C_1  and  C_2
REMARK    2  A    between atoms: C_5  and  N_6
REMARK    3  A    between atoms: C_9  and  C_10
REMARK    4  A    between atoms: N_12  and  C_13
REMARK    5  A    between atoms: C_13  and  C_14
REMARK    6  A    between atoms: C_22  and  C_23
REMARK                            x       y       z     vdW  Elec       q    Type
REMARK                         _______ _______ _______ _____ _____    ______ ____
ROOT
ATOM      1  N   UNL     1       1.396   9.480  18.768  0.00  0.00    +0.000 N 
ATOM      2  N   UNL     1       1.893   9.442  17.497  0.00  0.00    +0.000 NA
ATOM      3  C   UNL     1       2.564   8.302  17.423  0.00  0.00    +0.000 A 
ATOM      4  C   UNL     1       2.501   7.548  18.605  0.00  0.00    +0.000 A 
ATOM      5  C   UNL     1       1.657   8.277  19.427  0.00  0.00    +0.000 A 
ENDROOT
BRANCH   1  10
ATOM      6  C   UNL     1      -1.761  13.953  20.559  0.00  0.00    +0.000 C 
ATOM      7  C   UNL     1      -0.891  12.846  20.036  0.00  0.00    +0.000 A 
ATOM      8  C   UNL     1      -1.454  11.844  19.237  0.00  0.00    +0.000 A 
ATOM      9  C   UNL     1      -0.682  10.761  18.809  0.00  0.00    +0.000 A 
ATOM     10  C   UNL     1       0.671  10.643  19.166  0.00  0.00    +0.000 A 
ATOM     11  C   UNL     1       1.251  11.669  19.916  0.00  0.00    +0.000 A 
ATOM     12  C   UNL     1       0.468  12.752  20.355  0.00  0.00    +0.000 A 
ATOM     13 CL   UNL     1       1.255  13.974  21.297  0.00  0.00    +0.000 Cl
ENDBRANCH   1  10
BRANCH   4  14
ATOM     14  C   UNL     1       3.220   6.327  18.897  0.00  0.00    +0.000 C 
ATOM     15  O   UNL     1       3.617   6.028  20.019  0.00  0.00    +0.000 OA
ATOM     16  N   UNL     1       3.437   5.528  17.802  0.00  0.00    +0.000 N 
ATOM     17  H   UNL     1       2.872   5.658  16.969  0.00  0.00    +0.000 HD
BRANCH  16  18
ATOM     18  C   UNL     1       4.040   4.241  17.985  0.00  0.00    +0.000 C 
BRANCH  18  19
ATOM     19  C   UNL     1       2.985   3.218  18.171  0.00  0.00    +0.000 A 
ATOM     20  N   UNL     1       1.867   3.091  17.468  0.00  0.00    +0.000 NA
ATOM     21  N   UNL     1       0.866   2.691  18.343  0.00  0.00    +0.000 NA
ATOM     22  C   UNL     1       1.451   2.506  19.498  0.00  0.00    +0.000 A 
ATOM     23  N   UNL     1       2.814   2.528  19.333  0.00  0.00    +0.000 N 
ATOM     24  C   UNL     1       3.492   2.602  20.620  0.00  0.00    +0.000 C 
ATOM     25  C   UNL     1       2.432   3.332  21.446  0.00  0.00    +0.000 C 
ATOM     26  C   UNL     1       1.087   2.765  20.911  0.00  0.00    +0.000 C 
ENDBRANCH  18  19
ENDBRANCH  16  18
ENDBRANCH   4  14
BRANCH   5  27
ATOM     27  C   UNL     1       1.199   7.820  20.806  0.00  0.00    +0.000 C 
ATOM     28  C   UNL     1      -0.071   8.345  21.421  0.00  0.00    +0.000 C 
ATOM     29  C   UNL     1       1.265   8.756  21.983  0.00  0.00    +0.000 C 
ENDBRANCH   5  27
TORSDOF 5
ENDMDL
MODEL 4
REMARK VINA RESULT:      -8.1      2.751      4.331
REMARK  Name = 
REMARK  6 active torsions:
REMARK  status: ('A' for Active; 'I' for Inactive)
REMARK    1  A    between atoms: C_1  and  C_2
REMARK    2  A    between atoms: C_5  and  N_6
REMARK    3  A    between atoms: C_9  and  C_10
REMARK    4  A    between atoms: N_12  and  C_13
REMARK    5  A    between atoms: C_13  and  C_14
REMARK    6  A    between atoms: C_22  and  C_23
REMARK                            x       y       z     vdW  Elec       q    Type
REMARK                         _______ _______ _______ _____ _____    ______ ____
ROOT
ATOM      1  N   UNL     1       1.623   8.233  19.646  0.00  0.00    +0.000 N 
ATOM      2  N   UNL     1       2.134   8.788  18.509  0.00  0.00    +0.000 NA
ATOM      3  C   UNL     1       2.890   7.843  17.971  0.00  0.00    +0.000 A 
ATOM      4  C   UNL     1       2.874   6.644  18.701  0.00  0.00    +0.000 A 
ATOM      5  C   UNL     1       1.969   6.882  19.723  0.00  0.00    +0.000 A 
ENDROOT
BRANCH   1  10
ATOM      6  C   UNL     1      -1.356  11.669  23.181  0.00  0.00    +0.000 C 
ATOM      7  C   UNL     1      -0.661  10.735  22.232  0.00  0.00    +0.000 A 
ATOM      8  C   UNL     1       0.144   9.709  22.739  0.00  0.00    +0.000 A 
ATOM      9  C   UNL     1       0.866   8.881  21.874  0.00  0.00    +0.000 A 
ATOM     10  C   UNL     1       0.809   9.054  20.481  0.00  0.00    +0.000 A 
ATOM     11  C   UNL     1      -0.037  10.041  19.970  0.00  0.00    +0.000 A 
ATOM     12  C   UNL     1      -0.753  10.880  20.843  0.00  0.00    +0.000 A 
ATOM     13 CL   UNL     1      -1.765  12.092  20.133  0.00  0.00    +0.000 Cl
ENDBRANCH   1  10
BRANCH   4  14
ATOM     14  C   UNL     1       3.681   5.467  18.460  0.00  0.00    +0.000 C 
ATOM     15  O   UNL     1       3.315   4.529  17.759  0.00  0.00    +0.000 OA
ATOM     16  N   UNL     1       4.897   5.481  19.097  0.00  0.00    +0.000 N 
ATOM     17  H   UNL     1       5.278   6.362  19.428  0.00  0.00    +0.000 HD
BRANCH  16  18
ATOM     18  C   UNL     1       5.829   4.423  18.845  0.00  0.00    +0.000 C 
BRANCH  18  19
ATOM     19  C   UNL     1       6.818   4.860  17.832  0.00  0.00    +0.000 A 
ATOM     20  N   UNL     1       7.498   5.999  17.824  0.00  0.00    +0.000 NA
ATOM     21  N   UNL     1       7.609   6.410  16.503  0.00  0.00    +0.000 NA
ATOM     22  C   UNL     1       7.079   5.456  15.783  0.00  0.00    +0.000 A 
ATOM     23  N   UNL     1       6.864   4.351  16.569  0.00  0.00    +0.000 N 
ATOM     24  C   UNL     1       6.031   3.375  15.880  0.00  0.00    +0.000 C 
ATOM     25  C   UNL     1       5.221   4.301  14.971  0.00  0.00    +0.000 C 
ATOM     26  C   UNL     1       6.237   5.405  14.563  0.00  0.00    +0.000 C 
ENDBRANCH  18  19
ENDBRANCH  16  18
ENDBRANCH   4  14
BRANCH   5  27
ATOM     27  C   UNL     1       1.534   5.838  20.744  0.00  0.00    +0.000 C 
ATOM     28  C   UNL     1       2.373   4.619  21.020  0.00  0.00    +0.000 C 
ATOM     29  C   UNL     1       1.060   4.481  20.296  0.00  0.00    +0.000 C 
ENDBRANCH   5  27
TORSDOF 5
ENDMDL
MODEL 5
REMARK VINA RESULT:      -8.1      1.803      2.845
REMARK  Name = 
REMARK  6 active torsions:
REMARK  status: ('A' for Active; 'I' for Inactive)
REMARK    1  A    between atoms: C_1  and  C_2
REMARK    2  A    between atoms: C_5  and  N_6
REMARK    3  A    between atoms: C_9  and  C_10
REMARK    4  A    between atoms: N_12  and  C_13
REMARK    5  A    between atoms: C_13  and  C_14
REMARK    6  A    between atoms: C_22  and  C_23
REMARK                            x       y       z     vdW  Elec       q    Type
REMARK                         _______ _______ _______ _____ _____    ______ ____
ROOT
ATOM      1  N   UNL     1       1.396   9.991  18.770  0.00  0.00    +0.000 N 
ATOM      2  N   UNL     1       1.727   9.518  17.534  0.00  0.00    +0.000 NA
ATOM      3  C   UNL     1       2.113   8.267  17.734  0.00  0.00    +0.000 A 
ATOM      4  C   UNL     1       2.015   7.868  19.076  0.00  0.00    +0.000 A 
ATOM      5  C   UNL     1       1.452   8.962  19.714  0.00  0.00    +0.000 A 
ENDROOT
BRANCH   1  10
ATOM      6  C   UNL     1      -0.459  15.401  19.453  0.00  0.00    +0.000 C 
ATOM      7  C   UNL     1       0.076  14.020  19.203  0.00  0.00    +0.000 A 
ATOM      8  C   UNL     1      -0.783  13.021  18.731  0.00  0.00    +0.000 A 
ATOM      9  C   UNL     1      -0.325  11.710  18.571  0.00  0.00    +0.000 A 
ATOM     10  C   UNL     1       0.999  11.357  18.878  0.00  0.00    +0.000 A 
ATOM     11  C   UNL     1       1.874  12.363  19.295  0.00  0.00    +0.000 A 
ATOM     12  C   UNL     1       1.407  13.678  19.467  0.00  0.00    +0.000 A 
ATOM     13 CL   UNL     1       2.548  14.864  20.006  0.00  0.00    +0.000 Cl
ENDBRANCH   1  10
BRANCH   4  14
ATOM     14  C   UNL     1       2.470   6.620  19.649  0.00  0.00    +0.000 C 
ATOM     15  O   UNL     1       1.829   5.984  20.480  0.00  0.00    +0.000 OA
ATOM     16  N   UNL     1       3.698   6.207  19.192  0.00  0.00    +0.000 N 
ATOM     17  H   UNL     1       4.063   6.592  18.326  0.00  0.00    +0.000 HD
BRANCH  16  18
ATOM     18  C   UNL     1       4.202   4.931  19.602  0.00  0.00    +0.000 C 
BRANCH  18  19
ATOM     19  C   UNL     1       5.604   4.779  19.147  0.00  0.00    +0.000 A 
ATOM     20  N   UNL     1       6.679   5.344  19.681  0.00  0.00    +0.000 NA
ATOM     21  N   UNL     1       7.538   5.672  18.641  0.00  0.00    +0.000 NA
ATOM     22  C   UNL     1       6.983   5.203  17.553  0.00  0.00    +0.000 A 
ATOM     23  N   UNL     1       5.938   4.378  17.889  0.00  0.00    +0.000 N 
ATOM     24  C   UNL     1       5.130   4.060  16.720  0.00  0.00    +0.000 C 
ATOM     25  C   UNL     1       5.366   5.313  15.875  0.00  0.00    +0.000 C 
ATOM     26  C   UNL     1       6.852   5.676  16.154  0.00  0.00    +0.000 C 
ENDBRANCH  18  19
ENDBRANCH  16  18
ENDBRANCH   4  14
BRANCH   5  27
ATOM     27  C   UNL     1       1.060   8.988  21.185  0.00  0.00    +0.000 C 
ATOM     28  C   UNL     1      -0.302   8.534  21.639  0.00  0.00    +0.000 C 
ATOM     29  C   UNL     1       0.062   9.994  21.694  0.00  0.00    +0.000 C 
ENDBRANCH   5  27
TORSDOF 5
ENDMDL
MODEL 6
REMARK VINA RESULT:      -7.9      2.975      3.949
REMARK  Name = 
REMARK  6 active torsions:
REMARK  status: ('A' for Active; 'I' for Inactive)
REMARK    1  A    between atoms: C_1  and  C_2
REMARK    2  A    between atoms: C_5  and  N_6
REMARK    3  A    between atoms: C_9  and  C_10
REMARK    4  A    between atoms: N_12  and  C_13
REMARK    5  A    between atoms: C_13  and  C_14
REMARK    6  A    between atoms: C_22  and  C_23
REMARK                            x       y       z     vdW  Elec       q    Type
REMARK                         _______ _______ _______ _____ _____    ______ ____
ROOT
ATOM      1  N   UNL     1      -0.235  10.835  22.342  0.00  0.00    +0.000 N 
ATOM      2  N   UNL     1       0.392  10.122  23.322  0.00  0.00    +0.000 NA
ATOM      3  C   UNL     1       1.091   9.197  22.682  0.00  0.00    +0.000 A 
ATOM      4  C   UNL     1       0.979   9.290  21.286  0.00  0.00    +0.000 A 
ATOM      5  C   UNL     1       0.202  10.418  21.083  0.00  0.00    +0.000 A 
ENDROOT
BRANCH   1  10
ATOM      6  C   UNL     1      -3.847  14.880  24.287  0.00  0.00    +0.000 C 
ATOM      7  C   UNL     1      -2.916  13.861  23.694  0.00  0.00    +0.000 A 
ATOM      8  C   UNL     1      -3.302  12.517  23.646  0.00  0.00    +0.000 A 
ATOM      9  C   UNL     1      -2.418  11.542  23.176  0.00  0.00    +0.000 A 
ATOM     10  C   UNL     1      -1.125  11.877  22.741  0.00  0.00    +0.000 A 
ATOM     11  C   UNL     1      -0.757  13.224  22.735  0.00  0.00    +0.000 A 
ATOM     12  C   UNL     1      -1.644  14.202  23.220  0.00  0.00    +0.000 A 
ATOM     13 CL   UNL     1      -1.106  15.847  23.197  0.00  0.00    +0.000 Cl
ENDBRANCH   1  10
BRANCH   4  14
ATOM     14  C   UNL     1       1.508   8.364  20.307  0.00  0.00    +0.000 C 
ATOM     15  O   UNL     1       1.694   8.659  19.130  0.00  0.00    +0.000 OA
ATOM     16  N   UNL     1       1.776   7.113  20.805  0.00  0.00    +0.000 N 
ATOM     17  H   UNL     1       1.877   6.985  21.807  0.00  0.00    +0.000 HD
BRANCH  16  18
ATOM     18  C   UNL     1       2.406   6.145  19.958  0.00  0.00    +0.000 C 
BRANCH  18  19
ATOM     19  C   UNL     1       1.771   4.822  20.154  0.00  0.00    +0.000 A 
ATOM     20  N   UNL     1       1.844   4.057  21.236  0.00  0.00    +0.000 NA
ATOM     21  N   UNL     1       1.902   2.736  20.811  0.00  0.00    +0.000 NA
ATOM     22  C   UNL     1       1.763   2.770  19.511  0.00  0.00    +0.000 A 
ATOM     23  N   UNL     1       1.371   4.027  19.122  0.00  0.00    +0.000 N 
ATOM     24  C   UNL     1       1.474   4.181  17.677  0.00  0.00    +0.000 C 
ATOM     25  C   UNL     1       2.606   3.197  17.377  0.00  0.00    +0.000 C 
ATOM     26  C   UNL     1       2.357   2.029  18.372  0.00  0.00    +0.000 C 
ENDBRANCH  18  19
ENDBRANCH  16  18
ENDBRANCH   4  14
BRANCH   5  27
ATOM     27  C   UNL     1      -0.131  10.995  19.713  0.00  0.00    +0.000 C 
ATOM     28  C   UNL     1      -1.420  11.732  19.468  0.00  0.00    +0.000 C 
ATOM     29  C   UNL     1      -1.203  10.372  18.860  0.00  0.00    +0.000 C 
ENDBRANCH   5  27
TORSDOF 5
ENDMDL
MODEL 7
REMARK VINA RESULT:      -7.9      2.106      3.430
REMARK  Name = 
REMARK  6 active torsions:
REMARK  status: ('A' for Active; 'I' for Inactive)
REMARK    1  A    between atoms: C_1  and  C_2
REMARK    2  A    between atoms: C_5  and  N_6
REMARK    3  A    between atoms: C_9  and  C_10
REMARK    4  A    between atoms: N_12  and  C_13
REMARK    5  A    between atoms: C_13  and  C_14
REMARK    6  A    between atoms: C_22  and  C_23
REMARK                            x       y       z     vdW  Elec       q    Type
REMARK                         _______ _______ _______ _____ _____    ______ ____
ROOT
ATOM      1  N   UNL     1       1.460   9.640  18.926  0.00  0.00    +0.000 N 
ATOM      2  N   UNL     1       1.924   9.546  17.646  0.00  0.00    +0.000 NA
ATOM      3  C   UNL     1       2.477   8.345  17.566  0.00  0.00    +0.000 A 
ATOM      4  C   UNL     1       2.367   7.607  18.755  0.00  0.00    +0.000 A 
ATOM      5  C   UNL     1       1.616   8.420  19.589  0.00  0.00    +0.000 A 
ENDROOT
BRANCH   1  10
ATOM      6  C   UNL     1      -1.193  14.411  20.763  0.00  0.00    +0.000 C 
ATOM      7  C   UNL     1      -0.454  13.220  20.224  0.00  0.00    +0.000 A 
ATOM      8  C   UNL     1      -1.146  12.253  19.486  0.00  0.00    +0.000 A 
ATOM      9  C   UNL     1      -0.494  11.096  19.047  0.00  0.00    +0.000 A 
ATOM     10  C   UNL     1       0.862  10.870  19.331  0.00  0.00    +0.000 A 
ATOM     11  C   UNL     1       1.569  11.859  20.018  0.00  0.00    +0.000 A 
ATOM     12  C   UNL     1       0.909  13.016  20.469  0.00  0.00    +0.000 A 
ATOM     13 CL   UNL     1       1.850  14.187  21.330  0.00  0.00    +0.000 Cl
ENDBRANCH   1  10
BRANCH   4  14
ATOM     14  C   UNL     1       2.969   6.323  19.041  0.00  0.00    +0.000 C 
ATOM     15  O   UNL     1       2.745   5.685  20.065  0.00  0.00    +0.000 OA
ATOM     16  N   UNL     1       3.830   5.878  18.069  0.00  0.00    +0.000 N 
ATOM     17  H   UNL     1       3.780   6.277  17.137  0.00  0.00    +0.000 HD
BRANCH  16  18
ATOM     18  C   UNL     1       4.401   4.569  18.188  0.00  0.00    +0.000 C 
BRANCH  18  19
ATOM     19  C   UNL     1       5.802   4.677  18.655  0.00  0.00    +0.000 A 
ATOM     20  N   UNL     1       6.222   4.695  19.914  0.00  0.00    +0.000 NA
ATOM     21  N   UNL     1       7.292   5.577  19.985  0.00  0.00    +0.000 NA
ATOM     22  C   UNL     1       7.520   5.966  18.757  0.00  0.00    +0.000 A 
ATOM     23  N   UNL     1       6.807   5.181  17.885  0.00  0.00    +0.000 N 
ATOM     24  C   UNL     1       6.816   5.751  16.545  0.00  0.00    +0.000 C 
ATOM     25  C   UNL     1       6.964   7.236  16.880  0.00  0.00    +0.000 C 
ATOM     26  C   UNL     1       7.907   7.246  18.117  0.00  0.00    +0.000 C 
ENDBRANCH  18  19
ENDBRANCH  16  18
ENDBRANCH   4  14
BRANCH   5  27
ATOM     27  C   UNL     1       1.145   8.018  20.981  0.00  0.00    +0.000 C 
ATOM     28  C   UNL     1      -0.118   8.584  21.572  0.00  0.00    +0.000 C 
ATOM     29  C   UNL     1       1.222   8.992  22.125  0.00  0.00    +0.000 C 
ENDBRANCH   5  27
TORSDOF 5
ENDMDL
MODEL 8
REMARK VINA RESULT:      -7.9      3.123      4.085
REMARK  Name = 
REMARK  6 active torsions:
REMARK  status: ('A' for Active; 'I' for Inactive)
REMARK    1  A    between atoms: C_1  and  C_2
REMARK    2  A    between atoms: C_5  and  N_6
REMARK    3  A    between atoms: C_9  and  C_10
REMARK    4  A    between atoms: N_12  and  C_13
REMARK    5  A    between atoms: C_13  and  C_14
REMARK    6  A    between atoms: C_22  and  C_23
REMARK                            x       y       z     vdW  Elec       q    Type
REMARK                         _______ _______ _______ _____ _____    ______ ____
ROOT
ATOM      1  N   UNL     1      -0.081  10.726  22.198  0.00  0.00    +0.000 N 
ATOM      2  N   UNL     1       0.560  10.000  23.160  0.00  0.00    +0.000 NA
ATOM      3  C   UNL     1       1.236   9.072  22.499  0.00  0.00    +0.000 A 
ATOM      4  C   UNL     1       1.096   9.175  21.106  0.00  0.00    +0.000 A 
ATOM      5  C   UNL     1       0.326  10.313  20.927  0.00  0.00    +0.000 A 
ENDROOT
BRANCH   1  10
ATOM      6  C   UNL     1      -3.631  15.054  23.558  0.00  0.00    +0.000 C 
ATOM      7  C   UNL     1      -2.689  13.914  23.295  0.00  0.00    +0.000 A 
ATOM      8  C   UNL     1      -1.462  14.162  22.669  0.00  0.00    +0.000 A 
ATOM      9  C   UNL     1      -0.608  13.105  22.340  0.00  0.00    +0.000 A 
ATOM     10  C   UNL     1      -0.952  11.773  22.623  0.00  0.00    +0.000 A 
ATOM     11  C   UNL     1      -2.150  11.527  23.297  0.00  0.00    +0.000 A 
ATOM     12  C   UNL     1      -3.013  12.591  23.617  0.00  0.00    +0.000 A 
ATOM     13 CL   UNL     1      -4.488  12.202  24.435  0.00  0.00    +0.000 Cl
ENDBRANCH   1  10
BRANCH   4  14
ATOM     14  C   UNL     1       1.595   8.252  20.111  0.00  0.00    +0.000 C 
ATOM     15  O   UNL     1       1.731   8.543  18.926  0.00  0.00    +0.000 OA
ATOM     16  N   UNL     1       1.895   7.005  20.602  0.00  0.00    +0.000 N 
ATOM     17  H   UNL     1       2.037   6.882  21.599  0.00  0.00    +0.000 HD
BRANCH  16  18
ATOM     18  C   UNL     1       2.501   6.040  19.734  0.00  0.00    +0.000 C 
BRANCH  18  19
ATOM     19  C   UNL     1       1.727   4.778  19.774  0.00  0.00    +0.000 A 
ATOM     20  N   UNL     1       1.301   4.140  20.857  0.00  0.00    +0.000 NA
ATOM     21  N   UNL     1       1.407   2.778  20.608  0.00  0.00    +0.000 NA
ATOM     22  C   UNL     1       1.795   2.668  19.365  0.00  0.00    +0.000 A 
ATOM     23  N   UNL     1       1.698   3.889  18.742  0.00  0.00    +0.000 N 
ATOM     24  C   UNL     1       2.375   3.870  17.453  0.00  0.00    +0.000 C 
ATOM     25  C   UNL     1       3.443   2.809  17.719  0.00  0.00    +0.000 C 
ATOM     26  C   UNL     1       2.722   1.775  18.629  0.00  0.00    +0.000 C 
ENDBRANCH  18  19
ENDBRANCH  16  18
ENDBRANCH   4  14
BRANCH   5  27
ATOM     27  C   UNL     1      -0.030  10.902  19.568  0.00  0.00    +0.000 C 
ATOM     28  C   UNL     1      -1.345  11.599  19.339  0.00  0.00    +0.000 C 
ATOM     29  C   UNL     1      -1.082  10.258  18.706  0.00  0.00    +0.000 C 
ENDBRANCH   5  27
TORSDOF 5
ENDMDL
MODEL 9
REMARK VINA RESULT:      -7.8      1.102      1.460
REMARK  Name = 
REMARK  6 active torsions:
REMARK  status: ('A' for Active; 'I' for Inactive)
REMARK    1  A    between atoms: C_1  and  C_2
REMARK    2  A    between atoms: C_5  and  N_6
REMARK    3  A    between atoms: C_9  and  C_10
REMARK    4  A    between atoms: N_12  and  C_13
REMARK    5  A    between atoms: C_13  and  C_14
REMARK    6  A    between atoms: C_22  and  C_23
REMARK                            x       y       z     vdW  Elec       q    Type
REMARK                         _______ _______ _______ _____ _____    ______ ____
ROOT
ATOM      1  N   UNL     1       1.351   9.942  18.864  0.00  0.00    +0.000 N 
ATOM      2  N   UNL     1       1.883   9.626  17.647  0.00  0.00    +0.000 NA
ATOM      3  C   UNL     1       2.357   8.397  17.786  0.00  0.00    +0.000 A 
ATOM      4  C   UNL     1       2.126   7.858  19.061  0.00  0.00    +0.000 A 
ATOM      5  C   UNL     1       1.383   8.831  19.710  0.00  0.00    +0.000 A 
ENDROOT
BRANCH   1  10
ATOM      6  C   UNL     1      -0.717  15.306  19.214  0.00  0.00    +0.000 C 
ATOM      7  C   UNL     1      -0.191  13.900  19.215  0.00  0.00    +0.000 A 
ATOM      8  C   UNL     1       1.164  13.669  18.952  0.00  0.00    +0.000 A 
ATOM      9  C   UNL     1       1.657  12.363  18.866  0.00  0.00    +0.000 A 
ATOM     10  C   UNL     1       0.815  11.253  19.037  0.00  0.00    +0.000 A 
ATOM     11  C   UNL     1      -0.526  11.480  19.355  0.00  0.00    +0.000 A 
ATOM     12  C   UNL     1      -1.021  12.794  19.430  0.00  0.00    +0.000 A 
ATOM     13 CL   UNL     1      -2.699  12.993  19.810  0.00  0.00    +0.000 Cl
ENDBRANCH   1  10
BRANCH   4  14
ATOM     14  C   UNL     1       2.620   6.600  19.577  0.00  0.00    +0.000 C 
ATOM     15  O   UNL     1       2.053   5.961  20.458  0.00  0.00    +0.000 OA
ATOM     16  N   UNL     1       3.796   6.182  19.004  0.00  0.00    +0.000 N 
ATOM     17  H   UNL     1       4.083   6.572  18.112  0.00  0.00    +0.000 HD
BRANCH  16  18
ATOM     18  C   UNL     1       4.324   4.897  19.354  0.00  0.00    +0.000 C 
BRANCH  18  19
ATOM     19  C   UNL     1       3.712   3.856  18.496  0.00  0.00    +0.000 A 
ATOM     20  N   UNL     1       3.413   3.961  17.208  0.00  0.00    +0.000 NA
ATOM     21  N   UNL     1       2.228   3.270  16.996  0.00  0.00    +0.000 NA
ATOM     22  C   UNL     1       1.930   2.707  18.138  0.00  0.00    +0.000 A 
ATOM     23  N   UNL     1       3.000   2.806  18.993  0.00  0.00    +0.000 N 
ATOM     24  C   UNL     1       2.617   2.443  20.350  0.00  0.00    +0.000 C 
ATOM     25  C   UNL     1       1.136   2.828  20.328  0.00  0.00    +0.000 C 
ATOM     26  C   UNL     1       0.677   2.459  18.890  0.00  0.00    +0.000 C 
ENDBRANCH  18  19
ENDBRANCH  16  18
ENDBRANCH   4  14
BRANCH   5  27
ATOM     27  C   UNL     1       0.804   8.676  21.110  0.00  0.00    +0.000 C 
ATOM     28  C   UNL     1       0.475   9.876  21.957  0.00  0.00    +0.000 C 
ATOM     29  C   UNL     1       1.638   8.992  22.323  0.00  0.00    +0.000 C 
ENDBRANCH   5  27
TORSDOF 5
ENDMDL
