MODEL 1
REMARK VINA RESULT:      -9.9      0.000      0.000
REMARK  Name = 
REMARK  8 active torsions:
REMARK  status: ('A' for Active; 'I' for Inactive)
REMARK    1  A    between atoms: C_1  and  N_2
REMARK    2  A    between atoms: C_6  and  C_7
REMARK    3  A    between atoms: C_7  and  C_8
REMARK    4  A    between atoms: C_11  and  N_12
REMARK    5  A    between atoms: C_19  and  C_20
REMARK    6  A    between atoms: C_25  and  C_26
REMARK    7  A    between atoms: C_26  and  C_27
REMARK    8  A    between atoms: C_27  and  O_28
REMARK                            x       y       z     vdW  Elec       q    Type
REMARK                         _______ _______ _______ _____ _____    ______ ____
ROOT
ATOM      1  C   UNL     1       2.104   7.727  19.278  0.00  0.00    +0.000 A 
ATOM      2  C   UNL     1       2.760   7.389  18.093  0.00  0.00    +0.000 A 
ATOM      3  C   UNL     1       3.363   6.151  17.984  0.00  0.00    +0.000 A 
ATOM      4  C   UNL     1       3.375   5.242  19.059  0.00  0.00    +0.000 A 
ATOM      5  C   UNL     1       2.586   5.499  20.186  0.00  0.00    +0.000 A 
ATOM      6  C   UNL     1       1.975   6.768  20.290  0.00  0.00    +0.000 A 
ENDROOT
BRANCH   4   7
ATOM      7  N   UNL     1       4.435   4.256  19.107  0.00  0.00    +0.000 N 
ATOM      8  C   UNL     1       5.758   4.923  19.245  0.00  0.00    +0.000 C 
ATOM      9  C   UNL     1       6.262   4.987  17.834  0.00  0.00    +0.000 A 
ATOM     10  C   UNL     1       5.634   3.970  17.111  0.00  0.00    +0.000 A 
ATOM     11  C   UNL     1       5.737   3.856  15.735  0.00  0.00    +0.000 A 
ATOM     12  C   UNL     1       6.481   4.829  15.066  0.00  0.00    +0.000 A 
ATOM     13  C   UNL     1       7.085   5.884  15.778  0.00  0.00    +0.000 A 
ATOM     14  C   UNL     1       6.988   5.980  17.180  0.00  0.00    +0.000 A 
ATOM     15  C   UNL     1       4.531   3.450  17.943  0.00  0.00    +0.000 C 
ATOM     16  O   UNL     1       3.745   2.589  17.573  0.00  0.00    +0.000 OA
BRANCH  14  17
ATOM     17  C   UNL     1       7.474   7.215  17.892  0.00  0.00    +0.000 C 
ATOM     18  F   UNL     1       8.413   6.943  18.837  0.00  0.00    +0.000 F 
ATOM     19  F   UNL     1       8.041   8.128  17.053  0.00  0.00    +0.000 F 
ENDBRANCH  14  17
ENDBRANCH   4   7
BRANCH   1  20
ATOM     20  C   UNL     1       1.513   9.111  19.399  0.00  0.00    +0.000 C 
BRANCH  20  26
ATOM     21  C   UNL     1      -1.037  10.789  20.099  0.00  0.00    +0.000 C 
ATOM     22  N   UNL     1      -0.151  10.140  21.026  0.00  0.00    +0.000 N 
ATOM     23  C   UNL     1      -0.265  10.170  22.381  0.00  0.00    +0.000 A 
ATOM     24  N   UNL     1       0.713   9.482  22.920  0.00  0.00    +0.000 NA
ATOM     25  N   UNL     1       1.490   8.996  21.898  0.00  0.00    +0.000 NA
ATOM     26  C   UNL     1       0.968   9.394  20.754  0.00  0.00    +0.000 A 
ENDBRANCH  20  26
ENDBRANCH   1  20
BRANCH   5  27
ATOM     27  C   UNL     1       2.277   4.444  21.218  0.00  0.00    +0.000 C 
BRANCH  27  28
ATOM     28  C   UNL     1       1.294   3.366  20.804  0.00  0.00    +0.000 C 
ATOM     29  F   UNL     1       0.758   2.728  21.862  0.00  0.00    +0.000 F 
ATOM     30  F   UNL     1       0.289   3.863  20.055  0.00  0.00    +0.000 F 
BRANCH  28  31
ATOM     31  O   UNL     1       1.940   2.375  20.032  0.00  0.00    +0.000 OA
ATOM     32  H   UNL     1       2.857   2.423  20.348  0.00  0.00    +0.000 HD
ENDBRANCH  28  31
ENDBRANCH  27  28
ENDBRANCH   5  27
TORSDOF 7
ENDMDL
MODEL 2
REMARK VINA RESULT:      -9.5      1.384      1.780
REMARK  Name = 
REMARK  8 active torsions:
REMARK  status: ('A' for Active; 'I' for Inactive)
REMARK    1  A    between atoms: C_1  and  N_2
REMARK    2  A    between atoms: C_6  and  C_7
REMARK    3  A    between atoms: C_7  and  C_8
REMARK    4  A    between atoms: C_11  and  N_12
REMARK    5  A    between atoms: C_19  and  C_20
REMARK    6  A    between atoms: C_25  and  C_26
REMARK    7  A    between atoms: C_26  and  C_27
REMARK    8  A    between atoms: C_27  and  O_28
REMARK                            x       y       z     vdW  Elec       q    Type
REMARK                         _______ _______ _______ _____ _____    ______ ____
ROOT
ATOM      1  C   UNL     1       2.022   7.524  19.947  0.00  0.00    +0.000 A 
ATOM      2  C   UNL     1       2.776   7.454  18.775  0.00  0.00    +0.000 A 
ATOM      3  C   UNL     1       3.084   6.217  18.242  0.00  0.00    +0.000 A 
ATOM      4  C   UNL     1       2.697   5.024  18.882  0.00  0.00    +0.000 A 
ATOM      5  C   UNL     1       1.806   5.080  19.960  0.00  0.00    +0.000 A 
ATOM      6  C   UNL     1       1.499   6.348  20.499  0.00  0.00    +0.000 A 
ENDROOT
BRANCH   4   7
ATOM      7  N   UNL     1       3.474   3.829  18.624  0.00  0.00    +0.000 N 
ATOM      8  C   UNL     1       4.883   4.023  19.058  0.00  0.00    +0.000 C 
ATOM      9  C   UNL     1       5.585   4.413  17.792  0.00  0.00    +0.000 A 
ATOM     10  C   UNL     1       4.843   3.909  16.721  0.00  0.00    +0.000 A 
ATOM     11  C   UNL     1       5.111   4.238  15.403  0.00  0.00    +0.000 A 
ATOM     12  C   UNL     1       6.153   5.135  15.166  0.00  0.00    +0.000 A 
ATOM     13  C   UNL     1       6.883   5.684  16.239  0.00  0.00    +0.000 A 
ATOM     14  C   UNL     1       6.612   5.329  17.575  0.00  0.00    +0.000 A 
ATOM     15  C   UNL     1       3.540   3.464  17.255  0.00  0.00    +0.000 C 
ATOM     16  O   UNL     1       2.633   3.026  16.561  0.00  0.00    +0.000 OA
BRANCH  14  17
ATOM     17  C   UNL     1       7.272   6.072  18.707  0.00  0.00    +0.000 C 
ATOM     18  F   UNL     1       8.187   5.317  19.371  0.00  0.00    +0.000 F 
ATOM     19  F   UNL     1       7.935   7.191  18.298  0.00  0.00    +0.000 F 
ENDBRANCH  14  17
ENDBRANCH   4   7
BRANCH   1  20
ATOM     20  C   UNL     1       1.758   8.884  20.548  0.00  0.00    +0.000 C 
BRANCH  20  26
ATOM     21  C   UNL     1      -0.557  10.543  21.850  0.00  0.00    +0.000 C 
ATOM     22  N   UNL     1      -0.322  10.346  20.446  0.00  0.00    +0.000 N 
ATOM     23  C   UNL     1      -1.095  10.835  19.439  0.00  0.00    +0.000 A 
ATOM     24  N   UNL     1      -0.601  10.460  18.284  0.00  0.00    +0.000 NA
ATOM     25  N   UNL     1       0.515   9.701  18.536  0.00  0.00    +0.000 NA
ATOM     26  C   UNL     1       0.682   9.632  19.843  0.00  0.00    +0.000 A 
ENDBRANCH  20  26
ENDBRANCH   1  20
BRANCH   5  27
ATOM     27  C   UNL     1       1.086   3.862  20.481  0.00  0.00    +0.000 C 
BRANCH  27  28
ATOM     28  C   UNL     1       1.797   3.072  21.563  0.00  0.00    +0.000 C 
ATOM     29  F   UNL     1       2.603   2.119  21.056  0.00  0.00    +0.000 F 
ATOM     30  F   UNL     1       2.535   3.868  22.364  0.00  0.00    +0.000 F 
BRANCH  28  31
ATOM     31  O   UNL     1       0.864   2.403  22.385  0.00  0.00    +0.000 OA
ATOM     32  H   UNL     1       1.301   1.553  22.556  0.00  0.00    +0.000 HD
ENDBRANCH  28  31
ENDBRANCH  27  28
ENDBRANCH   5  27
TORSDOF 7
ENDMDL
MODEL 3
REMARK VINA RESULT:      -9.5      1.539      1.889
REMARK  Name = 
REMARK  8 active torsions:
REMARK  status: ('A' for Active; 'I' for Inactive)
REMARK    1  A    between atoms: C_1  and  N_2
REMARK    2  A    between atoms: C_6  and  C_7
REMARK    3  A    between atoms: C_7  and  C_8
REMARK    4  A    between atoms: C_11  and  N_12
REMARK    5  A    between atoms: C_19  and  C_20
REMARK    6  A    between atoms: C_25  and  C_26
REMARK    7  A    between atoms: C_26  and  C_27
REMARK    8  A    between atoms: C_27  and  O_28
REMARK                            x       y       z     vdW  Elec       q    Type
REMARK                         _______ _______ _______ _____ _____    ______ ____
ROOT
ATOM      1  C   UNL     1       2.026   7.557  19.936  0.00  0.00    +0.000 A 
ATOM      2  C   UNL     1       2.753   7.474  18.747  0.00  0.00    +0.000 A 
ATOM      3  C   UNL     1       3.034   6.232  18.212  0.00  0.00    +0.000 A 
ATOM      4  C   UNL     1       2.649   5.046  18.866  0.00  0.00    +0.000 A 
ATOM      5  C   UNL     1       1.783   5.116  19.963  0.00  0.00    +0.000 A 
ATOM      6  C   UNL     1       1.502   6.389  20.504  0.00  0.00    +0.000 A 
ENDROOT
BRANCH   4   7
ATOM      7  N   UNL     1       3.406   3.841  18.595  0.00  0.00    +0.000 N 
ATOM      8  C   UNL     1       4.813   4.000  19.050  0.00  0.00    +0.000 C 
ATOM      9  C   UNL     1       5.538   4.400  17.800  0.00  0.00    +0.000 A 
ATOM     10  C   UNL     1       4.800   3.931  16.710  0.00  0.00    +0.000 A 
ATOM     11  C   UNL     1       5.091   4.279  15.402  0.00  0.00    +0.000 A 
ATOM     12  C   UNL     1       6.153   5.160  15.195  0.00  0.00    +0.000 A 
ATOM     13  C   UNL     1       6.880   5.674  16.287  0.00  0.00    +0.000 A 
ATOM     14  C   UNL     1       6.584   5.300  17.613  0.00  0.00    +0.000 A 
ATOM     15  C   UNL     1       3.483   3.501  17.219  0.00  0.00    +0.000 C 
ATOM     16  O   UNL     1       2.576   3.093  16.507  0.00  0.00    +0.000 OA
BRANCH  14  17
ATOM     17  C   UNL     1       7.244   6.009  18.766  0.00  0.00    +0.000 C 
ATOM     18  F   UNL     1       8.257   5.290  19.319  0.00  0.00    +0.000 F 
ATOM     19  F   UNL     1       7.786   7.211  18.417  0.00  0.00    +0.000 F 
ENDBRANCH  14  17
ENDBRANCH   4   7
BRANCH   1  20
ATOM     20  C   UNL     1       1.790   8.922  20.537  0.00  0.00    +0.000 C 
BRANCH  20  26
ATOM     21  C   UNL     1       2.130  11.009  18.228  0.00  0.00    +0.000 C 
ATOM     22  N   UNL     1       0.898  10.596  18.842  0.00  0.00    +0.000 N 
ATOM     23  C   UNL     1      -0.338  11.072  18.531  0.00  0.00    +0.000 A 
ATOM     24  N   UNL     1      -1.237  10.488  19.287  0.00  0.00    +0.000 NA
ATOM     25  N   UNL     1      -0.577   9.616  20.118  0.00  0.00    +0.000 NA
ATOM     26  C   UNL     1       0.713   9.683  19.849  0.00  0.00    +0.000 A 
ENDBRANCH  20  26
ENDBRANCH   1  20
BRANCH   5  27
ATOM     27  C   UNL     1       1.061   3.908  20.504  0.00  0.00    +0.000 C 
BRANCH  27  28
ATOM     28  C   UNL     1       1.795   3.102  21.558  0.00  0.00    +0.000 C 
ATOM     29  F   UNL     1       2.592   2.159  21.019  0.00  0.00    +0.000 F 
ATOM     30  F   UNL     1       2.548   3.886  22.356  0.00  0.00    +0.000 F 
BRANCH  28  31
ATOM     31  O   UNL     1       0.880   2.418  22.387  0.00  0.00    +0.000 OA
ATOM     32  H   UNL     1       1.347   2.384  23.238  0.00  0.00    +0.000 HD
ENDBRANCH  28  31
ENDBRANCH  27  28
ENDBRANCH   5  27
TORSDOF 7
ENDMDL
MODEL 4
REMARK VINA RESULT:      -9.4      1.068      1.577
REMARK  Name = 
REMARK  8 active torsions:
REMARK  status: ('A' for Active; 'I' for Inactive)
REMARK    1  A    between atoms: C_1  and  N_2
REMARK    2  A    between atoms: C_6  and  C_7
REMARK    3  A    between atoms: C_7  and  C_8
REMARK    4  A    between atoms: C_11  and  N_12
REMARK    5  A    between atoms: C_19  and  C_20
REMARK    6  A    between atoms: C_25  and  C_26
REMARK    7  A    between atoms: C_26  and  C_27
REMARK    8  A    between atoms: C_27  and  O_28
REMARK                            x       y       z     vdW  Elec       q    Type
REMARK                         _______ _______ _______ _____ _____    ______ ____
ROOT
ATOM      1  C   UNL     1       2.182   7.856  19.481  0.00  0.00    +0.000 A 
ATOM      2  C   UNL     1       2.687   7.533  18.221  0.00  0.00    +0.000 A 
ATOM      3  C   UNL     1       3.160   6.256  17.988  0.00  0.00    +0.000 A 
ATOM      4  C   UNL     1       3.190   5.287  19.009  0.00  0.00    +0.000 A 
ATOM      5  C   UNL     1       2.539   5.544  20.221  0.00  0.00    +0.000 A 
ATOM      6  C   UNL     1       2.061   6.853  20.450  0.00  0.00    +0.000 A 
ENDROOT
BRANCH   4   7
ATOM      7  N   UNL     1       4.154   4.211  18.900  0.00  0.00    +0.000 N 
ATOM      8  C   UNL     1       5.537   4.735  19.061  0.00  0.00    +0.000 C 
ATOM      9  C   UNL     1       6.003   4.920  17.649  0.00  0.00    +0.000 A 
ATOM     10  C   UNL     1       5.262   4.058  16.838  0.00  0.00    +0.000 A 
ATOM     11  C   UNL     1       5.314   4.100  15.455  0.00  0.00    +0.000 A 
ATOM     12  C   UNL     1       6.126   5.074  14.874  0.00  0.00    +0.000 A 
ATOM     13  C   UNL     1       6.847   5.978  15.679  0.00  0.00    +0.000 A 
ATOM     14  C   UNL     1       6.799   5.915  17.086  0.00  0.00    +0.000 A 
ATOM     15  C   UNL     1       4.140   3.544  17.648  0.00  0.00    +0.000 C 
ATOM     16  O   UNL     1       3.266   2.807  17.212  0.00  0.00    +0.000 OA
BRANCH  14  17
ATOM     17  C   UNL     1       7.420   7.008  17.915  0.00  0.00    +0.000 C 
ATOM     18  F   UNL     1       8.346   6.541  18.794  0.00  0.00    +0.000 F 
ATOM     19  F   UNL     1       8.058   7.952  17.167  0.00  0.00    +0.000 F 
ENDBRANCH  14  17
ENDBRANCH   4   7
BRANCH   1  20
ATOM     20  C   UNL     1       1.736   9.276  19.731  0.00  0.00    +0.000 C 
BRANCH  20  26
ATOM     21  C   UNL     1      -0.761  10.766  20.895  0.00  0.00    +0.000 C 
ATOM     22  N   UNL     1      -0.596  10.278  19.553  0.00  0.00    +0.000 N 
ATOM     23  C   UNL     1      -1.524  10.363  18.562  0.00  0.00    +0.000 A 
ATOM     24  N   UNL     1      -1.052   9.812  17.470  0.00  0.00    +0.000 NA
ATOM     25  N   UNL     1       0.209   9.347  17.751  0.00  0.00    +0.000 NA
ATOM     26  C   UNL     1       0.483   9.628  19.010  0.00  0.00    +0.000 A 
ENDBRANCH  20  26
ENDBRANCH   1  20
BRANCH   5  27
ATOM     27  C   UNL     1       2.233   4.460  21.224  0.00  0.00    +0.000 C 
BRANCH  27  28
ATOM     28  C   UNL     1       1.247   3.396  20.784  0.00  0.00    +0.000 C 
ATOM     29  F   UNL     1       0.691   2.750  21.827  0.00  0.00    +0.000 F 
ATOM     30  F   UNL     1       0.256   3.910  20.028  0.00  0.00    +0.000 F 
BRANCH  28  31
ATOM     31  O   UNL     1       1.894   2.409  20.008  0.00  0.00    +0.000 OA
ATOM     32  H   UNL     1       1.217   2.176  19.352  0.00  0.00    +0.000 HD
ENDBRANCH  28  31
ENDBRANCH  27  28
ENDBRANCH   5  27
TORSDOF 7
ENDMDL
MODEL 5
REMARK VINA RESULT:      -9.3      0.964      1.201
REMARK  Name = 
REMARK  8 active torsions:
REMARK  status: ('A' for Active; 'I' for Inactive)
REMARK    1  A    between atoms: C_1  and  N_2
REMARK    2  A    between atoms: C_6  and  C_7
REMARK    3  A    between atoms: C_7  and  C_8
REMARK    4  A    between atoms: C_11  and  N_12
REMARK    5  A    between atoms: C_19  and  C_20
REMARK    6  A    between atoms: C_25  and  C_26
REMARK    7  A    between atoms: C_26  and  C_27
REMARK    8  A    between atoms: C_27  and  O_28
REMARK                            x       y       z     vdW  Elec       q    Type
REMARK                         _______ _______ _______ _____ _____    ______ ____
ROOT
ATOM      1  C   UNL     1       2.240   8.188  18.652  0.00  0.00    +0.000 A 
ATOM      2  C   UNL     1       3.060   7.814  17.586  0.00  0.00    +0.000 A 
ATOM      3  C   UNL     1       3.654   6.567  17.596  0.00  0.00    +0.000 A 
ATOM      4  C   UNL     1       3.493   5.684  18.681  0.00  0.00    +0.000 A 
ATOM      5  C   UNL     1       2.547   5.978  19.671  0.00  0.00    +0.000 A 
ATOM      6  C   UNL     1       1.947   7.255  19.654  0.00  0.00    +0.000 A 
ENDROOT
BRANCH   4   7
ATOM      7  N   UNL     1       4.519   4.687  18.909  0.00  0.00    +0.000 N 
ATOM      8  C   UNL     1       5.854   5.334  19.019  0.00  0.00    +0.000 C 
ATOM      9  C   UNL     1       6.420   5.195  17.638  0.00  0.00    +0.000 A 
ATOM     10  C   UNL     1       5.793   4.107  17.027  0.00  0.00    +0.000 A 
ATOM     11  C   UNL     1       5.952   3.807  15.685  0.00  0.00    +0.000 A 
ATOM     12  C   UNL     1       6.754   4.662  14.928  0.00  0.00    +0.000 A 
ATOM     13  C   UNL     1       7.359   5.788  15.522  0.00  0.00    +0.000 A 
ATOM     14  C   UNL     1       7.203   6.074  16.893  0.00  0.00    +0.000 A 
ATOM     15  C   UNL     1       4.640   3.731  17.869  0.00  0.00    +0.000 C 
ATOM     16  O   UNL     1       3.844   2.847  17.580  0.00  0.00    +0.000 OA
BRANCH  14  17
ATOM     17  C   UNL     1       7.697   7.380  17.456  0.00  0.00    +0.000 C 
ATOM     18  F   UNL     1       6.693   8.269  17.682  0.00  0.00    +0.000 F 
ATOM     19  F   UNL     1       8.347   7.241  18.645  0.00  0.00    +0.000 F 
ENDBRANCH  14  17
ENDBRANCH   4   7
BRANCH   1  20
ATOM     20  C   UNL     1       1.658   9.581  18.652  0.00  0.00    +0.000 C 
BRANCH  20  26
ATOM     21  C   UNL     1      -1.375  10.304  18.937  0.00  0.00    +0.000 C 
ATOM     22  N   UNL     1      -0.405  10.224  19.995  0.00  0.00    +0.000 N 
ATOM     23  C   UNL     1      -0.646  10.478  21.309  0.00  0.00    +0.000 A 
ATOM     24  N   UNL     1       0.459  10.320  21.997  0.00  0.00    +0.000 NA
ATOM     25  N   UNL     1       1.449   9.962  21.116  0.00  0.00    +0.000 NA
ATOM     26  C   UNL     1       0.926   9.906  19.906  0.00  0.00    +0.000 A 
ENDBRANCH  20  26
ENDBRANCH   1  20
BRANCH   5  27
ATOM     27  C   UNL     1       2.073   4.952  20.669  0.00  0.00    +0.000 C 
BRANCH  27  28
ATOM     28  C   UNL     1       1.524   3.660  20.095  0.00  0.00    +0.000 C 
ATOM     29  F   UNL     1       1.103   3.802  18.823  0.00  0.00    +0.000 F 
ATOM     30  F   UNL     1       2.435   2.666  20.131  0.00  0.00    +0.000 F 
BRANCH  28  31
ATOM     31  O   UNL     1       0.402   3.225  20.835  0.00  0.00    +0.000 OA
ATOM     32  H   UNL     1      -0.125   4.036  20.918  0.00  0.00    +0.000 HD
ENDBRANCH  28  31
ENDBRANCH  27  28
ENDBRANCH   5  27
TORSDOF 7
ENDMDL
MODEL 6
REMARK VINA RESULT:      -9.2      1.448      2.009
REMARK  Name = 
REMARK  8 active torsions:
REMARK  status: ('A' for Active; 'I' for Inactive)
REMARK    1  A    between atoms: C_1  and  N_2
REMARK    2  A    between atoms: C_6  and  C_7
REMARK    3  A    between atoms: C_7  and  C_8
REMARK    4  A    between atoms: C_11  and  N_12
REMARK    5  A    between atoms: C_19  and  C_20
REMARK    6  A    between atoms: C_25  and  C_26
REMARK    7  A    between atoms: C_26  and  C_27
REMARK    8  A    between atoms: C_27  and  O_28
REMARK                            x       y       z     vdW  Elec       q    Type
REMARK                         _______ _______ _______ _____ _____    ______ ____
ROOT
ATOM      1  C   UNL     1       2.321   8.368  18.657  0.00  0.00    +0.000 A 
ATOM      2  C   UNL     1       3.114   7.970  17.580  0.00  0.00    +0.000 A 
ATOM      3  C   UNL     1       3.637   6.692  17.561  0.00  0.00    +0.000 A 
ATOM      4  C   UNL     1       3.430   5.798  18.629  0.00  0.00    +0.000 A 
ATOM      5  C   UNL     1       2.508   6.124  19.630  0.00  0.00    +0.000 A 
ATOM      6  C   UNL     1       1.980   7.433  19.642  0.00  0.00    +0.000 A 
ENDROOT
BRANCH   4   7
ATOM      7  N   UNL     1       4.400   4.740  18.831  0.00  0.00    +0.000 N 
ATOM      8  C   UNL     1       5.767   5.310  18.969  0.00  0.00    +0.000 C 
ATOM      9  C   UNL     1       6.335   5.184  17.587  0.00  0.00    +0.000 A 
ATOM     10  C   UNL     1       5.654   4.151  16.939  0.00  0.00    +0.000 A 
ATOM     11  C   UNL     1       5.806   3.885  15.589  0.00  0.00    +0.000 A 
ATOM     12  C   UNL     1       6.658   4.719  14.863  0.00  0.00    +0.000 A 
ATOM     13  C   UNL     1       7.318   5.791  15.495  0.00  0.00    +0.000 A 
ATOM     14  C   UNL     1       7.169   6.042  16.874  0.00  0.00    +0.000 A 
ATOM     15  C   UNL     1       4.477   3.811  17.761  0.00  0.00    +0.000 C 
ATOM     16  O   UNL     1       3.637   2.982  17.441  0.00  0.00    +0.000 OA
BRANCH  14  17
ATOM     17  C   UNL     1       7.728   7.302  17.480  0.00  0.00    +0.000 C 
ATOM     18  F   UNL     1       6.776   8.246  17.704  0.00  0.00    +0.000 F 
ATOM     19  F   UNL     1       8.339   7.094  18.681  0.00  0.00    +0.000 F 
ENDBRANCH  14  17
ENDBRANCH   4   7
BRANCH   1  20
ATOM     20  C   UNL     1       1.818   9.791  18.689  0.00  0.00    +0.000 C 
BRANCH  20  26
ATOM     21  C   UNL     1      -0.376  11.053  20.532  0.00  0.00    +0.000 C 
ATOM     22  N   UNL     1      -0.575  10.456  19.240  0.00  0.00    +0.000 N 
ATOM     23  C   UNL     1      -1.772  10.317  18.610  0.00  0.00    +0.000 A 
ATOM     24  N   UNL     1      -1.594   9.722  17.454  0.00  0.00    +0.000 NA
ATOM     25  N   UNL     1      -0.253   9.458  17.326  0.00  0.00    +0.000 NA
ATOM     26  C   UNL     1       0.362   9.900  18.406  0.00  0.00    +0.000 A 
ENDBRANCH  20  26
ENDBRANCH   1  20
BRANCH   5  27
ATOM     27  C   UNL     1       1.980   5.106  20.610  0.00  0.00    +0.000 C 
BRANCH  27  28
ATOM     28  C   UNL     1       1.473   3.805  20.019  0.00  0.00    +0.000 C 
ATOM     29  F   UNL     1       1.057   3.948  18.745  0.00  0.00    +0.000 F 
ATOM     30  F   UNL     1       2.412   2.837  20.052  0.00  0.00    +0.000 F 
BRANCH  28  31
ATOM     31  O   UNL     1       0.359   3.330  20.746  0.00  0.00    +0.000 OA
ATOM     32  H   UNL     1       0.459   3.775  21.604  0.00  0.00    +0.000 HD
ENDBRANCH  28  31
ENDBRANCH  27  28
ENDBRANCH   5  27
TORSDOF 7
ENDMDL
MODEL 7
REMARK VINA RESULT:      -8.9      0.941      1.092
REMARK  Name = 
REMARK  8 active torsions:
REMARK  status: ('A' for Active; 'I' for Inactive)
REMARK    1  A    between atoms: C_1  and  N_2
REMARK    2  A    between atoms: C_6  and  C_7
REMARK    3  A    between atoms: C_7  and  C_8
REMARK    4  A    between atoms: C_11  and  N_12
REMARK    5  A    between atoms: C_19  and  C_20
REMARK    6  A    between atoms: C_25  and  C_26
REMARK    7  A    between atoms: C_26  and  C_27
REMARK    8  A    between atoms: C_27  and  O_28
REMARK                            x       y       z     vdW  Elec       q    Type
REMARK                         _______ _______ _______ _____ _____    ______ ____
ROOT
ATOM      1  C   UNL     1       2.003   7.929  18.971  0.00  0.00    +0.000 A 
ATOM      2  C   UNL     1       3.108   7.874  18.120  0.00  0.00    +0.000 A 
ATOM      3  C   UNL     1       3.752   6.668  17.924  0.00  0.00    +0.000 A 
ATOM      4  C   UNL     1       3.350   5.502  18.604  0.00  0.00    +0.000 A 
ATOM      5  C   UNL     1       2.151   5.506  19.327  0.00  0.00    +0.000 A 
ATOM      6  C   UNL     1       1.501   6.744  19.523  0.00  0.00    +0.000 A 
ENDROOT
BRANCH   4   7
ATOM      7  N   UNL     1       4.332   4.456  18.804  0.00  0.00    +0.000 N 
ATOM      8  C   UNL     1       5.696   5.040  18.915  0.00  0.00    +0.000 C 
ATOM      9  C   UNL     1       6.244   4.903  17.526  0.00  0.00    +0.000 A 
ATOM     10  C   UNL     1       5.564   3.856  16.901  0.00  0.00    +0.000 A 
ATOM     11  C   UNL     1       5.699   3.575  15.552  0.00  0.00    +0.000 A 
ATOM     12  C   UNL     1       6.532   4.408  14.804  0.00  0.00    +0.000 A 
ATOM     13  C   UNL     1       7.192   5.494  15.413  0.00  0.00    +0.000 A 
ATOM     14  C   UNL     1       7.060   5.759  16.791  0.00  0.00    +0.000 A 
ATOM     15  C   UNL     1       4.402   3.515  17.745  0.00  0.00    +0.000 C 
ATOM     16  O   UNL     1       3.565   2.674  17.447  0.00  0.00    +0.000 OA
BRANCH  14  17
ATOM     17  C   UNL     1       7.616   7.032  17.374  0.00  0.00    +0.000 C 
ATOM     18  F   UNL     1       6.665   7.985  17.563  0.00  0.00    +0.000 F 
ATOM     19  F   UNL     1       8.211   6.851  18.587  0.00  0.00    +0.000 F 
ENDBRANCH  14  17
ENDBRANCH   4   7
BRANCH   1  20
ATOM     20  C   UNL     1       1.359   9.271  19.223  0.00  0.00    +0.000 C 
BRANCH  20  26
ATOM     21  C   UNL     1      -1.022  11.011  20.275  0.00  0.00    +0.000 C 
ATOM     22  N   UNL     1      -0.106  10.235  21.066  0.00  0.00    +0.000 N 
ATOM     23  C   UNL     1      -0.111  10.149  22.424  0.00  0.00    +0.000 A 
ATOM     24  N   UNL     1       0.864   9.365  22.818  0.00  0.00    +0.000 NA
ATOM     25  N   UNL     1       1.527   8.932  21.696  0.00  0.00    +0.000 NA
ATOM     26  C   UNL     1       0.941   9.459  20.638  0.00  0.00    +0.000 A 
ENDBRANCH  20  26
ENDBRANCH   1  20
BRANCH   5  27
ATOM     27  C   UNL     1       1.482   4.238  19.795  0.00  0.00    +0.000 C 
BRANCH  27  28
ATOM     28  C   UNL     1       2.019   3.629  21.076  0.00  0.00    +0.000 C 
ATOM     29  F   UNL     1       3.049   2.789  20.851  0.00  0.00    +0.000 F 
ATOM     30  F   UNL     1       2.425   4.572  21.950  0.00  0.00    +0.000 F 
BRANCH  28  31
ATOM     31  O   UNL     1       1.021   2.865  21.719  0.00  0.00    +0.000 OA
ATOM     32  H   UNL     1       0.455   2.589  20.979  0.00  0.00    +0.000 HD
ENDBRANCH  28  31
ENDBRANCH  27  28
ENDBRANCH   5  27
TORSDOF 7
ENDMDL
MODEL 8
REMARK VINA RESULT:      -8.9      1.149      1.607
REMARK  Name = 
REMARK  8 active torsions:
REMARK  status: ('A' for Active; 'I' for Inactive)
REMARK    1  A    between atoms: C_1  and  N_2
REMARK    2  A    between atoms: C_6  and  C_7
REMARK    3  A    between atoms: C_7  and  C_8
REMARK    4  A    between atoms: C_11  and  N_12
REMARK    5  A    between atoms: C_19  and  C_20
REMARK    6  A    between atoms: C_25  and  C_26
REMARK    7  A    between atoms: C_26  and  C_27
REMARK    8  A    between atoms: C_27  and  O_28
REMARK                            x       y       z     vdW  Elec       q    Type
REMARK                         _______ _______ _______ _____ _____    ______ ____
ROOT
ATOM      1  C   UNL     1       2.044   7.161  20.215  0.00  0.00    +0.000 A 
ATOM      2  C   UNL     1       2.996   7.368  19.216  0.00  0.00    +0.000 A 
ATOM      3  C   UNL     1       3.654   6.282  18.673  0.00  0.00    +0.000 A 
ATOM      4  C   UNL     1       3.423   4.974  19.141  0.00  0.00    +0.000 A 
ATOM      5  C   UNL     1       2.359   4.736  20.020  0.00  0.00    +0.000 A 
ATOM      6  C   UNL     1       1.694   5.853  20.570  0.00  0.00    +0.000 A 
ENDROOT
BRANCH   4   7
ATOM      7  N   UNL     1       4.471   3.990  18.964  0.00  0.00    +0.000 N 
ATOM      8  C   UNL     1       5.809   4.631  19.085  0.00  0.00    +0.000 C 
ATOM      9  C   UNL     1       6.197   4.891  17.660  0.00  0.00    +0.000 A 
ATOM     10  C   UNL     1       5.501   3.986  16.856  0.00  0.00    +0.000 A 
ATOM     11  C   UNL     1       5.490   4.065  15.474  0.00  0.00    +0.000 A 
ATOM     12  C   UNL     1       6.189   5.121  14.888  0.00  0.00    +0.000 A 
ATOM     13  C   UNL     1       6.861   6.066  15.688  0.00  0.00    +0.000 A 
ATOM     14  C   UNL     1       6.879   5.965  17.093  0.00  0.00    +0.000 A 
ATOM     15  C   UNL     1       4.463   3.355  17.695  0.00  0.00    +0.000 C 
ATOM     16  O   UNL     1       3.639   2.554  17.275  0.00  0.00    +0.000 OA
BRANCH  14  17
ATOM     17  C   UNL     1       7.436   7.088  17.927  0.00  0.00    +0.000 C 
ATOM     18  F   UNL     1       8.363   6.666  18.829  0.00  0.00    +0.000 F 
ATOM     19  F   UNL     1       8.049   8.054  17.186  0.00  0.00    +0.000 F 
ENDBRANCH  14  17
ENDBRANCH   4   7
BRANCH   1  20
ATOM     20  C   UNL     1       1.389   8.369  20.841  0.00  0.00    +0.000 C 
BRANCH  20  26
ATOM     21  C   UNL     1      -0.535  10.771  21.419  0.00  0.00    +0.000 C 
ATOM     22  N   UNL     1      -0.098  10.307  20.131  0.00  0.00    +0.000 N 
ATOM     23  C   UNL     1      -0.477  10.829  18.933  0.00  0.00    +0.000 A 
ATOM     24  N   UNL     1       0.100  10.163  17.961  0.00  0.00    +0.000 NA
ATOM     25  N   UNL     1       0.867   9.177  18.532  0.00  0.00    +0.000 NA
ATOM     26  C   UNL     1       0.746   9.264  19.843  0.00  0.00    +0.000 A 
ENDBRANCH  20  26
ENDBRANCH   1  20
BRANCH   5  27
ATOM     27  C   UNL     1       1.835   3.351  20.302  0.00  0.00    +0.000 C 
BRANCH  27  28
ATOM     28  C   UNL     1       1.002   2.711  19.208  0.00  0.00    +0.000 C 
ATOM     29  F   UNL     1      -0.246   2.414  19.622  0.00  0.00    +0.000 F 
ATOM     30  F   UNL     1       0.909   3.501  18.119  0.00  0.00    +0.000 F 
BRANCH  28  31
ATOM     31  O   UNL     1       1.580   1.492  18.791  0.00  0.00    +0.000 OA
ATOM     32  H   UNL     1       2.203   1.776  18.103  0.00  0.00    +0.000 HD
ENDBRANCH  28  31
ENDBRANCH  27  28
ENDBRANCH   5  27
TORSDOF 7
ENDMDL
MODEL 9
REMARK VINA RESULT:      -8.7      1.028      1.253
REMARK  Name = 
REMARK  8 active torsions:
REMARK  status: ('A' for Active; 'I' for Inactive)
REMARK    1  A    between atoms: C_1  and  N_2
REMARK    2  A    between atoms: C_6  and  C_7
REMARK    3  A    between atoms: C_7  and  C_8
REMARK    4  A    between atoms: C_11  and  N_12
REMARK    5  A    between atoms: C_19  and  C_20
REMARK    6  A    between atoms: C_25  and  C_26
REMARK    7  A    between atoms: C_26  and  C_27
REMARK    8  A    between atoms: C_27  and  O_28
REMARK                            x       y       z     vdW  Elec       q    Type
REMARK                         _______ _______ _______ _____ _____    ______ ____
ROOT
ATOM      1  C   UNL     1       2.186   7.527  19.475  0.00  0.00    +0.000 A 
ATOM      2  C   UNL     1       2.286   7.117  18.145  0.00  0.00    +0.000 A 
ATOM      3  C   UNL     1       2.525   5.785  17.864  0.00  0.00    +0.000 A 
ATOM      4  C   UNL     1       2.722   4.842  18.891  0.00  0.00    +0.000 A 
ATOM      5  C   UNL     1       2.462   5.205  20.217  0.00  0.00    +0.000 A 
ATOM      6  C   UNL     1       2.220   6.568  20.495  0.00  0.00    +0.000 A 
ENDROOT
BRANCH   4   7
ATOM      7  N   UNL     1       3.487   3.651  18.585  0.00  0.00    +0.000 N 
ATOM      8  C   UNL     1       4.904   3.823  19.004  0.00  0.00    +0.000 C 
ATOM      9  C   UNL     1       5.590   4.248  17.741  0.00  0.00    +0.000 A 
ATOM     10  C   UNL     1       4.830   3.782  16.666  0.00  0.00    +0.000 A 
ATOM     11  C   UNL     1       5.081   4.149  15.355  0.00  0.00    +0.000 A 
ATOM     12  C   UNL     1       6.125   5.047  15.130  0.00  0.00    +0.000 A 
ATOM     13  C   UNL     1       6.874   5.559  16.209  0.00  0.00    +0.000 A 
ATOM     14  C   UNL     1       6.619   5.165  17.538  0.00  0.00    +0.000 A 
ATOM     15  C   UNL     1       3.533   3.328  17.204  0.00  0.00    +0.000 C 
ATOM     16  O   UNL     1       2.612   2.916  16.511  0.00  0.00    +0.000 OA
BRANCH  14  17
ATOM     17  C   UNL     1       7.299   5.870  18.681  0.00  0.00    +0.000 C 
ATOM     18  F   UNL     1       7.650   7.148  18.379  0.00  0.00    +0.000 F 
ATOM     19  F   UNL     1       6.524   5.949  19.800  0.00  0.00    +0.000 F 
ENDBRANCH  14  17
ENDBRANCH   4   7
BRANCH   1  20
ATOM     20  C   UNL     1       1.993   8.997  19.758  0.00  0.00    +0.000 C 
BRANCH  20  26
ATOM     21  C   UNL     1      -0.917  10.153  19.835  0.00  0.00    +0.000 C 
ATOM     22  N   UNL     1      -0.112   9.766  20.962  0.00  0.00    +0.000 N 
ATOM     23  C   UNL     1      -0.482   9.866  22.268  0.00  0.00    +0.000 A 
ATOM     24  N   UNL     1       0.492   9.435  23.034  0.00  0.00    +0.000 NA
ATOM     25  N   UNL     1       1.525   9.051  22.215  0.00  0.00    +0.000 NA
ATOM     26  C   UNL     1       1.160   9.253  20.964  0.00  0.00    +0.000 A 
ENDBRANCH  20  26
ENDBRANCH   1  20
BRANCH   5  27
ATOM     27  C   UNL     1       2.320   4.190  21.323  0.00  0.00    +0.000 C 
BRANCH  27  28
ATOM     28  C   UNL     1       1.342   3.058  21.074  0.00  0.00    +0.000 C 
ATOM     29  F   UNL     1       0.257   3.460  20.384  0.00  0.00    +0.000 F 
ATOM     30  F   UNL     1       1.914   2.036  20.405  0.00  0.00    +0.000 F 
BRANCH  28  31
ATOM     31  O   UNL     1       0.861   2.539  22.297  0.00  0.00    +0.000 OA
ATOM     32  H   UNL     1       1.218   3.164  22.949  0.00  0.00    +0.000 HD
ENDBRANCH  28  31
ENDBRANCH  27  28
ENDBRANCH   5  27
TORSDOF 7
ENDMDL
