MODEL 1
REMARK VINA RESULT:      -8.6      0.000      0.000
REMARK  Name = 
REMARK  4 active torsions:
REMARK  status: ('A' for Active; 'I' for Inactive)
REMARK    1  A    between atoms: C_2  and  C_3
REMARK    2  A    between atoms: N_6  and  C_7
REMARK    3  A    between atoms: C_21  and  C_22
REMARK    4  A    between atoms: C_22  and  O_23
REMARK                            x       y       z     vdW  Elec       q    Type
REMARK                         _______ _______ _______ _____ _____    ______ ____
ROOT
ATOM      1  O   UNL     1       3.207   7.163  18.053  0.00  0.00    +0.000 OA
ATOM      2  C   UNL     1       3.752   6.060  18.028  0.00  0.00    +0.000 C 
ATOM      3  N   UNL     1       3.241   4.971  18.732  0.00  0.00    +0.000 N 
ATOM      4  C   UNL     1       2.087   5.094  19.540  0.00  0.00    +0.000 C 
ATOM      5  C   UNL     1       1.655   3.640  19.704  0.00  0.00    +0.000 C 
ATOM      6  C   UNL     1       0.735   3.481  20.904  0.00  0.00    +0.000 C 
ATOM      7  C   UNL     1       1.471   2.564  21.804  0.00  0.00    +0.000 C 
ATOM      8  C   UNL     1       2.879   2.555  21.247  0.00  0.00    +0.000 C 
ATOM      9  C   UNL     1       2.927   2.614  19.637  0.00  0.00    +0.000 C 
ATOM     10  C   UNL     1       3.382   3.579  18.388  0.00  0.00    +0.000 C 
ENDROOT
BRANCH   2  11
ATOM     11  C   UNL     1       4.972   5.835  17.231  0.00  0.00    +0.000 A 
ATOM     12  C   UNL     1       6.296   6.168  17.596  0.00  0.00    +0.000 A 
ATOM     13  C   UNL     1       7.071   5.811  16.523  0.00  0.00    +0.000 A 
ATOM     14  N   UNL     1       6.225   5.275  15.575  0.00  0.00    +0.000 N 
ATOM     15  N   UNL     1       4.949   5.232  16.027  0.00  0.00    +0.000 NA
BRANCH  14  16
ATOM     16  C   UNL     1       6.543   4.831  14.261  0.00  0.00    +0.000 A 
ATOM     17  C   UNL     1       7.599   5.438  13.561  0.00  0.00    +0.000 A 
ATOM     18  C   UNL     1       7.947   4.996  12.280  0.00  0.00    +0.000 A 
ATOM     19  C   UNL     1       7.235   3.957  11.689  0.00  0.00    +0.000 A 
ATOM     20  C   UNL     1       6.184   3.365  12.382  0.00  0.00    +0.000 A 
ATOM     21  F   UNL     1       5.503   2.365  11.812  0.00  0.00    +0.000 F 
ATOM     22  C   UNL     1       5.830   3.787  13.662  0.00  0.00    +0.000 A 
ENDBRANCH  14  16
ENDBRANCH   2  11
BRANCH   9  23
ATOM     23  C   UNL     1       4.485   2.188  19.733  0.00  0.00    +0.000 C 
BRANCH  23  24
ATOM     24  O   UNL     1       5.434   3.207  19.416  0.00  0.00    +0.000 OA
ATOM     25  H   UNL     1       6.336   2.848  19.530  0.00  0.00    +0.000 HD
ENDBRANCH  23  24
ENDBRANCH   9  23
TORSDOF 4
ENDMDL
MODEL 2
REMARK VINA RESULT:      -8.1      1.082      1.302
REMARK  Name = 
REMARK  4 active torsions:
REMARK  status: ('A' for Active; 'I' for Inactive)
REMARK    1  A    between atoms: C_2  and  C_3
REMARK    2  A    between atoms: N_6  and  C_7
REMARK    3  A    between atoms: C_21  and  C_22
REMARK    4  A    between atoms: C_22  and  O_23
REMARK                            x       y       z     vdW  Elec       q    Type
REMARK                         _______ _______ _______ _____ _____    ______ ____
ROOT
ATOM      1  O   UNL     1       4.156   7.222  17.600  0.00  0.00    +0.000 OA
ATOM      2  C   UNL     1       4.295   6.010  17.438  0.00  0.00    +0.000 C 
ATOM      3  N   UNL     1       3.543   5.081  18.156  0.00  0.00    +0.000 N 
ATOM      4  C   UNL     1       2.607   5.490  19.133  0.00  0.00    +0.000 C 
ATOM      5  C   UNL     1       1.741   4.245  19.287  0.00  0.00    +0.000 C 
ATOM      6  C   UNL     1       0.978   4.276  20.602  0.00  0.00    +0.000 C 
ATOM      7  C   UNL     1       1.473   3.089  21.335  0.00  0.00    +0.000 C 
ATOM      8  C   UNL     1       2.717   2.680  20.573  0.00  0.00    +0.000 C 
ATOM      9  C   UNL     1       2.580   2.875  18.979  0.00  0.00    +0.000 C 
ATOM     10  C   UNL     1       3.170   3.757  17.726  0.00  0.00    +0.000 C 
ENDROOT
BRANCH   2  11
ATOM     11  C   UNL     1       5.261   5.481  16.458  0.00  0.00    +0.000 A 
ATOM     12  C   UNL     1       6.668   5.610  16.500  0.00  0.00    +0.000 A 
ATOM     13  C   UNL     1       7.124   5.002  15.359  0.00  0.00    +0.000 A 
ATOM     14  N   UNL     1       6.019   4.525  14.687  0.00  0.00    +0.000 N 
ATOM     15  N   UNL     1       4.882   4.763  15.384  0.00  0.00    +0.000 NA
BRANCH  14  16
ATOM     16  C   UNL     1       5.968   3.888  13.416  0.00  0.00    +0.000 A 
ATOM     17  C   UNL     1       7.164   3.526  12.774  0.00  0.00    +0.000 A 
ATOM     18  C   UNL     1       7.136   2.871  11.537  0.00  0.00    +0.000 A 
ATOM     19  C   UNL     1       5.916   2.587  10.933  0.00  0.00    +0.000 A 
ATOM     20  C   UNL     1       4.734   2.955  11.567  0.00  0.00    +0.000 A 
ATOM     21  F   UNL     1       3.562   2.678  10.984  0.00  0.00    +0.000 F 
ATOM     22  C   UNL     1       4.745   3.599  12.803  0.00  0.00    +0.000 A 
ENDBRANCH  14  16
ENDBRANCH   2  11
BRANCH   9  23
ATOM     23  C   UNL     1       3.907   1.963  18.820  0.00  0.00    +0.000 C 
BRANCH  23  24
ATOM     24  O   UNL     1       5.020   2.327  19.638  0.00  0.00    +0.000 OA
ATOM     25  H   UNL     1       4.788   3.125  20.152  0.00  0.00    +0.000 HD
ENDBRANCH  23  24
ENDBRANCH   9  23
TORSDOF 4
ENDMDL
MODEL 3
REMARK VINA RESULT:      -8.1      1.186      1.671
REMARK  Name = 
REMARK  4 active torsions:
REMARK  status: ('A' for Active; 'I' for Inactive)
REMARK    1  A    between atoms: C_2  and  C_3
REMARK    2  A    between atoms: N_6  and  C_7
REMARK    3  A    between atoms: C_21  and  C_22
REMARK    4  A    between atoms: C_22  and  O_23
REMARK                            x       y       z     vdW  Elec       q    Type
REMARK                         _______ _______ _______ _____ _____    ______ ____
ROOT
ATOM      1  O   UNL     1       4.190   7.187  17.538  0.00  0.00    +0.000 OA
ATOM      2  C   UNL     1       4.298   5.973  17.364  0.00  0.00    +0.000 C 
ATOM      3  N   UNL     1       3.546   5.055  18.096  0.00  0.00    +0.000 N 
ATOM      4  C   UNL     1       2.646   5.476  19.101  0.00  0.00    +0.000 C 
ATOM      5  C   UNL     1       1.758   4.248  19.270  0.00  0.00    +0.000 C 
ATOM      6  C   UNL     1       1.032   4.285  20.606  0.00  0.00    +0.000 C 
ATOM      7  C   UNL     1       1.522   3.082  21.316  0.00  0.00    +0.000 C 
ATOM      8  C   UNL     1       2.736   2.653  20.518  0.00  0.00    +0.000 C 
ATOM      9  C   UNL     1       2.559   2.863  18.929  0.00  0.00    +0.000 C 
ATOM     10  C   UNL     1       3.133   3.743  17.666  0.00  0.00    +0.000 C 
ENDROOT
BRANCH   2  11
ATOM     11  C   UNL     1       5.225   5.432  16.353  0.00  0.00    +0.000 A 
ATOM     12  C   UNL     1       6.629   5.591  16.320  0.00  0.00    +0.000 A 
ATOM     13  C   UNL     1       7.041   4.954  15.178  0.00  0.00    +0.000 A 
ATOM     14  N   UNL     1       5.914   4.432  14.579  0.00  0.00    +0.000 N 
ATOM     15  N   UNL     1       4.809   4.669  15.324  0.00  0.00    +0.000 NA
BRANCH  14  16
ATOM     16  C   UNL     1       5.814   3.751  13.333  0.00  0.00    +0.000 A 
ATOM     17  C   UNL     1       4.565   3.648  12.698  0.00  0.00    +0.000 A 
ATOM     18  C   UNL     1       4.450   3.008  11.459  0.00  0.00    +0.000 A 
ATOM     19  C   UNL     1       5.578   2.460  10.856  0.00  0.00    +0.000 A 
ATOM     20  C   UNL     1       6.811   2.556  11.492  0.00  0.00    +0.000 A 
ATOM     21  F   UNL     1       7.894   2.029  10.909  0.00  0.00    +0.000 F 
ATOM     22  C   UNL     1       6.944   3.197  12.723  0.00  0.00    +0.000 A 
ENDBRANCH  14  16
ENDBRANCH   2  11
BRANCH   9  23
ATOM     23  C   UNL     1       3.861   1.924  18.727  0.00  0.00    +0.000 C 
BRANCH  23  24
ATOM     24  O   UNL     1       4.975   2.205  19.577  0.00  0.00    +0.000 OA
ATOM     25  H   UNL     1       4.650   2.361  20.485  0.00  0.00    +0.000 HD
ENDBRANCH  23  24
ENDBRANCH   9  23
TORSDOF 4
ENDMDL
MODEL 4
REMARK VINA RESULT:      -8.0      1.440      1.966
REMARK  Name = 
REMARK  4 active torsions:
REMARK  status: ('A' for Active; 'I' for Inactive)
REMARK    1  A    between atoms: C_2  and  C_3
REMARK    2  A    between atoms: N_6  and  C_7
REMARK    3  A    between atoms: C_21  and  C_22
REMARK    4  A    between atoms: C_22  and  O_23
REMARK                            x       y       z     vdW  Elec       q    Type
REMARK                         _______ _______ _______ _____ _____    ______ ____
ROOT
ATOM      1  O   UNL     1       6.492   4.528  19.358  0.00  0.00    +0.000 OA
ATOM      2  C   UNL     1       5.486   4.688  18.667  0.00  0.00    +0.000 C 
ATOM      3  N   UNL     1       4.208   4.428  19.158  0.00  0.00    +0.000 N 
ATOM      4  C   UNL     1       4.009   3.933  20.468  0.00  0.00    +0.000 C 
ATOM      5  C   UNL     1       2.537   4.249  20.709  0.00  0.00    +0.000 C 
ATOM      6  C   UNL     1       1.980   3.398  21.840  0.00  0.00    +0.000 C 
ATOM      7  C   UNL     1       0.913   2.597  21.198  0.00  0.00    +0.000 C 
ATOM      8  C   UNL     1       1.172   2.765  19.714  0.00  0.00    +0.000 C 
ATOM      9  C   UNL     1       1.675   4.244  19.320  0.00  0.00    +0.000 C 
ATOM     10  C   UNL     1       2.980   5.059  18.744  0.00  0.00    +0.000 C 
ENDROOT
BRANCH   2  11
ATOM     11  C   UNL     1       5.588   5.180  17.281  0.00  0.00    +0.000 A 
ATOM     12  C   UNL     1       5.240   6.467  16.811  0.00  0.00    +0.000 A 
ATOM     13  C   UNL     1       5.465   6.435  15.460  0.00  0.00    +0.000 A 
ATOM     14  N   UNL     1       5.940   5.176  15.160  0.00  0.00    +0.000 N 
ATOM     15  N   UNL     1       6.075   4.425  16.279  0.00  0.00    +0.000 NA
BRANCH  14  16
ATOM     16  C   UNL     1       6.246   4.631  13.881  0.00  0.00    +0.000 A 
ATOM     17  C   UNL     1       7.369   5.100  13.179  0.00  0.00    +0.000 A 
ATOM     18  C   UNL     1       7.704   4.556  11.934  0.00  0.00    +0.000 A 
ATOM     19  C   UNL     1       6.914   3.553  11.381  0.00  0.00    +0.000 A 
ATOM     20  C   UNL     1       5.798   3.099  12.076  0.00  0.00    +0.000 A 
ATOM     21  F   UNL     1       5.041   2.133  11.542  0.00  0.00    +0.000 F 
ATOM     22  C   UNL     1       5.455   3.623  13.321  0.00  0.00    +0.000 A 
ENDBRANCH  14  16
ENDBRANCH   2  11
BRANCH   9  23
ATOM     23  C   UNL     1       1.366   3.866  17.777  0.00  0.00    +0.000 C 
BRANCH  23  24
ATOM     24  O   UNL     1       2.162   2.820  17.217  0.00  0.00    +0.000 OA
ATOM     25  H   UNL     1       1.573   2.100  16.915  0.00  0.00    +0.000 HD
ENDBRANCH  23  24
ENDBRANCH   9  23
TORSDOF 4
ENDMDL
MODEL 5
REMARK VINA RESULT:      -7.9      1.203      1.545
REMARK  Name = 
REMARK  4 active torsions:
REMARK  status: ('A' for Active; 'I' for Inactive)
REMARK    1  A    between atoms: C_2  and  C_3
REMARK    2  A    between atoms: N_6  and  C_7
REMARK    3  A    between atoms: C_21  and  C_22
REMARK    4  A    between atoms: C_22  and  O_23
REMARK                            x       y       z     vdW  Elec       q    Type
REMARK                         _______ _______ _______ _____ _____    ______ ____
ROOT
ATOM      1  O   UNL     1       3.625   6.903  18.155  0.00  0.00    +0.000 OA
ATOM      2  C   UNL     1       4.067   5.754  18.129  0.00  0.00    +0.000 C 
ATOM      3  N   UNL     1       3.467   4.719  18.844  0.00  0.00    +0.000 N 
ATOM      4  C   UNL     1       2.338   4.949  19.664  0.00  0.00    +0.000 C 
ATOM      5  C   UNL     1       1.778   3.541  19.839  0.00  0.00    +0.000 C 
ATOM      6  C   UNL     1       0.860   3.471  21.049  0.00  0.00    +0.000 C 
ATOM      7  C   UNL     1       1.520   2.494  21.946  0.00  0.00    +0.000 C 
ATOM      8  C   UNL     1       2.916   2.356  21.374  0.00  0.00    +0.000 C 
ATOM      9  C   UNL     1       2.951   2.403  19.763  0.00  0.00    +0.000 C 
ATOM     10  C   UNL     1       3.478   3.318  18.505  0.00  0.00    +0.000 C 
ENDROOT
BRANCH   2  11
ATOM     11  C   UNL     1       5.253   5.416  17.321  0.00  0.00    +0.000 A 
ATOM     12  C   UNL     1       6.586   5.307  17.777  0.00  0.00    +0.000 A 
ATOM     13  C   UNL     1       7.331   5.023  16.662  0.00  0.00    +0.000 A 
ATOM     14  N   UNL     1       6.455   4.956  15.599  0.00  0.00    +0.000 N 
ATOM     15  N   UNL     1       5.176   5.136  16.006  0.00  0.00    +0.000 NA
BRANCH  14  16
ATOM     16  C   UNL     1       6.755   4.763  14.221  0.00  0.00    +0.000 A 
ATOM     17  C   UNL     1       6.229   3.648  13.547  0.00  0.00    +0.000 A 
ATOM     18  C   UNL     1       6.487   3.455  12.185  0.00  0.00    +0.000 A 
ATOM     19  C   UNL     1       7.281   4.367  11.496  0.00  0.00    +0.000 A 
ATOM     20  C   UNL     1       7.807   5.465  12.169  0.00  0.00    +0.000 A 
ATOM     21  F   UNL     1       8.568   6.340  11.503  0.00  0.00    +0.000 F 
ATOM     22  C   UNL     1       7.552   5.675  13.523  0.00  0.00    +0.000 A 
ENDBRANCH  14  16
ENDBRANCH   2  11
BRANCH   9  23
ATOM     23  C   UNL     1       4.465   1.838  19.846  0.00  0.00    +0.000 C 
BRANCH  23  24
ATOM     24  O   UNL     1       5.028   1.742  21.155  0.00  0.00    +0.000 OA
ATOM     25  H   UNL     1       5.932   2.112  21.140  0.00  0.00    +0.000 HD
ENDBRANCH  23  24
ENDBRANCH   9  23
TORSDOF 4
ENDMDL
MODEL 6
REMARK VINA RESULT:      -7.6      4.289      5.906
REMARK  Name = 
REMARK  4 active torsions:
REMARK  status: ('A' for Active; 'I' for Inactive)
REMARK    1  A    between atoms: C_2  and  C_3
REMARK    2  A    between atoms: N_6  and  C_7
REMARK    3  A    between atoms: C_21  and  C_22
REMARK    4  A    between atoms: C_22  and  O_23
REMARK                            x       y       z     vdW  Elec       q    Type
REMARK                         _______ _______ _______ _____ _____    ______ ____
ROOT
ATOM      1  O   UNL     1       6.541   5.717  15.354  0.00  0.00    +0.000 OA
ATOM      2  C   UNL     1       6.316   5.824  16.560  0.00  0.00    +0.000 C 
ATOM      3  N   UNL     1       5.253   5.163  17.172  0.00  0.00    +0.000 N 
ATOM      4  C   UNL     1       4.358   4.362  16.426  0.00  0.00    +0.000 C 
ATOM      5  C   UNL     1       3.707   3.512  17.513  0.00  0.00    +0.000 C 
ATOM      6  C   UNL     1       2.393   2.924  17.024  0.00  0.00    +0.000 C 
ATOM      7  C   UNL     1       1.379   3.499  17.937  0.00  0.00    +0.000 C 
ATOM      8  C   UNL     1       2.108   4.633  18.628  0.00  0.00    +0.000 C 
ATOM      9  C   UNL     1       3.651   4.294  18.948  0.00  0.00    +0.000 C 
ATOM     10  C   UNL     1       5.184   4.726  18.544  0.00  0.00    +0.000 C 
ENDROOT
BRANCH   2  11
ATOM     11  C   UNL     1       7.180   6.653  17.421  0.00  0.00    +0.000 A 
ATOM     12  C   UNL     1       7.858   6.239  18.590  0.00  0.00    +0.000 A 
ATOM     13  C   UNL     1       8.488   7.361  19.063  0.00  0.00    +0.000 A 
ATOM     14  N   UNL     1       8.195   8.386  18.189  0.00  0.00    +0.000 N 
ATOM     15  N   UNL     1       7.445   7.945  17.151  0.00  0.00    +0.000 NA
BRANCH  14  16
ATOM     16  C   UNL     1       8.553   9.760  18.290  0.00  0.00    +0.000 A 
ATOM     17  C   UNL     1       9.583  10.144  19.165  0.00  0.00    +0.000 A 
ATOM     18  C   UNL     1       9.971  11.486  19.257  0.00  0.00    +0.000 A 
ATOM     19  C   UNL     1       9.326  12.448  18.486  0.00  0.00    +0.000 A 
ATOM     20  C   UNL     1       8.301  12.063  17.628  0.00  0.00    +0.000 A 
ATOM     21  F   UNL     1       7.683  12.991  16.887  0.00  0.00    +0.000 F 
ATOM     22  C   UNL     1       7.908  10.731  17.518  0.00  0.00    +0.000 A 
ENDBRANCH  14  16
ENDBRANCH   2  11
BRANCH   9  23
ATOM     23  C   UNL     1       3.662   5.583  19.927  0.00  0.00    +0.000 C 
BRANCH  23  24
ATOM     24  O   UNL     1       2.456   5.831  20.651  0.00  0.00    +0.000 OA
ATOM     25  H   UNL     1       2.437   5.258  21.442  0.00  0.00    +0.000 HD
ENDBRANCH  23  24
ENDBRANCH   9  23
TORSDOF 4
ENDMDL
MODEL 7
REMARK VINA RESULT:      -7.6      1.683      2.425
REMARK  Name = 
REMARK  4 active torsions:
REMARK  status: ('A' for Active; 'I' for Inactive)
REMARK    1  A    between atoms: C_2  and  C_3
REMARK    2  A    between atoms: N_6  and  C_7
REMARK    3  A    between atoms: C_21  and  C_22
REMARK    4  A    between atoms: C_22  and  O_23
REMARK                            x       y       z     vdW  Elec       q    Type
REMARK                         _______ _______ _______ _____ _____    ______ ____
ROOT
ATOM      1  O   UNL     1       6.598   4.464  18.902  0.00  0.00    +0.000 OA
ATOM      2  C   UNL     1       5.560   4.555  18.248  0.00  0.00    +0.000 C 
ATOM      3  N   UNL     1       4.306   4.366  18.828  0.00  0.00    +0.000 N 
ATOM      4  C   UNL     1       4.171   4.025  20.193  0.00  0.00    +0.000 C 
ATOM      5  C   UNL     1       2.715   4.381  20.469  0.00  0.00    +0.000 C 
ATOM      6  C   UNL     1       2.211   3.670  21.715  0.00  0.00    +0.000 C 
ATOM      7  C   UNL     1       1.109   2.813  21.221  0.00  0.00    +0.000 C 
ATOM      8  C   UNL     1       1.294   2.809  19.717  0.00  0.00    +0.000 C 
ATOM      9  C   UNL     1       1.784   4.229  19.133  0.00  0.00    +0.000 C 
ATOM     10  C   UNL     1       3.063   4.959  18.404  0.00  0.00    +0.000 C 
ENDROOT
BRANCH   2  11
ATOM     11  C   UNL     1       5.595   4.887  16.812  0.00  0.00    +0.000 A 
ATOM     12  C   UNL     1       5.546   6.178  16.239  0.00  0.00    +0.000 A 
ATOM     13  C   UNL     1       5.560   5.976  14.883  0.00  0.00    +0.000 A 
ATOM     14  N   UNL     1       5.630   4.614  14.679  0.00  0.00    +0.000 N 
ATOM     15  N   UNL     1       5.713   3.947  15.855  0.00  0.00    +0.000 NA
BRANCH  14  16
ATOM     16  C   UNL     1       5.594   3.905  13.446  0.00  0.00    +0.000 A 
ATOM     17  C   UNL     1       4.373   3.760  12.766  0.00  0.00    +0.000 A 
ATOM     18  C   UNL     1       4.320   3.093  11.537  0.00  0.00    +0.000 A 
ATOM     19  C   UNL     1       5.482   2.557  10.990  0.00  0.00    +0.000 A 
ATOM     20  C   UNL     1       6.687   2.695  11.671  0.00  0.00    +0.000 A 
ATOM     21  F   UNL     1       7.803   2.181  11.141  0.00  0.00    +0.000 F 
ATOM     22  C   UNL     1       6.758   3.365  12.891  0.00  0.00    +0.000 A 
ENDBRANCH  14  16
ENDBRANCH   2  11
BRANCH   9  23
ATOM     23  C   UNL     1       1.397   3.682  17.660  0.00  0.00    +0.000 C 
BRANCH  23  24
ATOM     24  O   UNL     1       2.488   3.248  16.845  0.00  0.00    +0.000 OA
ATOM     25  H   UNL     1       2.158   2.603  16.190  0.00  0.00    +0.000 HD
ENDBRANCH  23  24
ENDBRANCH   9  23
TORSDOF 4
ENDMDL
MODEL 8
REMARK VINA RESULT:      -7.6      4.588      6.226
REMARK  Name = 
REMARK  4 active torsions:
REMARK  status: ('A' for Active; 'I' for Inactive)
REMARK    1  A    between atoms: C_2  and  C_3
REMARK    2  A    between atoms: N_6  and  C_7
REMARK    3  A    between atoms: C_21  and  C_22
REMARK    4  A    between atoms: C_22  and  O_23
REMARK                            x       y       z     vdW  Elec       q    Type
REMARK                         _______ _______ _______ _____ _____    ______ ____
ROOT
ATOM      1  O   UNL     1       6.778   5.743  15.423  0.00  0.00    +0.000 OA
ATOM      2  C   UNL     1       6.485   5.897  16.609  0.00  0.00    +0.000 C 
ATOM      3  N   UNL     1       5.370   5.283  17.177  0.00  0.00    +0.000 N 
ATOM      4  C   UNL     1       4.499   4.481  16.405  0.00  0.00    +0.000 C 
ATOM      5  C   UNL     1       3.763   3.685  17.477  0.00  0.00    +0.000 C 
ATOM      6  C   UNL     1       2.464   3.114  16.931  0.00  0.00    +0.000 C 
ATOM      7  C   UNL     1       1.414   3.745  17.762  0.00  0.00    +0.000 C 
ATOM      8  C   UNL     1       2.132   4.882  18.459  0.00  0.00    +0.000 C 
ATOM      9  C   UNL     1       3.644   4.516  18.881  0.00  0.00    +0.000 C 
ATOM     10  C   UNL     1       5.208   4.895  18.556  0.00  0.00    +0.000 C 
ENDROOT
BRANCH   2  11
ATOM     11  C   UNL     1       7.319   6.731  17.493  0.00  0.00    +0.000 A 
ATOM     12  C   UNL     1       7.960   6.325  18.686  0.00  0.00    +0.000 A 
ATOM     13  C   UNL     1       8.571   7.451  19.173  0.00  0.00    +0.000 A 
ATOM     14  N   UNL     1       8.305   8.471  18.284  0.00  0.00    +0.000 N 
ATOM     15  N   UNL     1       7.591   8.023  17.225  0.00  0.00    +0.000 NA
BRANCH  14  16
ATOM     16  C   UNL     1       8.658   9.846  18.390  0.00  0.00    +0.000 A 
ATOM     17  C   UNL     1       8.117  10.771  17.482  0.00  0.00    +0.000 A 
ATOM     18  C   UNL     1       8.427  12.132  17.587  0.00  0.00    +0.000 A 
ATOM     19  C   UNL     1       9.287  12.571  18.589  0.00  0.00    +0.000 A 
ATOM     20  C   UNL     1       9.828  11.650  19.480  0.00  0.00    +0.000 A 
ATOM     21  F   UNL     1      10.653  12.075  20.443  0.00  0.00    +0.000 F 
ATOM     22  C   UNL     1       9.522  10.292  19.395  0.00  0.00    +0.000 A 
ENDBRANCH  14  16
ENDBRANCH   2  11
BRANCH   9  23
ATOM     23  C   UNL     1       3.632   5.836  19.817  0.00  0.00    +0.000 C 
BRANCH  23  24
ATOM     24  O   UNL     1       2.357   6.231  20.327  0.00  0.00    +0.000 OA
ATOM     25  H   UNL     1       1.812   6.571  19.591  0.00  0.00    +0.000 HD
ENDBRANCH  23  24
ENDBRANCH   9  23
TORSDOF 4
ENDMDL
MODEL 9
REMARK VINA RESULT:      -7.4      4.901      7.967
REMARK  Name = 
REMARK  4 active torsions:
REMARK  status: ('A' for Active; 'I' for Inactive)
REMARK    1  A    between atoms: C_2  and  C_3
REMARK    2  A    between atoms: N_6  and  C_7
REMARK    3  A    between atoms: C_21  and  C_22
REMARK    4  A    between atoms: C_22  and  O_23
REMARK                            x       y       z     vdW  Elec       q    Type
REMARK                         _______ _______ _______ _____ _____    ______ ____
ROOT
ATOM      1  O   UNL     1       4.440   7.158  17.438  0.00  0.00    +0.000 OA
ATOM      2  C   UNL     1       3.481   6.898  18.165  0.00  0.00    +0.000 C 
ATOM      3  N   UNL     1       3.324   5.645  18.756  0.00  0.00    +0.000 N 
ATOM      4  C   UNL     1       4.245   4.599  18.517  0.00  0.00    +0.000 C 
ATOM      5  C   UNL     1       3.957   3.650  19.676  0.00  0.00    +0.000 C 
ATOM      6  C   UNL     1       4.478   2.253  19.373  0.00  0.00    +0.000 C 
ATOM      7  C   UNL     1       3.263   1.406  19.380  0.00  0.00    +0.000 C 
ATOM      8  C   UNL     1       2.122   2.400  19.319  0.00  0.00    +0.000 C 
ATOM      9  C   UNL     1       2.400   3.741  20.168  0.00  0.00    +0.000 C 
ATOM     10  C   UNL     1       2.652   5.355  19.997  0.00  0.00    +0.000 C 
ENDROOT
BRANCH   2  11
ATOM     11  C   UNL     1       2.455   7.915  18.459  0.00  0.00    +0.000 A 
ATOM     12  C   UNL     1       1.853   8.802  17.538  0.00  0.00    +0.000 A 
ATOM     13  C   UNL     1       1.004   9.579  18.282  0.00  0.00    +0.000 A 
ATOM     14  N   UNL     1       1.101   9.147  19.587  0.00  0.00    +0.000 N 
ATOM     15  N   UNL     1       1.941   8.090  19.691  0.00  0.00    +0.000 NA
BRANCH  14  16
ATOM     16  C   UNL     1       0.473   9.688  20.744  0.00  0.00    +0.000 A 
ATOM     17  C   UNL     1      -0.351  10.819  20.619  0.00  0.00    +0.000 A 
ATOM     18  C   UNL     1      -1.001  11.350  21.739  0.00  0.00    +0.000 A 
ATOM     19  C   UNL     1      -0.821  10.761  22.987  0.00  0.00    +0.000 A 
ATOM     20  C   UNL     1       0.003   9.647  23.107  0.00  0.00    +0.000 A 
ATOM     21  F   UNL     1       0.172   9.083  24.308  0.00  0.00    +0.000 F 
ATOM     22  C   UNL     1       0.650   9.101  22.001  0.00  0.00    +0.000 A 
ENDBRANCH  14  16
ENDBRANCH   2  11
BRANCH   9  23
ATOM     23  C   UNL     1       0.825   4.081  20.023  0.00  0.00    +0.000 C 
BRANCH  23  24
ATOM     24  O   UNL     1      -0.030   2.977  19.720  0.00  0.00    +0.000 OA
ATOM     25  H   UNL     1      -0.381   2.610  20.554  0.00  0.00    +0.000 HD
ENDBRANCH  23  24
ENDBRANCH   9  23
TORSDOF 4
ENDMDL
