MODEL 1
REMARK VINA RESULT:      -8.0      0.000      0.000
REMARK  Name = 
REMARK  4 active torsions:
REMARK  status: ('A' for Active; 'I' for Inactive)
REMARK    1  A    between atoms: C_1  and  C_2
REMARK    2  A    between atoms: C_2  and  C_3
REMARK    3  A    between atoms: N_15  and  C_16
REMARK    4  A    between atoms: C_16  and  C_17
REMARK                            x       y       z     vdW  Elec       q    Type
REMARK                         _______ _______ _______ _____ _____    ______ ____
ROOT
ATOM      1  C   UNL     1       1.863   3.049  21.311  0.00  0.00    +0.000 C 
ATOM      2  C   UNL     1       2.369   3.529  19.958  0.00  0.00    +0.000 C 
ATOM      3  N   UNL     1       1.729   2.822  18.870  0.00  0.00    +0.000 N 
ATOM      4  C   UNL     1       2.629   2.542  17.862  0.00  0.00    +0.000 C 
ATOM      5  O   UNL     1       2.296   2.250  16.725  0.00  0.00    +0.000 OA
ATOM      6  N   UNL     1       3.890   2.720  18.347  0.00  0.00    +0.000 N 
ATOM      7  C   UNL     1       3.832   3.121  19.656  0.00  0.00    +0.000 C 
ATOM      8  O   UNL     1       4.779   3.303  20.411  0.00  0.00    +0.000 OA
ATOM      9  H   UNL     1       0.746   2.889  18.647  0.00  0.00    +0.000 HD
ENDROOT
BRANCH   2  10
ATOM     10  C   UNL     1       2.292   5.060  19.814  0.00  0.00    +0.000 A 
ATOM     11  C   UNL     1       2.753   5.668  18.612  0.00  0.00    +0.000 A 
ATOM     12  C   UNL     1       2.605   7.039  18.376  0.00  0.00    +0.000 A 
ATOM     13  C   UNL     1       2.003   7.791  19.356  0.00  0.00    +0.000 A 
ATOM     14  C   UNL     1       1.557   7.226  20.527  0.00  0.00    +0.000 A 
ATOM     15  C   UNL     1       1.683   5.876  20.785  0.00  0.00    +0.000 A 
ATOM     16  O   UNL     1       0.979   8.137  21.353  0.00  0.00    +0.000 OA
ATOM     17  C   UNL     1       1.155   9.347  20.588  0.00  0.00    +0.000 C 
ATOM     18  O   UNL     1       1.766   9.128  19.300  0.00  0.00    +0.000 OA
ENDBRANCH   2  10
BRANCH   6  19
ATOM     19  C   UNL     1       5.074   2.810  17.522  0.00  0.00    +0.000 C 
BRANCH  19  20
ATOM     20  C   UNL     1       5.346   4.190  16.972  0.00  0.00    +0.000 A 
ATOM     21  C   UNL     1       4.651   4.571  15.809  0.00  0.00    +0.000 A 
ATOM     22  C   UNL     1       4.854   5.819  15.236  0.00  0.00    +0.000 A 
ATOM     23  C   UNL     1       5.772   6.696  15.798  0.00  0.00    +0.000 A 
ATOM     24  C   UNL     1       6.480   6.354  16.961  0.00  0.00    +0.000 A 
ATOM     25  C   UNL     1       7.397   7.262  17.510  0.00  0.00    +0.000 A 
ATOM     26  C   UNL     1       8.093   6.963  18.684  0.00  0.00    +0.000 A 
ATOM     27  C   UNL     1       7.867   5.757  19.323  0.00  0.00    +0.000 A 
ATOM     28  C   UNL     1       6.964   4.839  18.779  0.00  0.00    +0.000 A 
ATOM     29  C   UNL     1       6.260   5.098  17.579  0.00  0.00    +0.000 A 
ENDBRANCH  19  20
ENDBRANCH   6  19
TORSDOF 3
ENDMDL
MODEL 2
REMARK VINA RESULT:      -7.8      3.483      6.249
REMARK  Name = 
REMARK  4 active torsions:
REMARK  status: ('A' for Active; 'I' for Inactive)
REMARK    1  A    between atoms: C_1  and  C_2
REMARK    2  A    between atoms: C_2  and  C_3
REMARK    3  A    between atoms: N_15  and  C_16
REMARK    4  A    between atoms: C_16  and  C_17
REMARK                            x       y       z     vdW  Elec       q    Type
REMARK                         _______ _______ _______ _____ _____    ______ ____
ROOT
ATOM      1  C   UNL     1      -1.318  10.897  19.073  0.00  0.00    +0.000 C 
ATOM      2  C   UNL     1       0.173  10.590  19.067  0.00  0.00    +0.000 C 
ATOM      3  N   UNL     1       0.603  10.064  17.790  0.00  0.00    +0.000 N 
ATOM      4  C   UNL     1       1.525   9.050  17.955  0.00  0.00    +0.000 C 
ATOM      5  O   UNL     1       2.267   8.665  17.067  0.00  0.00    +0.000 OA
ATOM      6  N   UNL     1       1.491   8.643  19.255  0.00  0.00    +0.000 N 
ATOM      7  C   UNL     1       0.566   9.379  19.948  0.00  0.00    +0.000 C 
ATOM      8  O   UNL     1       0.235   9.228  21.118  0.00  0.00    +0.000 OA
ATOM      9  H   UNL     1       0.598  10.588  16.926  0.00  0.00    +0.000 HD
ENDROOT
BRANCH   2  10
ATOM     10  C   UNL     1       1.019  11.785  19.544  0.00  0.00    +0.000 A 
ATOM     11  C   UNL     1       2.018  12.317  18.681  0.00  0.00    +0.000 A 
ATOM     12  C   UNL     1       2.739  13.469  19.011  0.00  0.00    +0.000 A 
ATOM     13  C   UNL     1       2.457  14.074  20.213  0.00  0.00    +0.000 A 
ATOM     14  C   UNL     1       1.502  13.573  21.064  0.00  0.00    +0.000 A 
ATOM     15  C   UNL     1       0.769  12.442  20.764  0.00  0.00    +0.000 A 
ATOM     16  O   UNL     1       1.366  14.325  22.189  0.00  0.00    +0.000 OA
ATOM     17  C   UNL     1       2.378  15.329  21.967  0.00  0.00    +0.000 C 
ATOM     18  O   UNL     1       3.045  15.200  20.695  0.00  0.00    +0.000 OA
ENDBRANCH   2  10
BRANCH   6  19
ATOM     19  C   UNL     1       2.502   7.818  19.876  0.00  0.00    +0.000 C 
BRANCH  19  20
ATOM     20  C   UNL     1       2.290   6.333  19.699  0.00  0.00    +0.000 A 
ATOM     21  C   UNL     1       1.360   5.707  20.549  0.00  0.00    +0.000 A 
ATOM     22  C   UNL     1       1.116   4.343  20.456  0.00  0.00    +0.000 A 
ATOM     23  C   UNL     1       1.815   3.578  19.531  0.00  0.00    +0.000 A 
ATOM     24  C   UNL     1       2.746   4.167  18.662  0.00  0.00    +0.000 A 
ATOM     25  C   UNL     1       3.433   3.372  17.734  0.00  0.00    +0.000 A 
ATOM     26  C   UNL     1       4.342   3.934  16.835  0.00  0.00    +0.000 A 
ATOM     27  C   UNL     1       4.561   5.300  16.851  0.00  0.00    +0.000 A 
ATOM     28  C   UNL     1       3.891   6.102  17.778  0.00  0.00    +0.000 A 
ATOM     29  C   UNL     1       2.982   5.563  18.720  0.00  0.00    +0.000 A 
ENDBRANCH  19  20
ENDBRANCH   6  19
TORSDOF 3
ENDMDL
MODEL 3
REMARK VINA RESULT:      -7.6      0.638      1.365
REMARK  Name = 
REMARK  4 active torsions:
REMARK  status: ('A' for Active; 'I' for Inactive)
REMARK    1  A    between atoms: C_1  and  C_2
REMARK    2  A    between atoms: C_2  and  C_3
REMARK    3  A    between atoms: N_15  and  C_16
REMARK    4  A    between atoms: C_16  and  C_17
REMARK                            x       y       z     vdW  Elec       q    Type
REMARK                         _______ _______ _______ _____ _____    ______ ____
ROOT
ATOM      1  C   UNL     1       1.804   3.052  21.319  0.00  0.00    +0.000 C 
ATOM      2  C   UNL     1       2.297   3.493  19.948  0.00  0.00    +0.000 C 
ATOM      3  N   UNL     1       1.717   2.694  18.891  0.00  0.00    +0.000 N 
ATOM      4  C   UNL     1       2.646   2.420  17.908  0.00  0.00    +0.000 C 
ATOM      5  O   UNL     1       2.347   2.050  16.785  0.00  0.00    +0.000 OA
ATOM      6  N   UNL     1       3.887   2.701  18.397  0.00  0.00    +0.000 N 
ATOM      7  C   UNL     1       3.786   3.163  19.682  0.00  0.00    +0.000 C 
ATOM      8  O   UNL     1       4.710   3.443  20.436  0.00  0.00    +0.000 OA
ATOM      9  H   UNL     1       0.734   2.687  18.655  0.00  0.00    +0.000 HD
ENDROOT
BRANCH   2  10
ATOM     10  C   UNL     1       2.127   5.008  19.724  0.00  0.00    +0.000 A 
ATOM     11  C   UNL     1       1.693   5.825  20.806  0.00  0.00    +0.000 A 
ATOM     12  C   UNL     1       1.628   7.217  20.697  0.00  0.00    +0.000 A 
ATOM     13  C   UNL     1       1.990   7.779  19.496  0.00  0.00    +0.000 A 
ATOM     14  C   UNL     1       2.405   7.009  18.437  0.00  0.00    +0.000 A 
ATOM     15  C   UNL     1       2.486   5.633  18.515  0.00  0.00    +0.000 A 
ATOM     16  O   UNL     1       2.733   7.757  17.350  0.00  0.00    +0.000 OA
ATOM     17  C   UNL     1       2.432   9.082  17.833  0.00  0.00    +0.000 C 
ATOM     18  O   UNL     1       2.000   9.107  19.209  0.00  0.00    +0.000 OA
ENDBRANCH   2  10
BRANCH   6  19
ATOM     19  C   UNL     1       5.073   2.823  17.580  0.00  0.00    +0.000 C 
BRANCH  19  20
ATOM     20  C   UNL     1       5.314   4.210  17.033  0.00  0.00    +0.000 A 
ATOM     21  C   UNL     1       4.575   4.596  15.899  0.00  0.00    +0.000 A 
ATOM     22  C   UNL     1       4.746   5.850  15.331  0.00  0.00    +0.000 A 
ATOM     23  C   UNL     1       5.675   6.732  15.869  0.00  0.00    +0.000 A 
ATOM     24  C   UNL     1       6.427   6.386  17.003  0.00  0.00    +0.000 A 
ATOM     25  C   UNL     1       7.354   7.297  17.529  0.00  0.00    +0.000 A 
ATOM     26  C   UNL     1       8.092   6.994  18.675  0.00  0.00    +0.000 A 
ATOM     27  C   UNL     1       7.901   5.780  19.310  0.00  0.00    +0.000 A 
ATOM     28  C   UNL     1       6.988   4.859  18.789  0.00  0.00    +0.000 A 
ATOM     29  C   UNL     1       6.240   5.122  17.617  0.00  0.00    +0.000 A 
ENDBRANCH  19  20
ENDBRANCH   6  19
TORSDOF 3
ENDMDL
MODEL 4
REMARK VINA RESULT:      -7.6      3.513      6.080
REMARK  Name = 
REMARK  4 active torsions:
REMARK  status: ('A' for Active; 'I' for Inactive)
REMARK    1  A    between atoms: C_1  and  C_2
REMARK    2  A    between atoms: C_2  and  C_3
REMARK    3  A    between atoms: N_15  and  C_16
REMARK    4  A    between atoms: C_16  and  C_17
REMARK                            x       y       z     vdW  Elec       q    Type
REMARK                         _______ _______ _______ _____ _____    ______ ____
ROOT
ATOM      1  C   UNL     1       1.707  11.974  19.811  0.00  0.00    +0.000 C 
ATOM      2  C   UNL     1       1.010  10.650  19.532  0.00  0.00    +0.000 C 
ATOM      3  N   UNL     1       1.089   9.758  20.669  0.00  0.00    +0.000 N 
ATOM      4  C   UNL     1       1.306   8.456  20.264  0.00  0.00    +0.000 C 
ATOM      5  O   UNL     1       1.098   7.488  20.976  0.00  0.00    +0.000 OA
ATOM      6  N   UNL     1       1.706   8.470  18.962  0.00  0.00    +0.000 N 
ATOM      7  C   UNL     1       1.747   9.759  18.502  0.00  0.00    +0.000 C 
ATOM      8  O   UNL     1       2.128  10.134  17.400  0.00  0.00    +0.000 OA
ATOM      9  H   UNL     1       0.643   9.928  21.560  0.00  0.00    +0.000 HD
ENDROOT
BRANCH   2  10
ATOM     10  C   UNL     1      -0.426  10.842  19.013  0.00  0.00    +0.000 A 
ATOM     11  C   UNL     1      -1.301  11.729  19.703  0.00  0.00    +0.000 A 
ATOM     12  C   UNL     1      -2.577  12.031  19.216  0.00  0.00    +0.000 A 
ATOM     13  C   UNL     1      -2.970  11.432  18.043  0.00  0.00    +0.000 A 
ATOM     14  C   UNL     1      -2.144  10.568  17.365  0.00  0.00    +0.000 A 
ATOM     15  C   UNL     1      -0.878  10.254  17.816  0.00  0.00    +0.000 A 
ATOM     16  O   UNL     1      -2.713  10.098  16.223  0.00  0.00    +0.000 OA
ATOM     17  C   UNL     1      -4.008  10.730  16.286  0.00  0.00    +0.000 C 
ATOM     18  O   UNL     1      -4.162  11.612  17.418  0.00  0.00    +0.000 OA
ENDBRANCH   2  10
BRANCH   6  19
ATOM     19  C   UNL     1       1.743   7.302  18.111  0.00  0.00    +0.000 C 
BRANCH  19  20
ATOM     20  C   UNL     1       3.043   6.535  18.160  0.00  0.00    +0.000 A 
ATOM     21  C   UNL     1       4.149   7.094  17.493  0.00  0.00    +0.000 A 
ATOM     22  C   UNL     1       5.376   6.445  17.484  0.00  0.00    +0.000 A 
ATOM     23  C   UNL     1       5.513   5.216  18.117  0.00  0.00    +0.000 A 
ATOM     24  C   UNL     1       4.434   4.630  18.797  0.00  0.00    +0.000 A 
ATOM     25  C   UNL     1       4.602   3.391  19.433  0.00  0.00    +0.000 A 
ATOM     26  C   UNL     1       3.557   2.798  20.145  0.00  0.00    +0.000 A 
ATOM     27  C   UNL     1       2.338   3.447  20.235  0.00  0.00    +0.000 A 
ATOM     28  C   UNL     1       2.155   4.677  19.597  0.00  0.00    +0.000 A 
ATOM     29  C   UNL     1       3.184   5.295  18.846  0.00  0.00    +0.000 A 
ENDBRANCH  19  20
ENDBRANCH   6  19
TORSDOF 3
ENDMDL
MODEL 5
REMARK VINA RESULT:      -7.5      3.422      6.391
REMARK  Name = 
REMARK  4 active torsions:
REMARK  status: ('A' for Active; 'I' for Inactive)
REMARK    1  A    between atoms: C_1  and  C_2
REMARK    2  A    between atoms: C_2  and  C_3
REMARK    3  A    between atoms: N_15  and  C_16
REMARK    4  A    between atoms: C_16  and  C_17
REMARK                            x       y       z     vdW  Elec       q    Type
REMARK                         _______ _______ _______ _____ _____    ______ ____
ROOT
ATOM      1  C   UNL     1      -1.830  10.668  18.984  0.00  0.00    +0.000 C 
ATOM      2  C   UNL     1      -0.326  10.571  19.191  0.00  0.00    +0.000 C 
ATOM      3  N   UNL     1       0.366  10.319  17.945  0.00  0.00    +0.000 N 
ATOM      4  C   UNL     1       1.404   9.426  18.126  0.00  0.00    +0.000 C 
ATOM      5  O   UNL     1       2.320   9.292  17.332  0.00  0.00    +0.000 OA
ATOM      6  N   UNL     1       1.243   8.816  19.333  0.00  0.00    +0.000 N 
ATOM      7  C   UNL     1       0.122   9.300  19.953  0.00  0.00    +0.000 C 
ATOM      8  O   UNL     1      -0.351   8.920  21.017  0.00  0.00    +0.000 OA
ATOM      9  H   UNL     1       0.405  10.969  17.172  0.00  0.00    +0.000 HD
ENDROOT
BRANCH   2  10
ATOM     10  C   UNL     1       0.239  11.778  19.962  0.00  0.00    +0.000 A 
ATOM     11  C   UNL     1      -0.534  12.356  21.008  0.00  0.00    +0.000 A 
ATOM     12  C   UNL     1      -0.031  13.379  21.818  0.00  0.00    +0.000 A 
ATOM     13  C   UNL     1       1.246  13.822  21.563  0.00  0.00    +0.000 A 
ATOM     14  C   UNL     1       2.007  13.283  20.554  0.00  0.00    +0.000 A 
ATOM     15  C   UNL     1       1.540  12.269  19.742  0.00  0.00    +0.000 A 
ATOM     16  O   UNL     1       3.241  13.848  20.479  0.00  0.00    +0.000 OA
ATOM     17  C   UNL     1       3.151  14.835  21.527  0.00  0.00    +0.000 C 
ATOM     18  O   UNL     1       1.902  14.795  22.247  0.00  0.00    +0.000 OA
ENDBRANCH   2  10
BRANCH   6  19
ATOM     19  C   UNL     1       2.271   8.047  19.999  0.00  0.00    +0.000 C 
BRANCH  19  20
ATOM     20  C   UNL     1       2.192   6.558  19.755  0.00  0.00    +0.000 A 
ATOM     21  C   UNL     1       1.319   5.815  20.571  0.00  0.00    +0.000 A 
ATOM     22  C   UNL     1       1.197   4.441  20.416  0.00  0.00    +0.000 A 
ATOM     23  C   UNL     1       1.964   3.783  19.463  0.00  0.00    +0.000 A 
ATOM     24  C   UNL     1       2.841   4.491  18.626  0.00  0.00    +0.000 A 
ATOM     25  C   UNL     1       3.598   3.801  17.668  0.00  0.00    +0.000 A 
ATOM     26  C   UNL     1       4.455   4.482  16.800  0.00  0.00    +0.000 A 
ATOM     27  C   UNL     1       4.553   5.860  16.878  0.00  0.00    +0.000 A 
ATOM     28  C   UNL     1       3.812   6.557  17.836  0.00  0.00    +0.000 A 
ATOM     29  C   UNL     1       2.952   5.898  18.747  0.00  0.00    +0.000 A 
ENDBRANCH  19  20
ENDBRANCH   6  19
TORSDOF 3
ENDMDL
MODEL 6
REMARK VINA RESULT:      -7.5      3.551      5.997
REMARK  Name = 
REMARK  4 active torsions:
REMARK  status: ('A' for Active; 'I' for Inactive)
REMARK    1  A    between atoms: C_1  and  C_2
REMARK    2  A    between atoms: C_2  and  C_3
REMARK    3  A    between atoms: N_15  and  C_16
REMARK    4  A    between atoms: C_16  and  C_17
REMARK                            x       y       z     vdW  Elec       q    Type
REMARK                         _______ _______ _______ _____ _____    ______ ____
ROOT
ATOM      1  C   UNL     1       1.687  11.996  19.611  0.00  0.00    +0.000 C 
ATOM      2  C   UNL     1       1.002  10.654  19.398  0.00  0.00    +0.000 C 
ATOM      3  N   UNL     1       1.103   9.813  20.571  0.00  0.00    +0.000 N 
ATOM      4  C   UNL     1       1.330   8.497  20.222  0.00  0.00    +0.000 C 
ATOM      5  O   UNL     1       1.141   7.559  20.977  0.00  0.00    +0.000 OA
ATOM      6  N   UNL     1       1.716   8.458  18.915  0.00  0.00    +0.000 N 
ATOM      7  C   UNL     1       1.738   9.727  18.399  0.00  0.00    +0.000 C 
ATOM      8  O   UNL     1       2.103  10.057  17.278  0.00  0.00    +0.000 OA
ATOM      9  H   UNL     1       0.665  10.018  21.459  0.00  0.00    +0.000 HD
ENDROOT
BRANCH   2  10
ATOM     10  C   UNL     1      -0.442  10.808  18.887  0.00  0.00    +0.000 A 
ATOM     11  C   UNL     1      -0.886   9.997  17.804  0.00  0.00    +0.000 A 
ATOM     12  C   UNL     1      -2.215  10.010  17.371  0.00  0.00    +0.000 A 
ATOM     13  C   UNL     1      -3.089  10.848  18.022  0.00  0.00    +0.000 A 
ATOM     14  C   UNL     1      -2.680  11.645  19.064  0.00  0.00    +0.000 A 
ATOM     15  C   UNL     1      -1.377  11.649  19.519  0.00  0.00    +0.000 A 
ATOM     16  O   UNL     1      -3.698  12.384  19.580  0.00  0.00    +0.000 OA
ATOM     17  C   UNL     1      -4.782  11.994  18.712  0.00  0.00    +0.000 C 
ATOM     18  O   UNL     1      -4.412  10.987  17.748  0.00  0.00    +0.000 OA
ENDBRANCH   2  10
BRANCH   6  19
ATOM     19  C   UNL     1       1.757   7.255  18.116  0.00  0.00    +0.000 C 
BRANCH  19  20
ATOM     20  C   UNL     1       3.060   6.495  18.197  0.00  0.00    +0.000 A 
ATOM     21  C   UNL     1       4.178   7.059  17.556  0.00  0.00    +0.000 A 
ATOM     22  C   UNL     1       5.409   6.417  17.577  0.00  0.00    +0.000 A 
ATOM     23  C   UNL     1       5.538   5.191  18.216  0.00  0.00    +0.000 A 
ATOM     24  C   UNL     1       4.447   4.600  18.871  0.00  0.00    +0.000 A 
ATOM     25  C   UNL     1       4.607   3.363  19.514  0.00  0.00    +0.000 A 
ATOM     26  C   UNL     1       3.548   2.766  20.202  0.00  0.00    +0.000 A 
ATOM     27  C   UNL     1       2.324   3.408  20.262  0.00  0.00    +0.000 A 
ATOM     28  C   UNL     1       2.149   4.635  19.617  0.00  0.00    +0.000 A 
ATOM     29  C   UNL     1       3.192   5.258  18.890  0.00  0.00    +0.000 A 
ENDBRANCH  19  20
ENDBRANCH   6  19
TORSDOF 3
ENDMDL
MODEL 7
REMARK VINA RESULT:      -7.4      3.462      6.364
REMARK  Name = 
REMARK  4 active torsions:
REMARK  status: ('A' for Active; 'I' for Inactive)
REMARK    1  A    between atoms: C_1  and  C_2
REMARK    2  A    between atoms: C_2  and  C_3
REMARK    3  A    between atoms: N_15  and  C_16
REMARK    4  A    between atoms: C_16  and  C_17
REMARK                            x       y       z     vdW  Elec       q    Type
REMARK                         _______ _______ _______ _____ _____    ______ ____
ROOT
ATOM      1  C   UNL     1      -1.383  10.941  19.149  0.00  0.00    +0.000 C 
ATOM      2  C   UNL     1       0.109  10.653  19.084  0.00  0.00    +0.000 C 
ATOM      3  N   UNL     1       0.487  10.094  17.804  0.00  0.00    +0.000 N 
ATOM      4  C   UNL     1       1.431   9.097  17.957  0.00  0.00    +0.000 C 
ATOM      5  O   UNL     1       2.135   8.694  17.046  0.00  0.00    +0.000 OA
ATOM      6  N   UNL     1       1.461   8.729  19.268  0.00  0.00    +0.000 N 
ATOM      7  C   UNL     1       0.560   9.474  19.981  0.00  0.00    +0.000 C 
ATOM      8  O   UNL     1       0.284   9.354  21.169  0.00  0.00    +0.000 OA
ATOM      9  H   UNL     1       0.435  10.591  16.926  0.00  0.00    +0.000 HD
ENDROOT
BRANCH   2  10
ATOM     10  C   UNL     1       0.959  11.872  19.486  0.00  0.00    +0.000 A 
ATOM     11  C   UNL     1       0.822  12.414  20.795  0.00  0.00    +0.000 A 
ATOM     12  C   UNL     1       1.644  13.447  21.255  0.00  0.00    +0.000 A 
ATOM     13  C   UNL     1       2.594  13.936  20.391  0.00  0.00    +0.000 A 
ATOM     14  C   UNL     1       2.740  13.433  19.121  0.00  0.00    +0.000 A 
ATOM     15  C   UNL     1       1.948  12.410  18.640  0.00  0.00    +0.000 A 
ATOM     16  O   UNL     1       3.744  14.042  18.436  0.00  0.00    +0.000 OA
ATOM     17  C   UNL     1       4.182  15.016  19.405  0.00  0.00    +0.000 C 
ATOM     18  O   UNL     1       3.485  14.926  20.665  0.00  0.00    +0.000 OA
ENDBRANCH   2  10
BRANCH   6  19
ATOM     19  C   UNL     1       2.512   7.936  19.865  0.00  0.00    +0.000 C 
BRANCH  19  20
ATOM     20  C   UNL     1       2.329   6.444  19.714  0.00  0.00    +0.000 A 
ATOM     21  C   UNL     1       1.426   5.811  20.588  0.00  0.00    +0.000 A 
ATOM     22  C   UNL     1       1.210   4.442  20.520  0.00  0.00    +0.000 A 
ATOM     23  C   UNL     1       1.910   3.678  19.595  0.00  0.00    +0.000 A 
ATOM     24  C   UNL     1       2.815   4.273  18.702  0.00  0.00    +0.000 A 
ATOM     25  C   UNL     1       3.504   3.478  17.775  0.00  0.00    +0.000 A 
ATOM     26  C   UNL     1       4.386   4.046  16.853  0.00  0.00    +0.000 A 
ATOM     27  C   UNL     1       4.577   5.417  16.845  0.00  0.00    +0.000 A 
ATOM     28  C   UNL     1       3.904   6.218  17.771  0.00  0.00    +0.000 A 
ATOM     29  C   UNL     1       3.022   5.675  18.736  0.00  0.00    +0.000 A 
ENDBRANCH  19  20
ENDBRANCH   6  19
TORSDOF 3
ENDMDL
MODEL 8
REMARK VINA RESULT:      -7.0      3.460      5.778
REMARK  Name = 
REMARK  4 active torsions:
REMARK  status: ('A' for Active; 'I' for Inactive)
REMARK    1  A    between atoms: C_1  and  C_2
REMARK    2  A    between atoms: C_2  and  C_3
REMARK    3  A    between atoms: N_15  and  C_16
REMARK    4  A    between atoms: C_16  and  C_17
REMARK                            x       y       z     vdW  Elec       q    Type
REMARK                         _______ _______ _______ _____ _____    ______ ____
ROOT
ATOM      1  C   UNL     1       1.712  11.793  19.876  0.00  0.00    +0.000 C 
ATOM      2  C   UNL     1       1.039  10.470  19.543  0.00  0.00    +0.000 C 
ATOM      3  N   UNL     1       1.063   9.563  20.671  0.00  0.00    +0.000 N 
ATOM      4  C   UNL     1       1.310   8.268  20.261  0.00  0.00    +0.000 C 
ATOM      5  O   UNL     1       1.071   7.289  20.948  0.00  0.00    +0.000 OA
ATOM      6  N   UNL     1       1.778   8.301  18.981  0.00  0.00    +0.000 N 
ATOM      7  C   UNL     1       1.834   9.597  18.541  0.00  0.00    +0.000 C 
ATOM      8  O   UNL     1       2.270   9.989  17.466  0.00  0.00    +0.000 OA
ATOM      9  H   UNL     1       0.571   9.719  21.539  0.00  0.00    +0.000 HD
ENDROOT
BRANCH   2  10
ATOM     10  C   UNL     1      -0.370  10.661  18.952  0.00  0.00    +0.000 A 
ATOM     11  C   UNL     1      -1.272  11.563  19.585  0.00  0.00    +0.000 A 
ATOM     12  C   UNL     1      -2.521  11.864  19.033  0.00  0.00    +0.000 A 
ATOM     13  C   UNL     1      -2.860  11.247  17.852  0.00  0.00    +0.000 A 
ATOM     14  C   UNL     1      -2.008  10.368  17.228  0.00  0.00    +0.000 A 
ATOM     15  C   UNL     1      -0.767  10.056  17.745  0.00  0.00    +0.000 A 
ATOM     16  O   UNL     1      -2.524   9.883  16.068  0.00  0.00    +0.000 OA
ATOM     17  C   UNL     1      -3.817  10.522  16.058  0.00  0.00    +0.000 C 
ATOM     18  O   UNL     1      -4.020  11.424  17.167  0.00  0.00    +0.000 OA
ENDBRANCH   2  10
BRANCH   6  19
ATOM     19  C   UNL     1       1.866   7.146  18.118  0.00  0.00    +0.000 C 
BRANCH  19  20
ATOM     20  C   UNL     1       2.862   6.104  18.569  0.00  0.00    +0.000 A 
ATOM     21  C   UNL     1       2.376   5.040  19.351  0.00  0.00    +0.000 A 
ATOM     22  C   UNL     1       3.230   4.048  19.814  0.00  0.00    +0.000 A 
ATOM     23  C   UNL     1       4.587   4.116  19.525  0.00  0.00    +0.000 A 
ATOM     24  C   UNL     1       5.109   5.158  18.743  0.00  0.00    +0.000 A 
ATOM     25  C   UNL     1       6.482   5.198  18.462  0.00  0.00    +0.000 A 
ATOM     26  C   UNL     1       7.025   6.204  17.660  0.00  0.00    +0.000 A 
ATOM     27  C   UNL     1       6.195   7.173  17.124  0.00  0.00    +0.000 A 
ATOM     28  C   UNL     1       4.826   7.150  17.406  0.00  0.00    +0.000 A 
ATOM     29  C   UNL     1       4.245   6.160  18.234  0.00  0.00    +0.000 A 
ENDBRANCH  19  20
ENDBRANCH   6  19
TORSDOF 3
ENDMDL
MODEL 9
REMARK VINA RESULT:      -7.0      3.410      6.176
REMARK  Name = 
REMARK  4 active torsions:
REMARK  status: ('A' for Active; 'I' for Inactive)
REMARK    1  A    between atoms: C_1  and  C_2
REMARK    2  A    between atoms: C_2  and  C_3
REMARK    3  A    between atoms: N_15  and  C_16
REMARK    4  A    between atoms: C_16  and  C_17
REMARK                            x       y       z     vdW  Elec       q    Type
REMARK                         _______ _______ _______ _____ _____    ______ ____
ROOT
ATOM      1  C   UNL     1      -1.191  10.564  18.976  0.00  0.00    +0.000 C 
ATOM      2  C   UNL     1       0.314  10.343  18.935  0.00  0.00    +0.000 C 
ATOM      3  N   UNL     1       0.749   9.886  17.633  0.00  0.00    +0.000 N 
ATOM      4  C   UNL     1       1.730   8.921  17.747  0.00  0.00    +0.000 C 
ATOM      5  O   UNL     1       2.475   8.608  16.834  0.00  0.00    +0.000 OA
ATOM      6  N   UNL     1       1.742   8.468  19.033  0.00  0.00    +0.000 N 
ATOM      7  C   UNL     1       0.791   9.127  19.766  0.00  0.00    +0.000 C 
ATOM      8  O   UNL     1       0.490   8.918  20.935  0.00  0.00    +0.000 OA
ATOM      9  H   UNL     1       0.698  10.437  16.788  0.00  0.00    +0.000 HD
ENDROOT
BRANCH   2  10
ATOM     10  C   UNL     1       1.100  11.568  19.439  0.00  0.00    +0.000 A 
ATOM     11  C   UNL     1       2.096  12.145  18.602  0.00  0.00    +0.000 A 
ATOM     12  C   UNL     1       2.763  13.323  18.956  0.00  0.00    +0.000 A 
ATOM     13  C   UNL     1       2.430  13.906  20.155  0.00  0.00    +0.000 A 
ATOM     14  C   UNL     1       1.477  13.362  20.981  0.00  0.00    +0.000 A 
ATOM     15  C   UNL     1       0.797  12.205  20.657  0.00  0.00    +0.000 A 
ATOM     16  O   UNL     1       1.285  14.100  22.107  0.00  0.00    +0.000 OA
ATOM     17  C   UNL     1       2.261  15.145  21.915  0.00  0.00    +0.000 C 
ATOM     18  O   UNL     1       2.962  15.052  20.657  0.00  0.00    +0.000 OA
ENDBRANCH   2  10
BRANCH   6  19
ATOM     19  C   UNL     1       2.810   7.682  19.607  0.00  0.00    +0.000 C 
BRANCH  19  20
ATOM     20  C   UNL     1       3.068   6.371  18.901  0.00  0.00    +0.000 A 
ATOM     21  C   UNL     1       4.046   6.364  17.889  0.00  0.00    +0.000 A 
ATOM     22  C   UNL     1       4.334   5.201  17.187  0.00  0.00    +0.000 A 
ATOM     23  C   UNL     1       3.634   4.035  17.466  0.00  0.00    +0.000 A 
ATOM     24  C   UNL     1       2.656   4.001  18.471  0.00  0.00    +0.000 A 
ATOM     25  C   UNL     1       1.968   2.808  18.735  0.00  0.00    +0.000 A 
ATOM     26  C   UNL     1       1.012   2.735  19.751  0.00  0.00    +0.000 A 
ATOM     27  C   UNL     1       0.746   3.856  20.519  0.00  0.00    +0.000 A 
ATOM     28  C   UNL     1       1.416   5.053  20.258  0.00  0.00    +0.000 A 
ATOM     29  C   UNL     1       2.373   5.170  19.221  0.00  0.00    +0.000 A 
ENDBRANCH  19  20
ENDBRANCH   6  19
TORSDOF 3
ENDMDL
