MODEL 1
REMARK VINA RESULT:      -8.4      0.000      0.000
REMARK  Name = 
REMARK  5 active torsions:
REMARK  status: ('A' for Active; 'I' for Inactive)
REMARK    1  A    between atoms: C_2  and  C_17
REMARK    2  A    between atoms: N_3  and  C_4
REMARK    3  A    between atoms: C_6  and  S_7
REMARK    4  A    between atoms: S_7  and  C_10
REMARK    5  A    between atoms: C_19  and  C_20
REMARK                            x       y       z     vdW  Elec       q    Type
REMARK                         _______ _______ _______ _____ _____    ______ ____
ROOT
ATOM      1  O   UNL     1       1.816   9.373  17.444  0.00  0.00    +0.000 OA
ATOM      2  C   UNL     1       1.664   9.071  18.623  0.00  0.00    +0.000 C 
ATOM      3  N   UNL     1       2.018   7.834  19.128  0.00  0.00    +0.000 N 
ATOM      4  H   UNL     1       1.853   7.660  20.115  0.00  0.00    +0.000 HD
ENDROOT
BRANCH   2   5
ATOM      5  C   UNL     1       1.047  10.047  19.566  0.00  0.00    +0.000 A 
ATOM      6  C   UNL     1       0.396   9.559  20.712  0.00  0.00    +0.000 A 
ATOM      7  C   UNL     1      -0.145  10.441  21.664  0.00  0.00    +0.000 A 
ATOM      8  C   UNL     1      -0.033  11.823  21.449  0.00  0.00    +0.000 A 
ATOM      9  C   UNL     1       0.586  12.314  20.301  0.00  0.00    +0.000 A 
ATOM     10  C   UNL     1       1.121  11.428  19.371  0.00  0.00    +0.000 A 
ATOM     11  F   UNL     1       1.719  11.944  18.285  0.00  0.00    +0.000 F 
BRANCH   7  12
ATOM     12  C   UNL     1      -0.783   9.919  22.929  0.00  0.00    +0.000 C 
ATOM     13  F   UNL     1       0.135   9.518  23.853  0.00  0.00    +0.000 F 
ATOM     14  F   UNL     1      -1.560  10.842  23.557  0.00  0.00    +0.000 F 
ENDBRANCH   7  12
ENDBRANCH   2   5
BRANCH   3  15
ATOM     15  C   UNL     1       2.560   6.765  18.264  0.00  0.00    +0.000 C 
ATOM     16  C   UNL     1       4.086   6.861  18.043  0.00  0.00    +0.000 C 
ATOM     17  C   UNL     1       4.269   5.886  19.224  0.00  0.00    +0.000 C 
ATOM     18  C   UNL     1       2.814   5.423  18.987  0.00  0.00    +0.000 C 
BRANCH  17  19
ATOM     19  S   UNL     1       5.519   4.618  19.021  0.00  0.00    +0.000 S 
ATOM     20  O   UNL     1       6.737   5.070  19.671  0.00  0.00    +0.000 OA
ATOM     21  O   UNL     1       4.963   3.324  19.380  0.00  0.00    +0.000 OA
BRANCH  19  22
ATOM     22  C   UNL     1       5.893   4.534  17.276  0.00  0.00    +0.000 A 
ATOM     23  C   UNL     1       7.105   5.054  16.815  0.00  0.00    +0.000 A 
ATOM     24  C   UNL     1       7.407   4.993  15.456  0.00  0.00    +0.000 A 
ATOM     25  C   UNL     1       6.511   4.395  14.570  0.00  0.00    +0.000 A 
ATOM     26  C   UNL     1       5.313   3.853  15.039  0.00  0.00    +0.000 A 
ATOM     27  C   UNL     1       4.998   3.919  16.396  0.00  0.00    +0.000 A 
ENDBRANCH  19  22
ENDBRANCH  17  19
ENDBRANCH   3  15
TORSDOF 5
ENDMDL
MODEL 2
REMARK VINA RESULT:      -8.2      3.755      5.439
REMARK  Name = 
REMARK  5 active torsions:
REMARK  status: ('A' for Active; 'I' for Inactive)
REMARK    1  A    between atoms: C_2  and  C_17
REMARK    2  A    between atoms: N_3  and  C_4
REMARK    3  A    between atoms: C_6  and  S_7
REMARK    4  A    between atoms: S_7  and  C_10
REMARK    5  A    between atoms: C_19  and  C_20
REMARK                            x       y       z     vdW  Elec       q    Type
REMARK                         _______ _______ _______ _____ _____    ______ ____
ROOT
ATOM      1  O   UNL     1      -0.182   9.845  19.913  0.00  0.00    +0.000 OA
ATOM      2  C   UNL     1      -0.225   9.880  18.688  0.00  0.00    +0.000 C 
ATOM      3  N   UNL     1       0.836   9.491  17.893  0.00  0.00    +0.000 N 
ATOM      4  H   UNL     1       0.723   9.557  16.885  0.00  0.00    +0.000 HD
ENDROOT
BRANCH   2   5
ATOM      5  C   UNL     1      -1.448  10.387  18.003  0.00  0.00    +0.000 A 
ATOM      6  C   UNL     1      -1.761   9.888  16.726  0.00  0.00    +0.000 A 
ATOM      7  C   UNL     1      -2.937  10.286  16.066  0.00  0.00    +0.000 A 
ATOM      8  C   UNL     1      -3.794  11.200  16.698  0.00  0.00    +0.000 A 
ATOM      9  C   UNL     1      -3.476  11.719  17.952  0.00  0.00    +0.000 A 
ATOM     10  C   UNL     1      -2.311  11.311  18.594  0.00  0.00    +0.000 A 
ATOM     11  F   UNL     1      -2.050  11.828  19.806  0.00  0.00    +0.000 F 
BRANCH   7  12
ATOM     12  C   UNL     1      -3.309   9.700  14.725  0.00  0.00    +0.000 C 
ATOM     13  F   UNL     1      -4.511  10.154  14.270  0.00  0.00    +0.000 F 
ATOM     14  F   UNL     1      -2.410   9.989  13.746  0.00  0.00    +0.000 F 
ENDBRANCH   7  12
ENDBRANCH   2   5
BRANCH   3  15
ATOM     15  C   UNL     1       2.123   9.051  18.470  0.00  0.00    +0.000 C 
ATOM     16  C   UNL     1       2.004   7.802  19.371  0.00  0.00    +0.000 C 
ATOM     17  C   UNL     1       2.357   6.941  18.139  0.00  0.00    +0.000 C 
ATOM     18  C   UNL     1       2.997   8.203  17.519  0.00  0.00    +0.000 C 
BRANCH  17  19
ATOM     19  S   UNL     1       3.478   5.573  18.422  0.00  0.00    +0.000 S 
ATOM     20  O   UNL     1       3.722   4.912  17.151  0.00  0.00    +0.000 OA
ATOM     21  O   UNL     1       4.611   6.027  19.213  0.00  0.00    +0.000 OA
BRANCH  19  22
ATOM     22  C   UNL     1       2.606   4.388  19.435  0.00  0.00    +0.000 A 
ATOM     23  C   UNL     1       2.776   4.425  20.822  0.00  0.00    +0.000 A 
ATOM     24  C   UNL     1       2.099   3.505  21.622  0.00  0.00    +0.000 A 
ATOM     25  C   UNL     1       1.242   2.572  21.039  0.00  0.00    +0.000 A 
ATOM     26  C   UNL     1       1.055   2.557  19.655  0.00  0.00    +0.000 A 
ATOM     27  C   UNL     1       1.736   3.466  18.846  0.00  0.00    +0.000 A 
ENDBRANCH  19  22
ENDBRANCH  17  19
ENDBRANCH   3  15
TORSDOF 5
ENDMDL
MODEL 3
REMARK VINA RESULT:      -8.2      2.669      3.573
REMARK  Name = 
REMARK  5 active torsions:
REMARK  status: ('A' for Active; 'I' for Inactive)
REMARK    1  A    between atoms: C_2  and  C_17
REMARK    2  A    between atoms: N_3  and  C_4
REMARK    3  A    between atoms: C_6  and  S_7
REMARK    4  A    between atoms: S_7  and  C_10
REMARK    5  A    between atoms: C_19  and  C_20
REMARK                            x       y       z     vdW  Elec       q    Type
REMARK                         _______ _______ _______ _____ _____    ______ ____
ROOT
ATOM      1  O   UNL     1       2.253   9.994  17.627  0.00  0.00    +0.000 OA
ATOM      2  C   UNL     1       1.378   9.508  18.336  0.00  0.00    +0.000 C 
ATOM      3  N   UNL     1       1.546   8.318  19.018  0.00  0.00    +0.000 N 
ATOM      4  H   UNL     1       0.769   7.979  19.579  0.00  0.00    +0.000 HD
ENDROOT
BRANCH   2   5
ATOM      5  C   UNL     1       0.059  10.193  18.462  0.00  0.00    +0.000 A 
ATOM      6  C   UNL     1      -0.918   9.958  17.479  0.00  0.00    +0.000 A 
ATOM      7  C   UNL     1      -2.199  10.529  17.587  0.00  0.00    +0.000 A 
ATOM      8  C   UNL     1      -2.486  11.348  18.690  0.00  0.00    +0.000 A 
ATOM      9  C   UNL     1      -1.512  11.606  19.653  0.00  0.00    +0.000 A 
ATOM     10  C   UNL     1      -0.252  11.029  19.535  0.00  0.00    +0.000 A 
ATOM     11  F   UNL     1       0.652  11.296  20.491  0.00  0.00    +0.000 F 
BRANCH   7  12
ATOM     12  C   UNL     1      -3.271  10.223  16.569  0.00  0.00    +0.000 C 
ATOM     13  F   UNL     1      -3.680  11.332  15.889  0.00  0.00    +0.000 F 
ATOM     14  F   UNL     1      -2.872   9.335  15.620  0.00  0.00    +0.000 F 
ENDBRANCH   7  12
ENDBRANCH   2   5
BRANCH   3  15
ATOM     15  C   UNL     1       2.781   7.517  18.897  0.00  0.00    +0.000 C 
ATOM     16  C   UNL     1       2.742   6.194  19.694  0.00  0.00    +0.000 C 
ATOM     17  C   UNL     1       2.259   5.491  18.408  0.00  0.00    +0.000 C 
ATOM     18  C   UNL     1       2.870   6.665  17.611  0.00  0.00    +0.000 C 
BRANCH  17  19
ATOM     19  S   UNL     1       2.969   3.881  18.068  0.00  0.00    +0.000 S 
ATOM     20  O   UNL     1       3.092   3.163  19.325  0.00  0.00    +0.000 OA
ATOM     21  O   UNL     1       2.258   3.259  16.963  0.00  0.00    +0.000 OA
BRANCH  19  22
ATOM     22  C   UNL     1       4.637   4.161  17.494  0.00  0.00    +0.000 A 
ATOM     23  C   UNL     1       5.635   4.462  18.426  0.00  0.00    +0.000 A 
ATOM     24  C   UNL     1       6.940   4.682  17.988  0.00  0.00    +0.000 A 
ATOM     25  C   UNL     1       7.246   4.579  16.631  0.00  0.00    +0.000 A 
ATOM     26  C   UNL     1       6.251   4.253  15.707  0.00  0.00    +0.000 A 
ATOM     27  C   UNL     1       4.941   4.042  16.135  0.00  0.00    +0.000 A 
ENDBRANCH  19  22
ENDBRANCH  17  19
ENDBRANCH   3  15
TORSDOF 5
ENDMDL
MODEL 4
REMARK VINA RESULT:      -8.2      0.342      1.153
REMARK  Name = 
REMARK  5 active torsions:
REMARK  status: ('A' for Active; 'I' for Inactive)
REMARK    1  A    between atoms: C_2  and  C_17
REMARK    2  A    between atoms: N_3  and  C_4
REMARK    3  A    between atoms: C_6  and  S_7
REMARK    4  A    between atoms: S_7  and  C_10
REMARK    5  A    between atoms: C_19  and  C_20
REMARK                            x       y       z     vdW  Elec       q    Type
REMARK                         _______ _______ _______ _____ _____    ______ ____
ROOT
ATOM      1  O   UNL     1       1.503   9.230  17.349  0.00  0.00    +0.000 OA
ATOM      2  C   UNL     1       1.581   9.059  18.561  0.00  0.00    +0.000 C 
ATOM      3  N   UNL     1       2.116   7.913  19.119  0.00  0.00    +0.000 N 
ATOM      4  H   UNL     1       2.137   7.845  20.133  0.00  0.00    +0.000 HD
ENDROOT
BRANCH   2   5
ATOM      5  C   UNL     1       1.058  10.099  19.493  0.00  0.00    +0.000 A 
ATOM      6  C   UNL     1       0.438   9.685  20.684  0.00  0.00    +0.000 A 
ATOM      7  C   UNL     1      -0.013  10.628  21.626  0.00  0.00    +0.000 A 
ATOM      8  C   UNL     1       0.157  11.994  21.353  0.00  0.00    +0.000 A 
ATOM      9  C   UNL     1       0.746  12.411  20.161  0.00  0.00    +0.000 A 
ATOM     10  C   UNL     1       1.193  11.465  19.243  0.00  0.00    +0.000 A 
ATOM     11  F   UNL     1       1.765  11.911  18.112  0.00  0.00    +0.000 F 
BRANCH   7  12
ATOM     12  C   UNL     1      -0.617  10.185  22.936  0.00  0.00    +0.000 C 
ATOM     13  F   UNL     1      -1.780  10.836  23.225  0.00  0.00    +0.000 F 
ATOM     14  F   UNL     1      -0.920   8.859  22.966  0.00  0.00    +0.000 F 
ENDBRANCH   7  12
ENDBRANCH   2   5
BRANCH   3  15
ATOM     15  C   UNL     1       2.586   6.786  18.288  0.00  0.00    +0.000 C 
ATOM     16  C   UNL     1       4.100   6.829  17.985  0.00  0.00    +0.000 C 
ATOM     17  C   UNL     1       4.320   5.912  19.207  0.00  0.00    +0.000 C 
ATOM     18  C   UNL     1       2.844   5.477  19.068  0.00  0.00    +0.000 C 
BRANCH  17  19
ATOM     19  S   UNL     1       5.527   4.602  19.009  0.00  0.00    +0.000 S 
ATOM     20  O   UNL     1       6.752   5.006  19.677  0.00  0.00    +0.000 OA
ATOM     21  O   UNL     1       4.921   3.326  19.353  0.00  0.00    +0.000 OA
BRANCH  19  22
ATOM     22  C   UNL     1       5.918   4.516  17.268  0.00  0.00    +0.000 A 
ATOM     23  C   UNL     1       4.985   3.956  16.390  0.00  0.00    +0.000 A 
ATOM     24  C   UNL     1       5.281   3.885  15.029  0.00  0.00    +0.000 A 
ATOM     25  C   UNL     1       6.489   4.390  14.551  0.00  0.00    +0.000 A 
ATOM     26  C   UNL     1       7.406   4.972  15.429  0.00  0.00    +0.000 A 
ATOM     27  C   UNL     1       7.124   5.038  16.793  0.00  0.00    +0.000 A 
ENDBRANCH  19  22
ENDBRANCH  17  19
ENDBRANCH   3  15
TORSDOF 5
ENDMDL
MODEL 5
REMARK VINA RESULT:      -8.0      2.698      3.473
REMARK  Name = 
REMARK  5 active torsions:
REMARK  status: ('A' for Active; 'I' for Inactive)
REMARK    1  A    between atoms: C_2  and  C_17
REMARK    2  A    between atoms: N_3  and  C_4
REMARK    3  A    between atoms: C_6  and  S_7
REMARK    4  A    between atoms: S_7  and  C_10
REMARK    5  A    between atoms: C_19  and  C_20
REMARK                            x       y       z     vdW  Elec       q    Type
REMARK                         _______ _______ _______ _____ _____    ______ ____
ROOT
ATOM      1  O   UNL     1       2.182   9.695  17.518  0.00  0.00    +0.000 OA
ATOM      2  C   UNL     1       1.399   9.382  18.409  0.00  0.00    +0.000 C 
ATOM      3  N   UNL     1       1.638   8.333  19.276  0.00  0.00    +0.000 N 
ATOM      4  H   UNL     1       0.936   8.133  19.983  0.00  0.00    +0.000 HD
ENDROOT
BRANCH   2   5
ATOM      5  C   UNL     1       0.118  10.127  18.567  0.00  0.00    +0.000 A 
ATOM      6  C   UNL     1      -0.865   9.996  17.571  0.00  0.00    +0.000 A 
ATOM      7  C   UNL     1      -2.115  10.626  17.704  0.00  0.00    +0.000 A 
ATOM      8  C   UNL     1      -2.365  11.401  18.848  0.00  0.00    +0.000 A 
ATOM      9  C   UNL     1      -1.384  11.558  19.826  0.00  0.00    +0.000 A 
ATOM     10  C   UNL     1      -0.155  10.922  19.681  0.00  0.00    +0.000 A 
ATOM     11  F   UNL     1       0.756  11.091  20.653  0.00  0.00    +0.000 F 
BRANCH   7  12
ATOM     12  C   UNL     1      -3.196  10.431  16.669  0.00  0.00    +0.000 C 
ATOM     13  F   UNL     1      -3.098   9.232  16.028  0.00  0.00    +0.000 F 
ATOM     14  F   UNL     1      -4.452  10.467  17.193  0.00  0.00    +0.000 F 
ENDBRANCH   7  12
ENDBRANCH   2   5
BRANCH   3  15
ATOM     15  C   UNL     1       2.836   7.477  19.156  0.00  0.00    +0.000 C 
ATOM     16  C   UNL     1       2.693   6.109  19.857  0.00  0.00    +0.000 C 
ATOM     17  C   UNL     1       2.238   5.519  18.505  0.00  0.00    +0.000 C 
ATOM     18  C   UNL     1       2.945   6.710  17.819  0.00  0.00    +0.000 C 
BRANCH  17  19
ATOM     19  S   UNL     1       2.882   3.900  18.087  0.00  0.00    +0.000 S 
ATOM     20  O   UNL     1       2.969   3.115  19.306  0.00  0.00    +0.000 OA
ATOM     21  O   UNL     1       2.152   3.364  16.950  0.00  0.00    +0.000 OA
BRANCH  19  22
ATOM     22  C   UNL     1       4.564   4.139  17.532  0.00  0.00    +0.000 A 
ATOM     23  C   UNL     1       4.844   4.067  16.165  0.00  0.00    +0.000 A 
ATOM     24  C   UNL     1       6.153   4.254  15.721  0.00  0.00    +0.000 A 
ATOM     25  C   UNL     1       7.166   4.530  16.638  0.00  0.00    +0.000 A 
ATOM     26  C   UNL     1       6.876   4.627  18.001  0.00  0.00    +0.000 A 
ATOM     27  C   UNL     1       5.572   4.432  18.455  0.00  0.00    +0.000 A 
ENDBRANCH  19  22
ENDBRANCH  17  19
ENDBRANCH   3  15
TORSDOF 5
ENDMDL
MODEL 6
REMARK VINA RESULT:      -7.8      1.563      2.219
REMARK  Name = 
REMARK  5 active torsions:
REMARK  status: ('A' for Active; 'I' for Inactive)
REMARK    1  A    between atoms: C_2  and  C_17
REMARK    2  A    between atoms: N_3  and  C_4
REMARK    3  A    between atoms: C_6  and  S_7
REMARK    4  A    between atoms: S_7  and  C_10
REMARK    5  A    between atoms: C_19  and  C_20
REMARK                            x       y       z     vdW  Elec       q    Type
REMARK                         _______ _______ _______ _____ _____    ______ ____
ROOT
ATOM      1  O   UNL     1       2.060   9.510  17.522  0.00  0.00    +0.000 OA
ATOM      2  C   UNL     1       1.616   9.006  18.549  0.00  0.00    +0.000 C 
ATOM      3  N   UNL     1       1.837   7.685  18.886  0.00  0.00    +0.000 N 
ATOM      4  H   UNL     1       1.428   7.342  19.752  0.00  0.00    +0.000 HD
ENDROOT
BRANCH   2   5
ATOM      5  C   UNL     1       0.778   9.822  19.473  0.00  0.00    +0.000 A 
ATOM      6  C   UNL     1      -0.181  10.691  18.923  0.00  0.00    +0.000 A 
ATOM      7  C   UNL     1      -1.040  11.433  19.753  0.00  0.00    +0.000 A 
ATOM      8  C   UNL     1      -0.921  11.300  21.145  0.00  0.00    +0.000 A 
ATOM      9  C   UNL     1       0.046  10.462  21.696  0.00  0.00    +0.000 A 
ATOM     10  C   UNL     1       0.885   9.730  20.861  0.00  0.00    +0.000 A 
ATOM     11  F   UNL     1       1.794   8.925  21.435  0.00  0.00    +0.000 F 
BRANCH   7  12
ATOM     12  C   UNL     1      -2.115  12.314  19.165  0.00  0.00    +0.000 C 
ATOM     13  F   UNL     1      -2.722  11.749  18.083  0.00  0.00    +0.000 F 
ATOM     14  F   UNL     1      -3.115  12.598  20.043  0.00  0.00    +0.000 F 
ENDBRANCH   7  12
ENDBRANCH   2   5
BRANCH   3  15
ATOM     15  C   UNL     1       2.583   6.767  18.002  0.00  0.00    +0.000 C 
ATOM     16  C   UNL     1       4.116   6.939  18.083  0.00  0.00    +0.000 C 
ATOM     17  C   UNL     1       4.138   5.810  19.134  0.00  0.00    +0.000 C 
ATOM     18  C   UNL     1       2.777   5.343  18.570  0.00  0.00    +0.000 C 
BRANCH  17  19
ATOM     19  S   UNL     1       5.473   4.622  18.997  0.00  0.00    +0.000 S 
ATOM     20  O   UNL     1       6.633   5.157  19.688  0.00  0.00    +0.000 OA
ATOM     21  O   UNL     1       4.985   3.299  19.352  0.00  0.00    +0.000 OA
BRANCH  19  22
ATOM     22  C   UNL     1       5.919   4.542  17.269  0.00  0.00    +0.000 A 
ATOM     23  C   UNL     1       7.110   5.141  16.847  0.00  0.00    +0.000 A 
ATOM     24  C   UNL     1       7.468   5.083  15.501  0.00  0.00    +0.000 A 
ATOM     25  C   UNL     1       6.651   4.413  14.591  0.00  0.00    +0.000 A 
ATOM     26  C   UNL     1       5.476   3.793  15.022  0.00  0.00    +0.000 A 
ATOM     27  C   UNL     1       5.105   3.854  16.365  0.00  0.00    +0.000 A 
ENDBRANCH  19  22
ENDBRANCH  17  19
ENDBRANCH   3  15
TORSDOF 5
ENDMDL
MODEL 7
REMARK VINA RESULT:      -7.8      2.725      3.780
REMARK  Name = 
REMARK  5 active torsions:
REMARK  status: ('A' for Active; 'I' for Inactive)
REMARK    1  A    between atoms: C_2  and  C_17
REMARK    2  A    between atoms: N_3  and  C_4
REMARK    3  A    between atoms: C_6  and  S_7
REMARK    4  A    between atoms: S_7  and  C_10
REMARK    5  A    between atoms: C_19  and  C_20
REMARK                            x       y       z     vdW  Elec       q    Type
REMARK                         _______ _______ _______ _____ _____    ______ ____
ROOT
ATOM      1  O   UNL     1       1.222   9.281  20.466  0.00  0.00    +0.000 OA
ATOM      2  C   UNL     1       0.925   9.360  19.279  0.00  0.00    +0.000 C 
ATOM      3  N   UNL     1       1.600   8.665  18.294  0.00  0.00    +0.000 N 
ATOM      4  H   UNL     1       1.297   8.791  17.332  0.00  0.00    +0.000 HD
ENDROOT
BRANCH   2   5
ATOM      5  C   UNL     1      -0.185  10.258  18.850  0.00  0.00    +0.000 A 
ATOM      6  C   UNL     1      -0.938   9.904  17.717  0.00  0.00    +0.000 A 
ATOM      7  C   UNL     1      -2.035  10.683  17.310  0.00  0.00    +0.000 A 
ATOM      8  C   UNL     1      -2.365  11.830  18.049  0.00  0.00    +0.000 A 
ATOM      9  C   UNL     1      -1.606  12.201  19.157  0.00  0.00    +0.000 A 
ATOM     10  C   UNL     1      -0.526  11.416  19.550  0.00  0.00    +0.000 A 
ATOM     11  F   UNL     1       0.171  11.805  20.631  0.00  0.00    +0.000 F 
BRANCH   7  12
ATOM     12  C   UNL     1      -2.886  10.268  16.134  0.00  0.00    +0.000 C 
ATOM     13  F   UNL     1      -2.996  11.249  15.194  0.00  0.00    +0.000 F 
ATOM     14  F   UNL     1      -2.400   9.180  15.478  0.00  0.00    +0.000 F 
ENDBRANCH   7  12
ENDBRANCH   2   5
BRANCH   3  15
ATOM     15  C   UNL     1       2.768   7.813  18.600  0.00  0.00    +0.000 C 
ATOM     16  C   UNL     1       2.414   6.545  19.407  0.00  0.00    +0.000 C 
ATOM     17  C   UNL     1       2.312   5.781  18.070  0.00  0.00    +0.000 C 
ATOM     18  C   UNL     1       3.202   6.880  17.447  0.00  0.00    +0.000 C 
BRANCH  17  19
ATOM     19  S   UNL     1       3.004   4.128  18.044  0.00  0.00    +0.000 S 
ATOM     20  O   UNL     1       3.063   3.637  19.410  0.00  0.00    +0.000 OA
ATOM     21  O   UNL     1       2.325   3.332  17.034  0.00  0.00    +0.000 OA
BRANCH  19  22
ATOM     22  C   UNL     1       4.698   4.284  17.500  0.00  0.00    +0.000 A 
ATOM     23  C   UNL     1       4.996   4.107  16.146  0.00  0.00    +0.000 A 
ATOM     24  C   UNL     1       6.315   4.228  15.712  0.00  0.00    +0.000 A 
ATOM     25  C   UNL     1       7.323   4.544  16.623  0.00  0.00    +0.000 A 
ATOM     26  C   UNL     1       7.016   4.746  17.970  0.00  0.00    +0.000 A 
ATOM     27  C   UNL     1       5.701   4.618  18.416  0.00  0.00    +0.000 A 
ENDBRANCH  19  22
ENDBRANCH  17  19
ENDBRANCH   3  15
TORSDOF 5
ENDMDL
MODEL 8
REMARK VINA RESULT:      -7.7      4.290      8.360
REMARK  Name = 
REMARK  5 active torsions:
REMARK  status: ('A' for Active; 'I' for Inactive)
REMARK    1  A    between atoms: C_2  and  C_17
REMARK    2  A    between atoms: N_3  and  C_4
REMARK    3  A    between atoms: C_6  and  S_7
REMARK    4  A    between atoms: S_7  and  C_10
REMARK    5  A    between atoms: C_19  and  C_20
REMARK                            x       y       z     vdW  Elec       q    Type
REMARK                         _______ _______ _______ _____ _____    ______ ____
ROOT
ATOM      1  O   UNL     1       4.536   6.753  17.866  0.00  0.00    +0.000 OA
ATOM      2  C   UNL     1       3.451   6.282  18.191  0.00  0.00    +0.000 C 
ATOM      3  N   UNL     1       2.347   7.069  18.461  0.00  0.00    +0.000 N 
ATOM      4  H   UNL     1       1.487   6.601  18.731  0.00  0.00    +0.000 HD
ENDROOT
BRANCH   2   5
ATOM      5  C   UNL     1       3.297   4.807  18.338  0.00  0.00    +0.000 A 
ATOM      6  C   UNL     1       2.722   4.303  19.518  0.00  0.00    +0.000 A 
ATOM      7  C   UNL     1       2.496   2.925  19.678  0.00  0.00    +0.000 A 
ATOM      8  C   UNL     1       2.861   2.053  18.641  0.00  0.00    +0.000 A 
ATOM      9  C   UNL     1       3.457   2.543  17.480  0.00  0.00    +0.000 A 
ATOM     10  C   UNL     1       3.668   3.910  17.335  0.00  0.00    +0.000 A 
ATOM     11  F   UNL     1       4.234   4.340  16.195  0.00  0.00    +0.000 F 
BRANCH   7  12
ATOM     12  C   UNL     1       1.817   2.389  20.915  0.00  0.00    +0.000 C 
ATOM     13  F   UNL     1       2.642   2.372  22.001  0.00  0.00    +0.000 F 
ATOM     14  F   UNL     1       0.731   3.119  21.289  0.00  0.00    +0.000 F 
ENDBRANCH   7  12
ENDBRANCH   2   5
BRANCH   3  15
ATOM     15  C   UNL     1       2.413   8.544  18.427  0.00  0.00    +0.000 C 
ATOM     16  C   UNL     1       1.284   9.195  17.599  0.00  0.00    +0.000 C 
ATOM     17  C   UNL     1       0.478   9.345  18.907  0.00  0.00    +0.000 C 
ATOM     18  C   UNL     1       1.818   9.243  19.670  0.00  0.00    +0.000 C 
BRANCH  17  19
ATOM     19  S   UNL     1      -0.410  10.886  19.121  0.00  0.00    +0.000 S 
ATOM     20  O   UNL     1      -0.904  10.943  20.486  0.00  0.00    +0.000 OA
ATOM     21  O   UNL     1       0.393  11.986  18.612  0.00  0.00    +0.000 OA
BRANCH  19  22
ATOM     22  C   UNL     1      -1.857  10.800  18.076  0.00  0.00    +0.000 A 
ATOM     23  C   UNL     1      -2.942  11.638  18.348  0.00  0.00    +0.000 A 
ATOM     24  C   UNL     1      -4.075  11.580  17.538  0.00  0.00    +0.000 A 
ATOM     25  C   UNL     1      -4.111  10.705  16.453  0.00  0.00    +0.000 A 
ATOM     26  C   UNL     1      -3.014   9.888  16.170  0.00  0.00    +0.000 A 
ATOM     27  C   UNL     1      -1.880   9.933  16.981  0.00  0.00    +0.000 A 
ENDBRANCH  19  22
ENDBRANCH  17  19
ENDBRANCH   3  15
TORSDOF 5
ENDMDL
MODEL 9
REMARK VINA RESULT:      -7.7      2.428      3.182
REMARK  Name = 
REMARK  5 active torsions:
REMARK  status: ('A' for Active; 'I' for Inactive)
REMARK    1  A    between atoms: C_2  and  C_17
REMARK    2  A    between atoms: N_3  and  C_4
REMARK    3  A    between atoms: C_6  and  S_7
REMARK    4  A    between atoms: S_7  and  C_10
REMARK    5  A    between atoms: C_19  and  C_20
REMARK                            x       y       z     vdW  Elec       q    Type
REMARK                         _______ _______ _______ _____ _____    ______ ____
ROOT
ATOM      1  O   UNL     1       1.077   8.845  21.329  0.00  0.00    +0.000 OA
ATOM      2  C   UNL     1       1.038   9.021  20.116  0.00  0.00    +0.000 C 
ATOM      3  N   UNL     1       1.717   8.213  19.224  0.00  0.00    +0.000 N 
ATOM      4  H   UNL     1       1.639   8.430  18.234  0.00  0.00    +0.000 HD
ENDROOT
BRANCH   2   5
ATOM      5  C   UNL     1       0.258  10.160  19.556  0.00  0.00    +0.000 A 
ATOM      6  C   UNL     1      -0.719   9.894  18.581  0.00  0.00    +0.000 A 
ATOM      7  C   UNL     1      -1.526  10.925  18.069  0.00  0.00    +0.000 A 
ATOM      8  C   UNL     1      -1.334  12.234  18.540  0.00  0.00    +0.000 A 
ATOM      9  C   UNL     1      -0.349  12.509  19.485  0.00  0.00    +0.000 A 
ATOM     10  C   UNL     1       0.437  11.476  19.987  0.00  0.00    +0.000 A 
ATOM     11  F   UNL     1       1.367  11.785  20.905  0.00  0.00    +0.000 F 
BRANCH   7  12
ATOM     12  C   UNL     1      -2.622  10.630  17.073  0.00  0.00    +0.000 C 
ATOM     13  F   UNL     1      -2.202   9.828  16.054  0.00  0.00    +0.000 F 
ATOM     14  F   UNL     1      -3.691   9.996  17.626  0.00  0.00    +0.000 F 
ENDBRANCH   7  12
ENDBRANCH   2   5
BRANCH   3  15
ATOM     15  C   UNL     1       2.586   7.107  19.677  0.00  0.00    +0.000 C 
ATOM     16  C   UNL     1       1.931   5.714  19.552  0.00  0.00    +0.000 C 
ATOM     17  C   UNL     1       2.610   5.573  18.173  0.00  0.00    +0.000 C 
ATOM     18  C   UNL     1       3.627   6.641  18.635  0.00  0.00    +0.000 C 
BRANCH  17  19
ATOM     19  S   UNL     1       3.306   3.966  17.792  0.00  0.00    +0.000 S 
ATOM     20  O   UNL     1       3.702   3.332  19.038  0.00  0.00    +0.000 OA
ATOM     21  O   UNL     1       2.419   3.254  16.886  0.00  0.00    +0.000 OA
BRANCH  19  22
ATOM     22  C   UNL     1       4.817   4.257  16.884  0.00  0.00    +0.000 A 
ATOM     23  C   UNL     1       6.024   4.340  17.584  0.00  0.00    +0.000 A 
ATOM     24  C   UNL     1       7.209   4.566  16.885  0.00  0.00    +0.000 A 
ATOM     25  C   UNL     1       7.187   4.687  15.496  0.00  0.00    +0.000 A 
ATOM     26  C   UNL     1       5.981   4.577  14.799  0.00  0.00    +0.000 A 
ATOM     27  C   UNL     1       4.790   4.361  15.491  0.00  0.00    +0.000 A 
ENDBRANCH  19  22
ENDBRANCH  17  19
ENDBRANCH   3  15
TORSDOF 5
ENDMDL
