MODEL 1
REMARK VINA RESULT:      -8.4      0.000      0.000
REMARK  Name = 
REMARK  6 active torsions:
REMARK  status: ('A' for Active; 'I' for Inactive)
REMARK    1  A    between atoms: C_1  and  N_2
REMARK    2  A    between atoms: C_6  and  C_7
REMARK    3  A    between atoms: C_7  and  C_8
REMARK    4  A    between atoms: C_12  and  N_13
REMARK    5  A    between atoms: C_18  and  C_19
REMARK    6  A    between atoms: C_22  and  N_23
REMARK                            x       y       z     vdW  Elec       q    Type
REMARK                         _______ _______ _______ _____ _____    ______ ____
ROOT
ATOM      1  N   UNL     1       3.707   4.653  19.286  0.00  0.00    +0.000 N 
ATOM      2  C   UNL     1       5.063   5.200  19.510  0.00  0.00    +0.000 C 
ATOM      3  C   UNL     1       5.679   5.069  18.150  0.00  0.00    +0.000 A 
ATOM      4  C   UNL     1       5.068   3.977  17.528  0.00  0.00    +0.000 A 
ATOM      5  C   UNL     1       5.301   3.640  16.198  0.00  0.00    +0.000 A 
ATOM      6  C   UNL     1       6.161   4.464  15.466  0.00  0.00    +0.000 A 
ATOM      7  C   UNL     1       6.736   5.601  16.086  0.00  0.00    +0.000 A 
ATOM      8  C   UNL     1       6.505   5.934  17.440  0.00  0.00    +0.000 A 
ATOM      9  C   UNL     1       3.876   3.616  18.330  0.00  0.00    +0.000 C 
ATOM     10  O   UNL     1       3.106   2.714  18.030  0.00  0.00    +0.000 OA
ENDROOT
BRANCH   1  15
ATOM     11  C   UNL     1       1.777   7.680  19.929  0.00  0.00    +0.000 A 
ATOM     12  C   UNL     1       2.364   8.465  18.929  0.00  0.00    +0.000 A 
ATOM     13  C   UNL     1       2.962   7.865  17.826  0.00  0.00    +0.000 A 
ATOM     14  C   UNL     1       3.089   6.485  17.767  0.00  0.00    +0.000 A 
ATOM     15  C   UNL     1       2.792   5.731  18.906  0.00  0.00    +0.000 A 
ATOM     16  C   UNL     1       1.988   6.293  19.907  0.00  0.00    +0.000 A 
BRANCH  11  17
ATOM     17  C   UNL     1       0.956   8.326  21.020  0.00  0.00    +0.000 C 
BRANCH  17  23
ATOM     18  C   UNL     1      -0.930   9.993  19.121  0.00  0.00    +0.000 C 
ATOM     19  N   UNL     1      -0.030  10.503  20.118  0.00  0.00    +0.000 N 
ATOM     20  C   UNL     1       0.102  11.815  20.457  0.00  0.00    +0.000 A 
ATOM     21  N   UNL     1       1.005  11.936  21.400  0.00  0.00    +0.000 NA
ATOM     22  N   UNL     1       1.468  10.677  21.696  0.00  0.00    +0.000 NA
ATOM     23  C   UNL     1       0.833   9.809  20.930  0.00  0.00    +0.000 A 
ENDBRANCH  17  23
ENDBRANCH  11  17
ENDBRANCH   1  15
BRANCH   8  24
ATOM     24  N   UNL     1       6.943   7.169  17.980  0.00  0.00    +0.000 N 
ATOM     25  F   UNL     1       7.267   7.990  16.844  0.00  0.00    +0.000 F 
ATOM     26  F   UNL     1       8.048   6.828  18.834  0.00  0.00    +0.000 F 
ENDBRANCH   8  24
BRANCH   6  27
ATOM     27  C   UNL     1       6.389   4.194  14.001  0.00  0.00    +0.000 C 
ATOM     28  F   UNL     1       5.238   3.951  13.311  0.00  0.00    +0.000 F 
ENDBRANCH   6  27
TORSDOF 5
ENDMDL
MODEL 2
REMARK VINA RESULT:      -8.3      0.812      1.149
REMARK  Name = 
REMARK  6 active torsions:
REMARK  status: ('A' for Active; 'I' for Inactive)
REMARK    1  A    between atoms: C_1  and  N_2
REMARK    2  A    between atoms: C_6  and  C_7
REMARK    3  A    between atoms: C_7  and  C_8
REMARK    4  A    between atoms: C_12  and  N_13
REMARK    5  A    between atoms: C_18  and  C_19
REMARK    6  A    between atoms: C_22  and  N_23
REMARK                            x       y       z     vdW  Elec       q    Type
REMARK                         _______ _______ _______ _____ _____    ______ ____
ROOT
ATOM      1  N   UNL     1       3.651   4.268  19.205  0.00  0.00    +0.000 N 
ATOM      2  C   UNL     1       5.008   4.782  19.488  0.00  0.00    +0.000 C 
ATOM      3  C   UNL     1       5.634   4.770  18.125  0.00  0.00    +0.000 A 
ATOM      4  C   UNL     1       5.019   3.744  17.403  0.00  0.00    +0.000 A 
ATOM      5  C   UNL     1       5.259   3.528  16.049  0.00  0.00    +0.000 A 
ATOM      6  C   UNL     1       6.131   4.409  15.401  0.00  0.00    +0.000 A 
ATOM      7  C   UNL     1       6.709   5.481  16.126  0.00  0.00    +0.000 A 
ATOM      8  C   UNL     1       6.471   5.690  17.503  0.00  0.00    +0.000 A 
ATOM      9  C   UNL     1       3.819   3.321  18.160  0.00  0.00    +0.000 C 
ATOM     10  O   UNL     1       3.044   2.456  17.774  0.00  0.00    +0.000 OA
ENDROOT
BRANCH   1  15
ATOM     11  C   UNL     1       2.014   7.433  19.987  0.00  0.00    +0.000 A 
ATOM     12  C   UNL     1       2.475   8.137  18.868  0.00  0.00    +0.000 A 
ATOM     13  C   UNL     1       2.854   7.455  17.716  0.00  0.00    +0.000 A 
ATOM     14  C   UNL     1       2.896   6.068  17.710  0.00  0.00    +0.000 A 
ATOM     15  C   UNL     1       2.745   5.384  18.920  0.00  0.00    +0.000 A 
ATOM     16  C   UNL     1       2.145   6.036  20.004  0.00  0.00    +0.000 A 
BRANCH  11  17
ATOM     17  C   UNL     1       1.416   8.174  21.159  0.00  0.00    +0.000 C 
BRANCH  17  23
ATOM     18  C   UNL     1      -0.383   9.881  23.107  0.00  0.00    +0.000 C 
ATOM     19  N   UNL     1      -0.262  10.027  21.683  0.00  0.00    +0.000 N 
ATOM     20  C   UNL     1      -0.867  10.995  20.941  0.00  0.00    +0.000 A 
ATOM     21  N   UNL     1      -0.547  10.845  19.679  0.00  0.00    +0.000 NA
ATOM     22  N   UNL     1       0.294   9.763  19.590  0.00  0.00    +0.000 NA
ATOM     23  C   UNL     1       0.477   9.276  20.803  0.00  0.00    +0.000 A 
ENDBRANCH  17  23
ENDBRANCH  11  17
ENDBRANCH   1  15
BRANCH   8  24
ATOM     24  N   UNL     1       6.913   6.867  18.156  0.00  0.00    +0.000 N 
ATOM     25  F   UNL     1       6.898   7.894  17.148  0.00  0.00    +0.000 F 
ATOM     26  F   UNL     1       8.209   6.534  18.682  0.00  0.00    +0.000 F 
ENDBRANCH   8  24
BRANCH   6  27
ATOM     27  C   UNL     1       6.368   4.272  13.919  0.00  0.00    +0.000 C 
ATOM     28  F   UNL     1       5.250   3.915  13.224  0.00  0.00    +0.000 F 
ENDBRANCH   6  27
TORSDOF 5
ENDMDL
MODEL 3
REMARK VINA RESULT:      -7.8      0.695      1.210
REMARK  Name = 
REMARK  6 active torsions:
REMARK  status: ('A' for Active; 'I' for Inactive)
REMARK    1  A    between atoms: C_1  and  N_2
REMARK    2  A    between atoms: C_6  and  C_7
REMARK    3  A    between atoms: C_7  and  C_8
REMARK    4  A    between atoms: C_12  and  N_13
REMARK    5  A    between atoms: C_18  and  C_19
REMARK    6  A    between atoms: C_22  and  N_23
REMARK                            x       y       z     vdW  Elec       q    Type
REMARK                         _______ _______ _______ _____ _____    ______ ____
ROOT
ATOM      1  N   UNL     1       3.504   4.776  19.145  0.00  0.00    +0.000 N 
ATOM      2  C   UNL     1       4.874   5.238  19.455  0.00  0.00    +0.000 C 
ATOM      3  C   UNL     1       5.564   5.070  18.134  0.00  0.00    +0.000 A 
ATOM      4  C   UNL     1       4.925   4.019  17.470  0.00  0.00    +0.000 A 
ATOM      5  C   UNL     1       5.218   3.671  16.155  0.00  0.00    +0.000 A 
ATOM      6  C   UNL     1       6.171   4.440  15.482  0.00  0.00    +0.000 A 
ATOM      7  C   UNL     1       6.777   5.539  16.142  0.00  0.00    +0.000 A 
ATOM      8  C   UNL     1       6.485   5.883  17.481  0.00  0.00    +0.000 A 
ATOM      9  C   UNL     1       3.666   3.733  18.195  0.00  0.00    +0.000 C 
ATOM     10  O   UNL     1       2.861   2.881  17.844  0.00  0.00    +0.000 OA
ENDROOT
BRANCH   1  15
ATOM     11  C   UNL     1       1.945   8.042  19.602  0.00  0.00    +0.000 A 
ATOM     12  C   UNL     1       2.544   8.666  18.500  0.00  0.00    +0.000 A 
ATOM     13  C   UNL     1       3.001   7.908  17.427  0.00  0.00    +0.000 A 
ATOM     14  C   UNL     1       2.981   6.523  17.494  0.00  0.00    +0.000 A 
ATOM     15  C   UNL     1       2.682   5.911  18.715  0.00  0.00    +0.000 A 
ATOM     16  C   UNL     1       2.009   6.645  19.701  0.00  0.00    +0.000 A 
BRANCH  11  17
ATOM     17  C   UNL     1       1.270   8.869  20.670  0.00  0.00    +0.000 C 
BRANCH  17  23
ATOM     18  C   UNL     1       1.597  12.006  20.720  0.00  0.00    +0.000 C 
ATOM     19  N   UNL     1       0.503  11.254  20.170  0.00  0.00    +0.000 N 
ATOM     20  C   UNL     1      -0.558  11.788  19.506  0.00  0.00    +0.000 A 
ATOM     21  N   UNL     1      -1.372  10.829  19.135  0.00  0.00    +0.000 NA
ATOM     22  N   UNL     1      -0.831   9.639  19.556  0.00  0.00    +0.000 NA
ATOM     23  C   UNL     1       0.310   9.894  20.170  0.00  0.00    +0.000 A 
ENDBRANCH  17  23
ENDBRANCH  11  17
ENDBRANCH   1  15
BRANCH   8  24
ATOM     24  N   UNL     1       6.964   7.087  18.053  0.00  0.00    +0.000 N 
ATOM     25  F   UNL     1       7.199   7.972  16.944  0.00  0.00    +0.000 F 
ATOM     26  F   UNL     1       8.132   6.703  18.798  0.00  0.00    +0.000 F 
ENDBRANCH   8  24
BRANCH   6  27
ATOM     27  C   UNL     1       6.472   4.159  14.033  0.00  0.00    +0.000 C 
ATOM     28  F   UNL     1       5.371   3.805  13.311  0.00  0.00    +0.000 F 
ENDBRANCH   6  27
TORSDOF 5
ENDMDL
MODEL 4
REMARK VINA RESULT:      -7.7      6.706      9.405
REMARK  Name = 
REMARK  6 active torsions:
REMARK  status: ('A' for Active; 'I' for Inactive)
REMARK    1  A    between atoms: C_1  and  N_2
REMARK    2  A    between atoms: C_6  and  C_7
REMARK    3  A    between atoms: C_7  and  C_8
REMARK    4  A    between atoms: C_12  and  N_13
REMARK    5  A    between atoms: C_18  and  C_19
REMARK    6  A    between atoms: C_22  and  N_23
REMARK                            x       y       z     vdW  Elec       q    Type
REMARK                         _______ _______ _______ _____ _____    ______ ____
ROOT
ATOM      1  N   UNL     1      -0.351  11.429  18.254  0.00  0.00    +0.000 N 
ATOM      2  C   UNL     1       0.467  10.577  19.144  0.00  0.00    +0.000 C 
ATOM      3  C   UNL     1       0.060  11.067  20.502  0.00  0.00    +0.000 A 
ATOM      4  C   UNL     1      -0.302  12.409  20.360  0.00  0.00    +0.000 A 
ATOM      5  C   UNL     1      -0.860  13.153  21.396  0.00  0.00    +0.000 A 
ATOM      6  C   UNL     1      -1.088  12.497  22.609  0.00  0.00    +0.000 A 
ATOM      7  C   UNL     1      -0.768  11.121  22.731  0.00  0.00    +0.000 A 
ATOM      8  C   UNL     1      -0.192  10.372  21.680  0.00  0.00    +0.000 A 
ATOM      9  C   UNL     1      -0.434  12.686  18.911  0.00  0.00    +0.000 C 
ATOM     10  O   UNL     1      -0.772  13.769  18.455  0.00  0.00    +0.000 OA
ENDROOT
BRANCH   1  15
ATOM     11  C   UNL     1      -3.912  11.402  17.464  0.00  0.00    +0.000 A 
ATOM     12  C   UNL     1      -3.810  10.675  16.271  0.00  0.00    +0.000 A 
ATOM     13  C   UNL     1      -2.722   9.838  16.050  0.00  0.00    +0.000 A 
ATOM     14  C   UNL     1      -1.669   9.811  16.953  0.00  0.00    +0.000 A 
ATOM     15  C   UNL     1      -1.628  10.769  17.970  0.00  0.00    +0.000 A 
ATOM     16  C   UNL     1      -2.807  11.439  18.326  0.00  0.00    +0.000 A 
BRANCH  11  17
ATOM     17  C   UNL     1      -5.182  12.152  17.792  0.00  0.00    +0.000 C 
BRANCH  17  23
ATOM     18  C   UNL     1      -5.664  13.411  20.643  0.00  0.00    +0.000 C 
ATOM     19  N   UNL     1      -6.205  12.181  20.133  0.00  0.00    +0.000 N 
ATOM     20  C   UNL     1      -7.089  11.382  20.790  0.00  0.00    +0.000 A 
ATOM     21  N   UNL     1      -7.381  10.343  20.045  0.00  0.00    +0.000 NA
ATOM     22  N   UNL     1      -6.683  10.468  18.868  0.00  0.00    +0.000 NA
ATOM     23  C   UNL     1      -5.982  11.585  18.915  0.00  0.00    +0.000 A 
ENDBRANCH  17  23
ENDBRANCH  11  17
ENDBRANCH   1  15
BRANCH   8  24
ATOM     24  N   UNL     1      -0.054   8.965  21.768  0.00  0.00    +0.000 N 
ATOM     25  F   UNL     1      -1.015   8.546  22.754  0.00  0.00    +0.000 F 
ATOM     26  F   UNL     1       1.324   8.750  22.115  0.00  0.00    +0.000 F 
ENDBRANCH   8  24
BRANCH   6  27
ATOM     27  C   UNL     1      -1.761  13.228  23.740  0.00  0.00    +0.000 C 
ATOM     28  F   UNL     1      -1.030  14.277  24.217  0.00  0.00    +0.000 F 
ENDBRANCH   6  27
TORSDOF 5
ENDMDL
MODEL 5
REMARK VINA RESULT:      -7.6      1.354      1.744
REMARK  Name = 
REMARK  6 active torsions:
REMARK  status: ('A' for Active; 'I' for Inactive)
REMARK    1  A    between atoms: C_1  and  N_2
REMARK    2  A    between atoms: C_6  and  C_7
REMARK    3  A    between atoms: C_7  and  C_8
REMARK    4  A    between atoms: C_12  and  N_13
REMARK    5  A    between atoms: C_18  and  C_19
REMARK    6  A    between atoms: C_22  and  N_23
REMARK                            x       y       z     vdW  Elec       q    Type
REMARK                         _______ _______ _______ _____ _____    ______ ____
ROOT
ATOM      1  N   UNL     1       2.752   3.653  19.040  0.00  0.00    +0.000 N 
ATOM      2  C   UNL     1       4.090   3.795  19.653  0.00  0.00    +0.000 C 
ATOM      3  C   UNL     1       4.975   3.894  18.447  0.00  0.00    +0.000 A 
ATOM      4  C   UNL     1       4.351   3.178  17.422  0.00  0.00    +0.000 A 
ATOM      5  C   UNL     1       4.826   3.165  16.114  0.00  0.00    +0.000 A 
ATOM      6  C   UNL     1       5.959   3.935  15.834  0.00  0.00    +0.000 A 
ATOM      7  C   UNL     1       6.557   4.702  16.865  0.00  0.00    +0.000 A 
ATOM      8  C   UNL     1       6.077   4.704  18.194  0.00  0.00    +0.000 A 
ATOM      9  C   UNL     1       2.961   2.900  17.854  0.00  0.00    +0.000 C 
ATOM     10  O   UNL     1       2.142   2.312  17.162  0.00  0.00    +0.000 OA
ENDROOT
BRANCH   1  15
ATOM     11  C   UNL     1       1.995   7.071  20.066  0.00  0.00    +0.000 A 
ATOM     12  C   UNL     1       2.571   7.706  18.958  0.00  0.00    +0.000 A 
ATOM     13  C   UNL     1       2.718   7.023  17.756  0.00  0.00    +0.000 A 
ATOM     14  C   UNL     1       2.411   5.673  17.679  0.00  0.00    +0.000 A 
ATOM     15  C   UNL     1       2.144   4.974  18.860  0.00  0.00    +0.000 A 
ATOM     16  C   UNL     1       1.772   5.687  20.007  0.00  0.00    +0.000 A 
BRANCH  11  17
ATOM     17  C   UNL     1       1.651   7.864  21.305  0.00  0.00    +0.000 C 
BRANCH  17  23
ATOM     18  C   UNL     1       0.043   9.478  23.485  0.00  0.00    +0.000 C 
ATOM     19  N   UNL     1       0.065   9.715  22.068  0.00  0.00    +0.000 N 
ATOM     20  C   UNL     1      -0.566  10.742  21.436  0.00  0.00    +0.000 A 
ATOM     21  N   UNL     1      -0.342  10.668  20.146  0.00  0.00    +0.000 NA
ATOM     22  N   UNL     1       0.462   9.576  19.926  0.00  0.00    +0.000 NA
ATOM     23  C   UNL     1       0.719   9.007  21.089  0.00  0.00    +0.000 A 
ENDBRANCH  17  23
ENDBRANCH  11  17
ENDBRANCH   1  15
BRANCH   8  24
ATOM     24  N   UNL     1       6.578   5.616  19.156  0.00  0.00    +0.000 N 
ATOM     25  F   UNL     1       5.423   6.300  19.674  0.00  0.00    +0.000 F 
ATOM     26  F   UNL     1       7.513   6.436  18.436  0.00  0.00    +0.000 F 
ENDBRANCH   8  24
BRANCH   6  27
ATOM     27  C   UNL     1       6.473   4.022  14.420  0.00  0.00    +0.000 C 
ATOM     28  F   UNL     1       7.398   5.007  14.241  0.00  0.00    +0.000 F 
ENDBRANCH   6  27
TORSDOF 5
ENDMDL
MODEL 6
REMARK VINA RESULT:      -7.5      6.088      8.886
REMARK  Name = 
REMARK  6 active torsions:
REMARK  status: ('A' for Active; 'I' for Inactive)
REMARK    1  A    between atoms: C_1  and  N_2
REMARK    2  A    between atoms: C_6  and  C_7
REMARK    3  A    between atoms: C_7  and  C_8
REMARK    4  A    between atoms: C_12  and  N_13
REMARK    5  A    between atoms: C_18  and  C_19
REMARK    6  A    between atoms: C_22  and  N_23
REMARK                            x       y       z     vdW  Elec       q    Type
REMARK                         _______ _______ _______ _____ _____    ______ ____
ROOT
ATOM      1  N   UNL     1      -1.899  12.672  18.919  0.00  0.00    +0.000 N 
ATOM      2  C   UNL     1      -0.511  12.522  18.431  0.00  0.00    +0.000 C 
ATOM      3  C   UNL     1       0.084  11.609  19.461  0.00  0.00    +0.000 A 
ATOM      4  C   UNL     1      -0.598  11.845  20.658  0.00  0.00    +0.000 A 
ATOM      5  C   UNL     1      -0.399  11.078  21.802  0.00  0.00    +0.000 A 
ATOM      6  C   UNL     1       0.502  10.013  21.714  0.00  0.00    +0.000 A 
ATOM      7  C   UNL     1       1.151   9.745  20.482  0.00  0.00    +0.000 A 
ATOM      8  C   UNL     1       0.953  10.533  19.326  0.00  0.00    +0.000 A 
ATOM      9  C   UNL     1      -1.802  12.646  20.336  0.00  0.00    +0.000 C 
ATOM     10  O   UNL     1      -2.628  12.992  21.169  0.00  0.00    +0.000 OA
ENDROOT
BRANCH   1  15
ATOM     11  C   UNL     1      -5.086  11.349  17.739  0.00  0.00    +0.000 A 
ATOM     12  C   UNL     1      -4.693  11.131  16.413  0.00  0.00    +0.000 A 
ATOM     13  C   UNL     1      -3.349  10.953  16.100  0.00  0.00    +0.000 A 
ATOM     14  C   UNL     1      -2.379  11.115  17.078  0.00  0.00    +0.000 A 
ATOM     15  C   UNL     1      -2.752  11.644  18.317  0.00  0.00    +0.000 A 
ATOM     16  C   UNL     1      -4.098  11.600  18.702  0.00  0.00    +0.000 A 
BRANCH  11  17
ATOM     17  C   UNL     1      -6.551  11.341  18.110  0.00  0.00    +0.000 C 
BRANCH  17  23
ATOM     18  C   UNL     1      -6.853  13.985  19.802  0.00  0.00    +0.000 C 
ATOM     19  N   UNL     1      -7.005  12.634  20.266  0.00  0.00    +0.000 N 
ATOM     20  C   UNL     1      -7.381  12.275  21.524  0.00  0.00    +0.000 A 
ATOM     21  N   UNL     1      -7.425  10.967  21.613  0.00  0.00    +0.000 NA
ATOM     22  N   UNL     1      -7.080  10.456  20.386  0.00  0.00    +0.000 NA
ATOM     23  C   UNL     1      -6.839  11.463  19.567  0.00  0.00    +0.000 A 
ENDBRANCH  17  23
ENDBRANCH  11  17
ENDBRANCH   1  15
BRANCH   8  24
ATOM     24  N   UNL     1       1.470  10.135  18.068  0.00  0.00    +0.000 N 
ATOM     25  F   UNL     1       1.920   8.781  18.248  0.00  0.00    +0.000 F 
ATOM     26  F   UNL     1       2.497  11.096  17.770  0.00  0.00    +0.000 F 
ENDBRANCH   8  24
BRANCH   6  27
ATOM     27  C   UNL     1       0.700   9.100  22.897  0.00  0.00    +0.000 C 
ATOM     28  F   UNL     1      -0.086   9.421  23.964  0.00  0.00    +0.000 F 
ENDBRANCH   6  27
TORSDOF 5
ENDMDL
MODEL 7
REMARK VINA RESULT:      -7.5      3.273      4.538
REMARK  Name = 
REMARK  6 active torsions:
REMARK  status: ('A' for Active; 'I' for Inactive)
REMARK    1  A    between atoms: C_1  and  N_2
REMARK    2  A    between atoms: C_6  and  C_7
REMARK    3  A    between atoms: C_7  and  C_8
REMARK    4  A    between atoms: C_12  and  N_13
REMARK    5  A    between atoms: C_18  and  C_19
REMARK    6  A    between atoms: C_22  and  N_23
REMARK                            x       y       z     vdW  Elec       q    Type
REMARK                         _______ _______ _______ _____ _____    ______ ____
ROOT
ATOM      1  N   UNL     1       3.066   5.596  17.405  0.00  0.00    +0.000 N 
ATOM      2  C   UNL     1       1.941   4.668  17.653  0.00  0.00    +0.000 C 
ATOM      3  C   UNL     1       2.566   3.664  18.574  0.00  0.00    +0.000 A 
ATOM      4  C   UNL     1       3.928   3.618  18.265  0.00  0.00    +0.000 A 
ATOM      5  C   UNL     1       4.846   2.887  19.013  0.00  0.00    +0.000 A 
ATOM      6  C   UNL     1       4.364   2.204  20.134  0.00  0.00    +0.000 A 
ATOM      7  C   UNL     1       2.991   2.297  20.474  0.00  0.00    +0.000 A 
ATOM      8  C   UNL     1       2.061   3.033  19.705  0.00  0.00    +0.000 A 
ATOM      9  C   UNL     1       4.230   4.782  17.400  0.00  0.00    +0.000 C 
ATOM     10  O   UNL     1       5.349   5.043  16.981  0.00  0.00    +0.000 OA
ENDROOT
BRANCH   1  15
ATOM     11  C   UNL     1       1.971   8.830  18.689  0.00  0.00    +0.000 A 
ATOM     12  C   UNL     1       1.436   8.356  19.894  0.00  0.00    +0.000 A 
ATOM     13  C   UNL     1       1.882   7.154  20.434  0.00  0.00    +0.000 A 
ATOM     14  C   UNL     1       2.766   6.356  19.724  0.00  0.00    +0.000 A 
ATOM     15  C   UNL     1       3.045   6.678  18.392  0.00  0.00    +0.000 A 
ATOM     16  C   UNL     1       2.793   7.979  17.936  0.00  0.00    +0.000 A 
BRANCH  11  17
ATOM     17  C   UNL     1       1.638  10.222  18.205  0.00  0.00    +0.000 C 
BRANCH  17  23
ATOM     18  C   UNL     1      -1.499  10.240  17.884  0.00  0.00    +0.000 C 
ATOM     19  N   UNL     1      -0.724  10.914  18.888  0.00  0.00    +0.000 N 
ATOM     20  C   UNL     1      -1.238  11.628  19.926  0.00  0.00    +0.000 A 
ATOM     21  N   UNL     1      -0.261  12.110  20.656  0.00  0.00    +0.000 NA
ATOM     22  N   UNL     1       0.921  11.695  20.092  0.00  0.00    +0.000 NA
ATOM     23  C   UNL     1       0.642  10.961  19.030  0.00  0.00    +0.000 A 
ENDBRANCH  17  23
ENDBRANCH  11  17
ENDBRANCH   1  15
BRANCH   8  24
ATOM     24  N   UNL     1       0.740   3.258  20.167  0.00  0.00    +0.000 N 
ATOM     25  F   UNL     1       0.722   2.785  21.525  0.00  0.00    +0.000 F 
ATOM     26  F   UNL     1      -0.100   2.538  19.248  0.00  0.00    +0.000 F 
ENDBRANCH   8  24
BRANCH   6  27
ATOM     27  C   UNL     1       5.324   1.460  21.026  0.00  0.00    +0.000 C 
ATOM     28  F   UNL     1       5.710   0.254  20.518  0.00  0.00    +0.000 F 
ENDBRANCH   6  27
TORSDOF 5
ENDMDL
MODEL 8
REMARK VINA RESULT:      -7.5      1.243      1.981
REMARK  Name = 
REMARK  6 active torsions:
REMARK  status: ('A' for Active; 'I' for Inactive)
REMARK    1  A    between atoms: C_1  and  N_2
REMARK    2  A    between atoms: C_6  and  C_7
REMARK    3  A    between atoms: C_7  and  C_8
REMARK    4  A    between atoms: C_12  and  N_13
REMARK    5  A    between atoms: C_18  and  C_19
REMARK    6  A    between atoms: C_22  and  N_23
REMARK                            x       y       z     vdW  Elec       q    Type
REMARK                         _______ _______ _______ _____ _____    ______ ____
ROOT
ATOM      1  N   UNL     1       4.139   3.543  19.341  0.00  0.00    +0.000 N 
ATOM      2  C   UNL     1       5.374   4.347  19.471  0.00  0.00    +0.000 C 
ATOM      3  C   UNL     1       5.799   4.493  18.040  0.00  0.00    +0.000 A 
ATOM      4  C   UNL     1       5.337   3.364  17.359  0.00  0.00    +0.000 A 
ATOM      5  C   UNL     1       5.437   3.224  15.978  0.00  0.00    +0.000 A 
ATOM      6  C   UNL     1       5.997   4.286  15.262  0.00  0.00    +0.000 A 
ATOM      7  C   UNL     1       6.415   5.452  15.952  0.00  0.00    +0.000 A 
ATOM      8  C   UNL     1       6.322   5.585  17.356  0.00  0.00    +0.000 A 
ATOM      9  C   UNL     1       4.372   2.672  18.244  0.00  0.00    +0.000 C 
ATOM     10  O   UNL     1       3.764   1.660  17.924  0.00  0.00    +0.000 OA
ENDROOT
BRANCH   1  15
ATOM     11  C   UNL     1       2.493   6.665  18.419  0.00  0.00    +0.000 A 
ATOM     12  C   UNL     1       1.564   6.106  17.532  0.00  0.00    +0.000 A 
ATOM     13  C   UNL     1       1.199   4.769  17.650  0.00  0.00    +0.000 A 
ATOM     14  C   UNL     1       1.841   3.949  18.566  0.00  0.00    +0.000 A 
ATOM     15  C   UNL     1       2.979   4.430  19.220  0.00  0.00    +0.000 A 
ATOM     16  C   UNL     1       3.200   5.813  19.280  0.00  0.00    +0.000 A 
BRANCH  11  17
ATOM     17  C   UNL     1       2.740   8.155  18.422  0.00  0.00    +0.000 C 
BRANCH  17  23
ATOM     18  C   UNL     1       1.328   8.532  21.216  0.00  0.00    +0.000 C 
ATOM     19  N   UNL     1       0.985   9.170  19.975  0.00  0.00    +0.000 N 
ATOM     20  C   UNL     1       0.016  10.114  19.822  0.00  0.00    +0.000 A 
ATOM     21  N   UNL     1      -0.037  10.489  18.566  0.00  0.00    +0.000 NA
ATOM     22  N   UNL     1       0.923   9.784  17.882  0.00  0.00    +0.000 NA
ATOM     23  C   UNL     1       1.550   8.997  18.736  0.00  0.00    +0.000 A 
ENDBRANCH  17  23
ENDBRANCH  11  17
ENDBRANCH   1  15
BRANCH   8  24
ATOM     24  N   UNL     1       6.575   6.824  17.996  0.00  0.00    +0.000 N 
ATOM     25  F   UNL     1       6.531   7.812  16.951  0.00  0.00    +0.000 F 
ATOM     26  F   UNL     1       7.851   6.655  18.636  0.00  0.00    +0.000 F 
ENDBRANCH   8  24
BRANCH   6  27
ATOM     27  C   UNL     1       6.059   4.225  13.758  0.00  0.00    +0.000 C 
ATOM     28  F   UNL     1       7.172   4.819  13.239  0.00  0.00    +0.000 F 
ENDBRANCH   6  27
TORSDOF 5
ENDMDL
MODEL 9
REMARK VINA RESULT:      -7.4      1.334      1.793
REMARK  Name = 
REMARK  6 active torsions:
REMARK  status: ('A' for Active; 'I' for Inactive)
REMARK    1  A    between atoms: C_1  and  N_2
REMARK    2  A    between atoms: C_6  and  C_7
REMARK    3  A    between atoms: C_7  and  C_8
REMARK    4  A    between atoms: C_12  and  N_13
REMARK    5  A    between atoms: C_18  and  C_19
REMARK    6  A    between atoms: C_22  and  N_23
REMARK                            x       y       z     vdW  Elec       q    Type
REMARK                         _______ _______ _______ _____ _____    ______ ____
ROOT
ATOM      1  N   UNL     1       4.226   3.555  19.304  0.00  0.00    +0.000 N 
ATOM      2  C   UNL     1       5.394   4.461  19.286  0.00  0.00    +0.000 C 
ATOM      3  C   UNL     1       5.683   4.565  17.818  0.00  0.00    +0.000 A 
ATOM      4  C   UNL     1       5.262   3.368  17.233  0.00  0.00    +0.000 A 
ATOM      5  C   UNL     1       5.256   3.165  15.856  0.00  0.00    +0.000 A 
ATOM      6  C   UNL     1       5.661   4.229  15.046  0.00  0.00    +0.000 A 
ATOM      7  C   UNL     1       6.035   5.460  15.643  0.00  0.00    +0.000 A 
ATOM      8  C   UNL     1       6.050   5.659  17.041  0.00  0.00    +0.000 A 
ATOM      9  C   UNL     1       4.438   2.648  18.231  0.00  0.00    +0.000 C 
ATOM     10  O   UNL     1       3.894   1.575  18.013  0.00  0.00    +0.000 OA
ENDROOT
BRANCH   1  15
ATOM     11  C   UNL     1       2.316   6.617  18.778  0.00  0.00    +0.000 A 
ATOM     12  C   UNL     1       1.498   6.127  17.753  0.00  0.00    +0.000 A 
ATOM     13  C   UNL     1       1.266   4.761  17.633  0.00  0.00    +0.000 A 
ATOM     14  C   UNL     1       1.942   3.865  18.449  0.00  0.00    +0.000 A 
ATOM     15  C   UNL     1       2.989   4.337  19.246  0.00  0.00    +0.000 A 
ATOM     16  C   UNL     1       3.063   5.705  19.539  0.00  0.00    +0.000 A 
BRANCH  11  17
ATOM     17  C   UNL     1       2.408   8.104  19.033  0.00  0.00    +0.000 C 
BRANCH  17  23
ATOM     18  C   UNL     1       0.313  10.419  18.592  0.00  0.00    +0.000 C 
ATOM     19  N   UNL     1       0.497   9.627  19.776  0.00  0.00    +0.000 N 
ATOM     20  C   UNL     1      -0.270   9.705  20.898  0.00  0.00    +0.000 A 
ATOM     21  N   UNL     1       0.164   8.846  21.788  0.00  0.00    +0.000 NA
ATOM     22  N   UNL     1       1.231   8.180  21.236  0.00  0.00    +0.000 NA
ATOM     23  C   UNL     1       1.425   8.643  20.015  0.00  0.00    +0.000 A 
ENDBRANCH  17  23
ENDBRANCH  11  17
ENDBRANCH   1  15
BRANCH   8  24
ATOM     24  N   UNL     1       6.251   6.946  17.599  0.00  0.00    +0.000 N 
ATOM     25  F   UNL     1       5.080   7.703  17.247  0.00  0.00    +0.000 F 
ATOM     26  F   UNL     1       7.485   7.409  17.027  0.00  0.00    +0.000 F 
ENDBRANCH   8  24
BRANCH   6  27
ATOM     27  C   UNL     1       5.600   4.094  13.547  0.00  0.00    +0.000 C 
ATOM     28  F   UNL     1       6.780   3.697  12.992  0.00  0.00    +0.000 F 
ENDBRANCH   6  27
TORSDOF 5
ENDMDL
