MODEL 1
REMARK VINA RESULT:      -9.1      0.000      0.000
REMARK  Name = 
REMARK  9 active torsions:
REMARK  status: ('A' for Active; 'I' for Inactive)
REMARK    1  A    between atoms: C_1  and  C_2
REMARK    2  A    between atoms: C_2  and  N_3
REMARK    3  A    between atoms: C_2  and  C_28
REMARK    4  A    between atoms: C_4  and  C_6
REMARK    5  A    between atoms: C_6  and  O_7
REMARK    6  A    between atoms: O_7  and  C_8
REMARK    7  A    between atoms: C_8  and  C_10
REMARK    8  A    between atoms: N_12  and  C_13
REMARK    9  A    between atoms: C_13  and  C_14
REMARK                            x       y       z     vdW  Elec       q    Type
REMARK                         _______ _______ _______ _____ _____    ______ ____
ROOT
ATOM      1  C   UNL     1       2.162   7.274  19.083  0.00  0.00    +0.000 C 
ATOM      2  O   UNL     1       2.119   7.535  20.269  0.00  0.00    +0.000 OA
ENDROOT
BRANCH   1   3
ATOM      3  C   UNL     1       2.755   5.978  18.535  0.00  0.00    +0.000 A 
ATOM      4  N   UNL     1       3.754   6.102  17.711  0.00  0.00    +0.000 NA
ATOM      5  N   UNL     1       4.346   4.971  17.198  0.00  0.00    +0.000 N 
ATOM      6  C   UNL     1       3.939   3.678  17.496  0.00  0.00    +0.000 A 
ATOM      7  O   UNL     1       4.447   2.659  17.018  0.00  0.00    +0.000 OA
ATOM      8  C   UNL     1       2.831   3.538  18.457  0.00  0.00    +0.000 A 
ATOM      9  C   UNL     1       2.414   2.262  18.863  0.00  0.00    +0.000 A 
ATOM     10  C   UNL     1       1.368   2.125  19.774  0.00  0.00    +0.000 A 
ATOM     11  C   UNL     1       0.731   3.259  20.270  0.00  0.00    +0.000 A 
ATOM     12  C   UNL     1       1.152   4.532  19.873  0.00  0.00    +0.000 A 
ATOM     13  C   UNL     1       2.214   4.675  18.969  0.00  0.00    +0.000 A 
BRANCH   5  14
ATOM     14  C   UNL     1       5.554   5.172  16.394  0.00  0.00    +0.000 C 
BRANCH  14  15
ATOM     15  C   UNL     1       6.608   5.926  17.177  0.00  0.00    +0.000 A 
ATOM     16  C   UNL     1       7.196   5.345  18.310  0.00  0.00    +0.000 A 
ATOM     17  C   UNL     1       8.083   6.075  19.101  0.00  0.00    +0.000 A 
ATOM     18  C   UNL     1       8.395   7.391  18.764  0.00  0.00    +0.000 A 
ATOM     19  C   UNL     1       7.834   7.972  17.628  0.00  0.00    +0.000 A 
ATOM     20  C   UNL     1       6.942   7.244  16.839  0.00  0.00    +0.000 A 
ENDBRANCH  14  15
ENDBRANCH   5  14
ENDBRANCH   1   3
BRANCH   1  21
ATOM     21  O   UNL     1       1.730   8.034  18.056  0.00  0.00    +0.000 OA
BRANCH  21  22
ATOM     22  C   UNL     1       2.374   9.299  17.910  0.00  0.00    +0.000 C 
BRANCH  22  24
ATOM     23  N   UNL     1       0.363  10.046  19.109  0.00  0.00    +0.000 N 
ATOM     24  C   UNL     1       1.500  10.432  18.431  0.00  0.00    +0.000 C 
ATOM     25  O   UNL     1       1.802  11.608  18.240  0.00  0.00    +0.000 OA
ATOM     26  H   UNL     1       0.253   9.071  19.366  0.00  0.00    +0.000 HD
BRANCH  23  28
ATOM     27  C   UNL     1      -0.648  10.823  21.195  0.00  0.00    +0.000 C 
ATOM     28  C   UNL     1      -0.525  11.040  19.687  0.00  0.00    +0.000 C 
BRANCH  28  29
ATOM     29  C   UNL     1      -1.827  11.163  18.908  0.00  0.00    +0.000 A 
ATOM     30  C   UNL     1      -2.211  10.244  17.899  0.00  0.00    +0.000 A 
ATOM     31  C   UNL     1      -3.534  10.178  17.439  0.00  0.00    +0.000 A 
ATOM     32  C   UNL     1      -4.448  11.027  18.019  0.00  0.00    +0.000 A 
ATOM     33  C   UNL     1      -4.071  11.983  18.933  0.00  0.00    +0.000 A 
ATOM     34  C   UNL     1      -2.774  12.099  19.372  0.00  0.00    +0.000 A 
ATOM     35  O   UNL     1      -5.136  12.671  19.429  0.00  0.00    +0.000 OA
ATOM     36  C   UNL     1      -6.196  11.799  18.990  0.00  0.00    +0.000 C 
ATOM     37  O   UNL     1      -5.801  10.984  17.864  0.00  0.00    +0.000 OA
ENDBRANCH  28  29
ENDBRANCH  23  28
ENDBRANCH  22  24
ENDBRANCH  21  22
ENDBRANCH   1  21
TORSDOF 8
ENDMDL
MODEL 2
REMARK VINA RESULT:      -8.8      1.935      2.911
REMARK  Name = 
REMARK  9 active torsions:
REMARK  status: ('A' for Active; 'I' for Inactive)
REMARK    1  A    between atoms: C_1  and  C_2
REMARK    2  A    between atoms: C_2  and  N_3
REMARK    3  A    between atoms: C_2  and  C_28
REMARK    4  A    between atoms: C_4  and  C_6
REMARK    5  A    between atoms: C_6  and  O_7
REMARK    6  A    between atoms: O_7  and  C_8
REMARK    7  A    between atoms: C_8  and  C_10
REMARK    8  A    between atoms: N_12  and  C_13
REMARK    9  A    between atoms: C_13  and  C_14
REMARK                            x       y       z     vdW  Elec       q    Type
REMARK                         _______ _______ _______ _____ _____    ______ ____
ROOT
ATOM      1  C   UNL     1       2.271   7.155  18.866  0.00  0.00    +0.000 C 
ATOM      2  O   UNL     1       2.221   7.285  20.073  0.00  0.00    +0.000 OA
ENDROOT
BRANCH   1   3
ATOM      3  C   UNL     1       2.939   5.963  18.183  0.00  0.00    +0.000 A 
ATOM      4  N   UNL     1       3.978   6.227  17.447  0.00  0.00    +0.000 NA
ATOM      5  N   UNL     1       4.637   5.194  16.820  0.00  0.00    +0.000 N 
ATOM      6  C   UNL     1       4.257   3.861  16.911  0.00  0.00    +0.000 A 
ATOM      7  O   UNL     1       4.825   2.932  16.330  0.00  0.00    +0.000 OA
ATOM      8  C   UNL     1       3.100   3.560  17.774  0.00  0.00    +0.000 A 
ATOM      9  C   UNL     1       2.704   2.231  17.973  0.00  0.00    +0.000 A 
ATOM     10  C   UNL     1       1.613   1.942  18.791  0.00  0.00    +0.000 A 
ATOM     11  C   UNL     1       0.910   2.978  19.398  0.00  0.00    +0.000 A 
ATOM     12  C   UNL     1       1.310   4.305  19.207  0.00  0.00    +0.000 A 
ATOM     13  C   UNL     1       2.418   4.599  18.399  0.00  0.00    +0.000 A 
BRANCH   5  14
ATOM     14  C   UNL     1       5.881   5.535  16.128  0.00  0.00    +0.000 C 
BRANCH  14  15
ATOM     15  C   UNL     1       6.854   6.219  17.065  0.00  0.00    +0.000 A 
ATOM     16  C   UNL     1       7.355   5.538  18.184  0.00  0.00    +0.000 A 
ATOM     17  C   UNL     1       8.160   6.196  19.113  0.00  0.00    +0.000 A 
ATOM     18  C   UNL     1       8.478   7.541  18.930  0.00  0.00    +0.000 A 
ATOM     19  C   UNL     1       8.005   8.223  17.810  0.00  0.00    +0.000 A 
ATOM     20  C   UNL     1       7.194   7.566  16.883  0.00  0.00    +0.000 A 
ENDBRANCH  14  15
ENDBRANCH   5  14
ENDBRANCH   1   3
BRANCH   1  21
ATOM     21  O   UNL     1       1.786   7.992  17.927  0.00  0.00    +0.000 OA
BRANCH  21  22
ATOM     22  C   UNL     1       1.841   9.381  18.249  0.00  0.00    +0.000 C 
BRANCH  22  24
ATOM     23  N   UNL     1      -0.310  10.448  17.723  0.00  0.00    +0.000 N 
ATOM     24  C   UNL     1       0.484   9.899  18.709  0.00  0.00    +0.000 C 
ATOM     25  O   UNL     1       0.144   9.833  19.888  0.00  0.00    +0.000 OA
ATOM     26  H   UNL     1      -0.038  10.331  16.754  0.00  0.00    +0.000 HD
BRANCH  23  28
ATOM     27  C   UNL     1      -2.561  10.777  16.827  0.00  0.00    +0.000 C 
ATOM     28  C   UNL     1      -1.641  10.937  18.037  0.00  0.00    +0.000 C 
BRANCH  28  29
ATOM     29  C   UNL     1      -1.603  12.314  18.686  0.00  0.00    +0.000 A 
ATOM     30  C   UNL     1      -2.313  12.627  19.873  0.00  0.00    +0.000 A 
ATOM     31  C   UNL     1      -2.006  13.769  20.626  0.00  0.00    +0.000 A 
ATOM     32  C   UNL     1      -0.975  14.563  20.179  0.00  0.00    +0.000 A 
ATOM     33  C   UNL     1      -0.339  14.320  18.984  0.00  0.00    +0.000 A 
ATOM     34  C   UNL     1      -0.647  13.231  18.204  0.00  0.00    +0.000 A 
ATOM     35  O   UNL     1       0.690  15.183  18.761  0.00  0.00    +0.000 OA
ATOM     36  C   UNL     1       0.822  15.727  20.090  0.00  0.00    +0.000 C 
ATOM     37  O   UNL     1      -0.392  15.589  20.860  0.00  0.00    +0.000 OA
ENDBRANCH  28  29
ENDBRANCH  23  28
ENDBRANCH  22  24
ENDBRANCH  21  22
ENDBRANCH   1  21
TORSDOF 8
ENDMDL
MODEL 3
REMARK VINA RESULT:      -8.7      1.779      2.376
REMARK  Name = 
REMARK  9 active torsions:
REMARK  status: ('A' for Active; 'I' for Inactive)
REMARK    1  A    between atoms: C_1  and  C_2
REMARK    2  A    between atoms: C_2  and  N_3
REMARK    3  A    between atoms: C_2  and  C_28
REMARK    4  A    between atoms: C_4  and  C_6
REMARK    5  A    between atoms: C_6  and  O_7
REMARK    6  A    between atoms: O_7  and  C_8
REMARK    7  A    between atoms: C_8  and  C_10
REMARK    8  A    between atoms: N_12  and  C_13
REMARK    9  A    between atoms: C_13  and  C_14
REMARK                            x       y       z     vdW  Elec       q    Type
REMARK                         _______ _______ _______ _____ _____    ______ ____
ROOT
ATOM      1  C   UNL     1       1.929   7.670  19.623  0.00  0.00    +0.000 C 
ATOM      2  O   UNL     1       1.496   7.621  20.758  0.00  0.00    +0.000 OA
ENDROOT
BRANCH   1   3
ATOM      3  C   UNL     1       2.553   6.469  18.916  0.00  0.00    +0.000 A 
ATOM      4  N   UNL     1       3.479   6.730  18.041  0.00  0.00    +0.000 NA
ATOM      5  N   UNL     1       4.094   5.689  17.384  0.00  0.00    +0.000 N 
ATOM      6  C   UNL     1       3.783   4.351  17.584  0.00  0.00    +0.000 A 
ATOM      7  O   UNL     1       4.310   3.413  16.978  0.00  0.00    +0.000 OA
ATOM      8  C   UNL     1       2.758   4.055  18.602  0.00  0.00    +0.000 A 
ATOM      9  C   UNL     1       2.445   2.725  18.911  0.00  0.00    +0.000 A 
ATOM     10  C   UNL     1       1.477   2.440  19.875  0.00  0.00    +0.000 A 
ATOM     11  C   UNL     1       0.816   3.482  20.518  0.00  0.00    +0.000 A 
ATOM     12  C   UNL     1       1.135   4.810  20.216  0.00  0.00    +0.000 A 
ATOM     13  C   UNL     1       2.118   5.100  19.260  0.00  0.00    +0.000 A 
BRANCH   5  14
ATOM     14  C   UNL     1       5.226   6.037  16.522  0.00  0.00    +0.000 C 
BRANCH  14  15
ATOM     15  C   UNL     1       6.349   6.658  17.326  0.00  0.00    +0.000 A 
ATOM     16  C   UNL     1       6.790   7.958  17.038  0.00  0.00    +0.000 A 
ATOM     17  C   UNL     1       7.897   8.493  17.697  0.00  0.00    +0.000 A 
ATOM     18  C   UNL     1       8.571   7.736  18.653  0.00  0.00    +0.000 A 
ATOM     19  C   UNL     1       8.129   6.451  18.964  0.00  0.00    +0.000 A 
ATOM     20  C   UNL     1       7.025   5.912  18.301  0.00  0.00    +0.000 A 
ENDBRANCH  14  15
ENDBRANCH   5  14
ENDBRANCH   1   3
BRANCH   1  21
ATOM     21  O   UNL     1       1.960   8.737  18.799  0.00  0.00    +0.000 OA
BRANCH  21  22
ATOM     22  C   UNL     1       0.771   9.525  18.763  0.00  0.00    +0.000 C 
BRANCH  22  24
ATOM     23  N   UNL     1      -0.398  10.174  20.825  0.00  0.00    +0.000 N 
ATOM     24  C   UNL     1       0.665  10.430  19.984  0.00  0.00    +0.000 C 
ATOM     25  O   UNL     1       1.478  11.329  20.181  0.00  0.00    +0.000 OA
ATOM     26  H   UNL     1      -0.936   9.326  20.690  0.00  0.00    +0.000 HD
BRANCH  23  28
ATOM     27  C   UNL     1      -0.545  10.024  23.261  0.00  0.00    +0.000 C 
ATOM     28  C   UNL     1      -0.576  10.946  22.043  0.00  0.00    +0.000 C 
BRANCH  28  29
ATOM     29  C   UNL     1      -1.757  11.902  21.942  0.00  0.00    +0.000 A 
ATOM     30  C   UNL     1      -2.184  12.474  20.717  0.00  0.00    +0.000 A 
ATOM     31  C   UNL     1      -3.448  13.068  20.592  0.00  0.00    +0.000 A 
ATOM     32  C   UNL     1      -4.265  13.057  21.699  0.00  0.00    +0.000 A 
ATOM     33  C   UNL     1      -3.829  12.587  22.915  0.00  0.00    +0.000 A 
ATOM     34  C   UNL     1      -2.580  12.036  23.079  0.00  0.00    +0.000 A 
ATOM     35  O   UNL     1      -4.811  12.606  23.858  0.00  0.00    +0.000 OA
ATOM     36  C   UNL     1      -5.950  12.799  22.996  0.00  0.00    +0.000 C 
ATOM     37  O   UNL     1      -5.584  13.394  21.732  0.00  0.00    +0.000 OA
ENDBRANCH  28  29
ENDBRANCH  23  28
ENDBRANCH  22  24
ENDBRANCH  21  22
ENDBRANCH   1  21
TORSDOF 8
ENDMDL
MODEL 4
REMARK VINA RESULT:      -8.7      1.155      1.668
REMARK  Name = 
REMARK  9 active torsions:
REMARK  status: ('A' for Active; 'I' for Inactive)
REMARK    1  A    between atoms: C_1  and  C_2
REMARK    2  A    between atoms: C_2  and  N_3
REMARK    3  A    between atoms: C_2  and  C_28
REMARK    4  A    between atoms: C_4  and  C_6
REMARK    5  A    between atoms: C_6  and  O_7
REMARK    6  A    between atoms: O_7  and  C_8
REMARK    7  A    between atoms: C_8  and  C_10
REMARK    8  A    between atoms: N_12  and  C_13
REMARK    9  A    between atoms: C_13  and  C_14
REMARK                            x       y       z     vdW  Elec       q    Type
REMARK                         _______ _______ _______ _____ _____    ______ ____
ROOT
ATOM      1  C   UNL     1       2.026   7.356  19.854  0.00  0.00    +0.000 C 
ATOM      2  O   UNL     1       2.077   7.288  21.066  0.00  0.00    +0.000 OA
ENDROOT
BRANCH   1   3
ATOM      3  C   UNL     1       2.602   6.282  18.933  0.00  0.00    +0.000 A 
ATOM      4  N   UNL     1       3.501   6.673  18.079  0.00  0.00    +0.000 NA
ATOM      5  N   UNL     1       4.073   5.749  17.235  0.00  0.00    +0.000 N 
ATOM      6  C   UNL     1       3.744   4.399  17.223  0.00  0.00    +0.000 A 
ATOM      7  O   UNL     1       4.232   3.569  16.450  0.00  0.00    +0.000 OA
ATOM      8  C   UNL     1       2.751   3.951  18.216  0.00  0.00    +0.000 A 
ATOM      9  C   UNL     1       2.425   2.592  18.313  0.00  0.00    +0.000 A 
ATOM     10  C   UNL     1       1.488   2.163  19.253  0.00  0.00    +0.000 A 
ATOM     11  C   UNL     1       0.869   3.092  20.085  0.00  0.00    +0.000 A 
ATOM     12  C   UNL     1       1.201   4.447  19.995  0.00  0.00    +0.000 A 
ATOM     13  C   UNL     1       2.155   4.880  19.063  0.00  0.00    +0.000 A 
BRANCH   5  14
ATOM     14  C   UNL     1       5.179   6.221  16.400  0.00  0.00    +0.000 C 
BRANCH  14  15
ATOM     15  C   UNL     1       6.393   6.551  17.243  0.00  0.00    +0.000 A 
ATOM     16  C   UNL     1       6.879   5.624  18.176  0.00  0.00    +0.000 A 
ATOM     17  C   UNL     1       7.924   5.963  19.034  0.00  0.00    +0.000 A 
ATOM     18  C   UNL     1       8.498   7.231  18.965  0.00  0.00    +0.000 A 
ATOM     19  C   UNL     1       8.038   8.155  18.028  0.00  0.00    +0.000 A 
ATOM     20  C   UNL     1       6.988   7.818  17.172  0.00  0.00    +0.000 A 
ENDBRANCH  14  15
ENDBRANCH   5  14
ENDBRANCH   1   3
BRANCH   1  21
ATOM     21  O   UNL     1       1.492   8.343  19.106  0.00  0.00    +0.000 OA
BRANCH  21  22
ATOM     22  C   UNL     1       1.004   9.471  19.829  0.00  0.00    +0.000 C 
BRANCH  22  24
ATOM     23  N   UNL     1      -0.404  11.469  19.571  0.00  0.00    +0.000 N 
ATOM     24  C   UNL     1       0.060  10.312  18.980  0.00  0.00    +0.000 C 
ATOM     25  O   UNL     1      -0.262   9.960  17.848  0.00  0.00    +0.000 OA
ATOM     26  H   UNL     1       0.019  11.779  20.438  0.00  0.00    +0.000 HD
BRANCH  23  28
ATOM     27  C   UNL     1      -0.733  13.798  18.902  0.00  0.00    +0.000 C 
ATOM     28  C   UNL     1      -1.278  12.371  18.840  0.00  0.00    +0.000 C 
BRANCH  28  29
ATOM     29  C   UNL     1      -2.739  12.182  19.223  0.00  0.00    +0.000 A 
ATOM     30  C   UNL     1      -3.348  12.869  20.304  0.00  0.00    +0.000 A 
ATOM     31  C   UNL     1      -4.743  12.939  20.428  0.00  0.00    +0.000 A 
ATOM     32  C   UNL     1      -5.497  12.333  19.451  0.00  0.00    +0.000 A 
ATOM     33  C   UNL     1      -4.920  11.589  18.448  0.00  0.00    +0.000 A 
ATOM     34  C   UNL     1      -3.557  11.467  18.324  0.00  0.00    +0.000 A 
ATOM     35  O   UNL     1      -5.838  11.132  17.552  0.00  0.00    +0.000 OA
ATOM     36  C   UNL     1      -6.953  11.965  17.922  0.00  0.00    +0.000 C 
ATOM     37  O   UNL     1      -6.843  12.456  19.276  0.00  0.00    +0.000 OA
ENDBRANCH  28  29
ENDBRANCH  23  28
ENDBRANCH  22  24
ENDBRANCH  21  22
ENDBRANCH   1  21
TORSDOF 8
ENDMDL
MODEL 5
REMARK VINA RESULT:      -8.7      2.609      4.730
REMARK  Name = 
REMARK  9 active torsions:
REMARK  status: ('A' for Active; 'I' for Inactive)
REMARK    1  A    between atoms: C_1  and  C_2
REMARK    2  A    between atoms: C_2  and  N_3
REMARK    3  A    between atoms: C_2  and  C_28
REMARK    4  A    between atoms: C_4  and  C_6
REMARK    5  A    between atoms: C_6  and  O_7
REMARK    6  A    between atoms: O_7  and  C_8
REMARK    7  A    between atoms: C_8  and  C_10
REMARK    8  A    between atoms: N_12  and  C_13
REMARK    9  A    between atoms: C_13  and  C_14
REMARK                            x       y       z     vdW  Elec       q    Type
REMARK                         _______ _______ _______ _____ _____    ______ ____
ROOT
ATOM      1  C   UNL     1       2.173   7.466  19.529  0.00  0.00    +0.000 C 
ATOM      2  O   UNL     1       1.663   7.457  20.632  0.00  0.00    +0.000 OA
ENDROOT
BRANCH   1   3
ATOM      3  C   UNL     1       2.722   6.212  18.854  0.00  0.00    +0.000 A 
ATOM      4  N   UNL     1       3.650   6.395  17.962  0.00  0.00    +0.000 NA
ATOM      5  N   UNL     1       4.201   5.302  17.331  0.00  0.00    +0.000 N 
ATOM      6  C   UNL     1       3.821   3.990  17.577  0.00  0.00    +0.000 A 
ATOM      7  O   UNL     1       4.289   3.007  16.995  0.00  0.00    +0.000 OA
ATOM      8  C   UNL     1       2.794   3.782  18.614  0.00  0.00    +0.000 A 
ATOM      9  C   UNL     1       2.413   2.480  18.969  0.00  0.00    +0.000 A 
ATOM     10  C   UNL     1       1.444   2.279  19.951  0.00  0.00    +0.000 A 
ATOM     11  C   UNL     1       0.848   3.374  20.568  0.00  0.00    +0.000 A 
ATOM     12  C   UNL     1       1.233   4.673  20.221  0.00  0.00    +0.000 A 
ATOM     13  C   UNL     1       2.219   4.880  19.246  0.00  0.00    +0.000 A 
BRANCH   5  14
ATOM     14  C   UNL     1       5.339   5.562  16.446  0.00  0.00    +0.000 C 
BRANCH  14  15
ATOM     15  C   UNL     1       6.482   6.201  17.207  0.00  0.00    +0.000 A 
ATOM     16  C   UNL     1       7.073   5.532  18.288  0.00  0.00    +0.000 A 
ATOM     17  C   UNL     1       8.047   6.160  19.063  0.00  0.00    +0.000 A 
ATOM     18  C   UNL     1       8.445   7.461  18.761  0.00  0.00    +0.000 A 
ATOM     19  C   UNL     1       7.882   8.129  17.675  0.00  0.00    +0.000 A 
ATOM     20  C   UNL     1       6.902   7.503  16.902  0.00  0.00    +0.000 A 
ENDBRANCH  14  15
ENDBRANCH   5  14
ENDBRANCH   1   3
BRANCH   1  21
ATOM     21  O   UNL     1       2.362   8.527  18.719  0.00  0.00    +0.000 OA
BRANCH  21  22
ATOM     22  C   UNL     1       1.183   9.073  18.130  0.00  0.00    +0.000 C 
BRANCH  22  24
ATOM     23  N   UNL     1       1.162  11.512  18.429  0.00  0.00    +0.000 N 
ATOM     24  C   UNL     1       0.696  10.299  18.891  0.00  0.00    +0.000 C 
ATOM     25  O   UNL     1      -0.054  10.191  19.858  0.00  0.00    +0.000 OA
ATOM     26  H   UNL     1       1.648  11.543  17.539  0.00  0.00    +0.000 HD
BRANCH  23  28
ATOM     27  C   UNL     1      -0.446  13.348  18.280  0.00  0.00    +0.000 C 
ATOM     28  C   UNL     1       0.732  12.753  19.050  0.00  0.00    +0.000 C 
BRANCH  28  29
ATOM     29  C   UNL     1       1.903  13.685  19.331  0.00  0.00    +0.000 A 
ATOM     30  C   UNL     1       2.376  13.957  20.639  0.00  0.00    +0.000 A 
ATOM     31  C   UNL     1       3.636  14.534  20.853  0.00  0.00    +0.000 A 
ATOM     32  C   UNL     1       4.404  14.806  19.745  0.00  0.00    +0.000 A 
ATOM     33  C   UNL     1       3.921  14.630  18.469  0.00  0.00    +0.000 A 
ATOM     34  C   UNL     1       2.674  14.106  18.228  0.00  0.00    +0.000 A 
ATOM     35  O   UNL     1       4.861  14.897  17.520  0.00  0.00    +0.000 OA
ATOM     36  C   UNL     1       6.034  14.905  18.358  0.00  0.00    +0.000 C 
ATOM     37  O   UNL     1       5.716  15.172  19.741  0.00  0.00    +0.000 OA
ENDBRANCH  28  29
ENDBRANCH  23  28
ENDBRANCH  22  24
ENDBRANCH  21  22
ENDBRANCH   1  21
TORSDOF 8
ENDMDL
MODEL 6
REMARK VINA RESULT:      -8.6      1.363      2.031
REMARK  Name = 
REMARK  9 active torsions:
REMARK  status: ('A' for Active; 'I' for Inactive)
REMARK    1  A    between atoms: C_1  and  C_2
REMARK    2  A    between atoms: C_2  and  N_3
REMARK    3  A    between atoms: C_2  and  C_28
REMARK    4  A    between atoms: C_4  and  C_6
REMARK    5  A    between atoms: C_6  and  O_7
REMARK    6  A    between atoms: O_7  and  C_8
REMARK    7  A    between atoms: C_8  and  C_10
REMARK    8  A    between atoms: N_12  and  C_13
REMARK    9  A    between atoms: C_13  and  C_14
REMARK                            x       y       z     vdW  Elec       q    Type
REMARK                         _______ _______ _______ _____ _____    ______ ____
ROOT
ATOM      1  C   UNL     1       2.307   7.191  19.365  0.00  0.00    +0.000 C 
ATOM      2  O   UNL     1       2.063   7.811  20.381  0.00  0.00    +0.000 OA
ENDROOT
BRANCH   1   3
ATOM      3  C   UNL     1       3.120   5.898  19.351  0.00  0.00    +0.000 A 
ATOM      4  N   UNL     1       4.275   5.947  18.755  0.00  0.00    +0.000 NA
ATOM      5  N   UNL     1       5.064   4.820  18.726  0.00  0.00    +0.000 N 
ATOM      6  C   UNL     1       4.704   3.604  19.292  0.00  0.00    +0.000 A 
ATOM      7  O   UNL     1       5.394   2.582  19.246  0.00  0.00    +0.000 OA
ATOM      8  C   UNL     1       3.411   3.560  19.998  0.00  0.00    +0.000 A 
ATOM      9  C   UNL     1       3.014   2.388  20.657  0.00  0.00    +0.000 A 
ATOM     10  C   UNL     1       1.793   2.343  21.328  0.00  0.00    +0.000 A 
ATOM     11  C   UNL     1       0.964   3.461  21.331  0.00  0.00    +0.000 A 
ATOM     12  C   UNL     1       1.363   4.634  20.681  0.00  0.00    +0.000 A 
ATOM     13  C   UNL     1       2.598   4.689  20.019  0.00  0.00    +0.000 A 
BRANCH   5  14
ATOM     14  C   UNL     1       6.410   4.978  18.171  0.00  0.00    +0.000 C 
BRANCH  14  15
ATOM     15  C   UNL     1       6.418   4.701  16.682  0.00  0.00    +0.000 A 
ATOM     16  C   UNL     1       7.459   5.187  15.878  0.00  0.00    +0.000 A 
ATOM     17  C   UNL     1       7.415   5.034  14.492  0.00  0.00    +0.000 A 
ATOM     18  C   UNL     1       6.333   4.388  13.897  0.00  0.00    +0.000 A 
ATOM     19  C   UNL     1       5.303   3.881  14.687  0.00  0.00    +0.000 A 
ATOM     20  C   UNL     1       5.343   4.039  16.074  0.00  0.00    +0.000 A 
ENDBRANCH  14  15
ENDBRANCH   5  14
ENDBRANCH   1   3
BRANCH   1  21
ATOM     21  O   UNL     1       1.943   7.500  18.104  0.00  0.00    +0.000 OA
BRANCH  21  22
ATOM     22  C   UNL     1       2.509   8.697  17.573  0.00  0.00    +0.000 C 
BRANCH  22  24
ATOM     23  N   UNL     1       0.489   9.739  18.510  0.00  0.00    +0.000 N 
ATOM     24  C   UNL     1       1.792   9.934  18.101  0.00  0.00    +0.000 C 
ATOM     25  O   UNL     1       2.353  11.026  18.140  0.00  0.00    +0.000 OA
ATOM     26  H   UNL     1       0.140   8.791  18.597  0.00  0.00    +0.000 HD
BRANCH  23  28
ATOM     27  C   UNL     1      -0.243  10.782  20.597  0.00  0.00    +0.000 C 
ATOM     28  C   UNL     1      -0.280  10.837  19.070  0.00  0.00    +0.000 C 
BRANCH  28  29
ATOM     29  C   UNL     1      -1.654  10.956  18.425  0.00  0.00    +0.000 A 
ATOM     30  C   UNL     1      -2.146  10.022  17.479  0.00  0.00    +0.000 A 
ATOM     31  C   UNL     1      -3.509   9.958  17.158  0.00  0.00    +0.000 A 
ATOM     32  C   UNL     1      -4.354  10.824  17.812  0.00  0.00    +0.000 A 
ATOM     33  C   UNL     1      -3.879  11.794  18.664  0.00  0.00    +0.000 A 
ATOM     34  C   UNL     1      -2.543  11.907  18.966  0.00  0.00    +0.000 A 
ATOM     35  O   UNL     1      -4.883  12.499  19.254  0.00  0.00    +0.000 OA
ATOM     36  C   UNL     1      -5.988  11.628  18.942  0.00  0.00    +0.000 C 
ATOM     37  O   UNL     1      -5.716  10.789  17.798  0.00  0.00    +0.000 OA
ENDBRANCH  28  29
ENDBRANCH  23  28
ENDBRANCH  22  24
ENDBRANCH  21  22
ENDBRANCH   1  21
TORSDOF 8
ENDMDL
MODEL 7
REMARK VINA RESULT:      -8.6      1.801      2.595
REMARK  Name = 
REMARK  9 active torsions:
REMARK  status: ('A' for Active; 'I' for Inactive)
REMARK    1  A    between atoms: C_1  and  C_2
REMARK    2  A    between atoms: C_2  and  N_3
REMARK    3  A    between atoms: C_2  and  C_28
REMARK    4  A    between atoms: C_4  and  C_6
REMARK    5  A    between atoms: C_6  and  O_7
REMARK    6  A    between atoms: O_7  and  C_8
REMARK    7  A    between atoms: C_8  and  C_10
REMARK    8  A    between atoms: N_12  and  C_13
REMARK    9  A    between atoms: C_13  and  C_14
REMARK                            x       y       z     vdW  Elec       q    Type
REMARK                         _______ _______ _______ _____ _____    ______ ____
ROOT
ATOM      1  C   UNL     1       1.946   7.524  19.398  0.00  0.00    +0.000 C 
ATOM      2  O   UNL     1       1.908   7.748  20.592  0.00  0.00    +0.000 OA
ENDROOT
BRANCH   1   3
ATOM      3  C   UNL     1       2.617   6.288  18.802  0.00  0.00    +0.000 A 
ATOM      4  N   UNL     1       3.581   6.505  17.957  0.00  0.00    +0.000 NA
ATOM      5  N   UNL     1       4.240   5.433  17.400  0.00  0.00    +0.000 N 
ATOM      6  C   UNL     1       3.936   4.106  17.674  0.00  0.00    +0.000 A 
ATOM      7  O   UNL     1       4.503   3.139  17.157  0.00  0.00    +0.000 OA
ATOM      8  C   UNL     1       2.867   3.863  18.659  0.00  0.00    +0.000 A 
ATOM      9  C   UNL     1       2.555   2.551  19.041  0.00  0.00    +0.000 A 
ATOM     10  C   UNL     1       1.546   2.316  19.974  0.00  0.00    +0.000 A 
ATOM     11  C   UNL     1       0.842   3.387  20.515  0.00  0.00    +0.000 A 
ATOM     12  C   UNL     1       1.158   4.697  20.141  0.00  0.00    +0.000 A 
ATOM     13  C   UNL     1       2.183   4.939  19.215  0.00  0.00    +0.000 A 
BRANCH   5  14
ATOM     14  C   UNL     1       5.408   5.742  16.571  0.00  0.00    +0.000 C 
BRANCH  14  15
ATOM     15  C   UNL     1       6.451   6.499  17.365  0.00  0.00    +0.000 A 
ATOM     16  C   UNL     1       6.790   7.814  17.014  0.00  0.00    +0.000 A 
ATOM     17  C   UNL     1       7.829   8.476  17.667  0.00  0.00    +0.000 A 
ATOM     18  C   UNL     1       8.536   7.834  18.681  0.00  0.00    +0.000 A 
ATOM     19  C   UNL     1       8.195   6.535  19.054  0.00  0.00    +0.000 A 
ATOM     20  C   UNL     1       7.159   5.868  18.397  0.00  0.00    +0.000 A 
ENDBRANCH  14  15
ENDBRANCH   5  14
ENDBRANCH   1   3
BRANCH   1  21
ATOM     21  O   UNL     1       1.441   8.280  18.402  0.00  0.00    +0.000 OA
BRANCH  21  22
ATOM     22  C   UNL     1       1.663   9.684  18.519  0.00  0.00    +0.000 C 
BRANCH  22  24
ATOM     23  N   UNL     1       0.323  11.566  19.359  0.00  0.00    +0.000 N 
ATOM     24  C   UNL     1       0.350  10.457  18.538  0.00  0.00    +0.000 C 
ATOM     25  O   UNL     1      -0.612  10.092  17.867  0.00  0.00    +0.000 OA
ATOM     26  H   UNL     1       1.191  11.899  19.761  0.00  0.00    +0.000 HD
BRANCH  23  28
ATOM     27  C   UNL     1      -0.493  13.862  19.158  0.00  0.00    +0.000 C 
ATOM     28  C   UNL     1      -0.862  12.403  19.426  0.00  0.00    +0.000 C 
BRANCH  28  29
ATOM     29  C   UNL     1      -1.684  12.127  20.677  0.00  0.00    +0.000 A 
ATOM     30  C   UNL     1      -1.144  11.510  21.834  0.00  0.00    +0.000 A 
ATOM     31  C   UNL     1      -1.806  11.569  23.068  0.00  0.00    +0.000 A 
ATOM     32  C   UNL     1      -2.991  12.266  23.117  0.00  0.00    +0.000 A 
ATOM     33  C   UNL     1      -3.570  12.791  21.985  0.00  0.00    +0.000 A 
ATOM     34  C   UNL     1      -2.964  12.713  20.754  0.00  0.00    +0.000 A 
ATOM     35  O   UNL     1      -4.702  13.495  22.264  0.00  0.00    +0.000 OA
ATOM     36  C   UNL     1      -4.541  13.630  23.690  0.00  0.00    +0.000 C 
ATOM     37  O   UNL     1      -3.679  12.611  24.241  0.00  0.00    +0.000 OA
ENDBRANCH  28  29
ENDBRANCH  23  28
ENDBRANCH  22  24
ENDBRANCH  21  22
ENDBRANCH   1  21
TORSDOF 8
ENDMDL
MODEL 8
REMARK VINA RESULT:      -8.6      1.084      1.356
REMARK  Name = 
REMARK  9 active torsions:
REMARK  status: ('A' for Active; 'I' for Inactive)
REMARK    1  A    between atoms: C_1  and  C_2
REMARK    2  A    between atoms: C_2  and  N_3
REMARK    3  A    between atoms: C_2  and  C_28
REMARK    4  A    between atoms: C_4  and  C_6
REMARK    5  A    between atoms: C_6  and  O_7
REMARK    6  A    between atoms: O_7  and  C_8
REMARK    7  A    between atoms: C_8  and  C_10
REMARK    8  A    between atoms: N_12  and  C_13
REMARK    9  A    between atoms: C_13  and  C_14
REMARK                            x       y       z     vdW  Elec       q    Type
REMARK                         _______ _______ _______ _____ _____    ______ ____
ROOT
ATOM      1  C   UNL     1       2.103   7.391  18.948  0.00  0.00    +0.000 C 
ATOM      2  O   UNL     1       1.451   8.217  18.339  0.00  0.00    +0.000 OA
ENDROOT
BRANCH   1   3
ATOM      3  C   UNL     1       2.748   6.180  18.279  0.00  0.00    +0.000 A 
ATOM      4  N   UNL     1       3.765   6.420  17.505  0.00  0.00    +0.000 NA
ATOM      5  N   UNL     1       4.404   5.368  16.888  0.00  0.00    +0.000 N 
ATOM      6  C   UNL     1       4.025   4.039  17.029  0.00  0.00    +0.000 A 
ATOM      7  O   UNL     1       4.574   3.093  16.457  0.00  0.00    +0.000 OA
ATOM      8  C   UNL     1       2.895   3.766  17.935  0.00  0.00    +0.000 A 
ATOM      9  C   UNL     1       2.503   2.443  18.183  0.00  0.00    +0.000 A 
ATOM     10  C   UNL     1       1.436   2.179  19.042  0.00  0.00    +0.000 A 
ATOM     11  C   UNL     1       0.754   3.234  19.639  0.00  0.00    +0.000 A 
ATOM     12  C   UNL     1       1.149   4.554  19.399  0.00  0.00    +0.000 A 
ATOM     13  C   UNL     1       2.232   4.823  18.550  0.00  0.00    +0.000 A 
BRANCH   5  14
ATOM     14  C   UNL     1       5.627   5.687  16.149  0.00  0.00    +0.000 C 
BRANCH  14  15
ATOM     15  C   UNL     1       6.670   6.296  17.062  0.00  0.00    +0.000 A 
ATOM     16  C   UNL     1       7.150   5.576  18.166  0.00  0.00    +0.000 A 
ATOM     17  C   UNL     1       8.024   6.171  19.075  0.00  0.00    +0.000 A 
ATOM     18  C   UNL     1       8.431   7.490  18.887  0.00  0.00    +0.000 A 
ATOM     19  C   UNL     1       7.978   8.210  17.783  0.00  0.00    +0.000 A 
ATOM     20  C   UNL     1       7.098   7.617  16.875  0.00  0.00    +0.000 A 
ENDBRANCH  14  15
ENDBRANCH   5  14
ENDBRANCH   1   3
BRANCH   1  21
ATOM     21  O   UNL     1       2.371   7.365  20.269  0.00  0.00    +0.000 OA
BRANCH  21  22
ATOM     22  C   UNL     1       1.276   7.680  21.128  0.00  0.00    +0.000 C 
BRANCH  22  24
ATOM     23  N   UNL     1      -0.231   9.535  20.554  0.00  0.00    +0.000 N 
ATOM     24  C   UNL     1       0.974   9.173  21.120  0.00  0.00    +0.000 C 
ATOM     25  O   UNL     1       1.770   9.986  21.585  0.00  0.00    +0.000 OA
ATOM     26  H   UNL     1      -0.905   8.811  20.333  0.00  0.00    +0.000 HD
BRANCH  23  28
ATOM     27  C   UNL     1      -1.168  11.348  21.901  0.00  0.00    +0.000 C 
ATOM     28  C   UNL     1      -0.644  10.927  20.528  0.00  0.00    +0.000 C 
BRANCH  28  29
ATOM     29  C   UNL     1      -1.539  11.233  19.335  0.00  0.00    +0.000 A 
ATOM     30  C   UNL     1      -1.336  10.664  18.052  0.00  0.00    +0.000 A 
ATOM     31  C   UNL     1      -2.342  10.688  17.076  0.00  0.00    +0.000 A 
ATOM     32  C   UNL     1      -3.541  11.269  17.419  0.00  0.00    +0.000 A 
ATOM     33  C   UNL     1      -3.720  11.903  18.626  0.00  0.00    +0.000 A 
ATOM     34  C   UNL     1      -2.738  11.931  19.586  0.00  0.00    +0.000 A 
ATOM     35  O   UNL     1      -4.996  12.351  18.789  0.00  0.00    +0.000 OA
ATOM     36  C   UNL     1      -5.633  11.617  17.725  0.00  0.00    +0.000 C 
ATOM     37  O   UNL     1      -4.698  11.218  16.700  0.00  0.00    +0.000 OA
ENDBRANCH  28  29
ENDBRANCH  23  28
ENDBRANCH  22  24
ENDBRANCH  21  22
ENDBRANCH   1  21
TORSDOF 8
ENDMDL
MODEL 9
REMARK VINA RESULT:      -8.5      1.947      2.662
REMARK  Name = 
REMARK  9 active torsions:
REMARK  status: ('A' for Active; 'I' for Inactive)
REMARK    1  A    between atoms: C_1  and  C_2
REMARK    2  A    between atoms: C_2  and  N_3
REMARK    3  A    between atoms: C_2  and  C_28
REMARK    4  A    between atoms: C_4  and  C_6
REMARK    5  A    between atoms: C_6  and  O_7
REMARK    6  A    between atoms: O_7  and  C_8
REMARK    7  A    between atoms: C_8  and  C_10
REMARK    8  A    between atoms: N_12  and  C_13
REMARK    9  A    between atoms: C_13  and  C_14
REMARK                            x       y       z     vdW  Elec       q    Type
REMARK                         _______ _______ _______ _____ _____    ______ ____
ROOT
ATOM      1  C   UNL     1       2.281   7.175  18.823  0.00  0.00    +0.000 C 
ATOM      2  O   UNL     1       2.285   7.330  20.028  0.00  0.00    +0.000 OA
ENDROOT
BRANCH   1   3
ATOM      3  C   UNL     1       2.973   6.004  18.130  0.00  0.00    +0.000 A 
ATOM      4  N   UNL     1       4.015   6.293  17.408  0.00  0.00    +0.000 NA
ATOM      5  N   UNL     1       4.695   5.278  16.773  0.00  0.00    +0.000 N 
ATOM      6  C   UNL     1       4.334   3.939  16.842  0.00  0.00    +0.000 A 
ATOM      7  O   UNL     1       4.921   3.027  16.253  0.00  0.00    +0.000 OA
ATOM      8  C   UNL     1       3.174   3.609  17.690  0.00  0.00    +0.000 A 
ATOM      9  C   UNL     1       2.796   2.271  17.867  0.00  0.00    +0.000 A 
ATOM     10  C   UNL     1       1.701   1.955  18.671  0.00  0.00    +0.000 A 
ATOM     11  C   UNL     1       0.978   2.972  19.285  0.00  0.00    +0.000 A 
ATOM     12  C   UNL     1       1.359   4.307  19.116  0.00  0.00    +0.000 A 
ATOM     13  C   UNL     1       2.470   4.629  18.323  0.00  0.00    +0.000 A 
BRANCH   5  14
ATOM     14  C   UNL     1       5.940   5.648  16.097  0.00  0.00    +0.000 C 
BRANCH  14  15
ATOM     15  C   UNL     1       6.903   6.311  17.059  0.00  0.00    +0.000 A 
ATOM     16  C   UNL     1       7.397   5.605  18.165  0.00  0.00    +0.000 A 
ATOM     17  C   UNL     1       8.193   6.243  19.116  0.00  0.00    +0.000 A 
ATOM     18  C   UNL     1       8.508   7.592  18.967  0.00  0.00    +0.000 A 
ATOM     19  C   UNL     1       8.042   8.300  17.861  0.00  0.00    +0.000 A 
ATOM     20  C   UNL     1       7.240   7.663  16.911  0.00  0.00    +0.000 A 
ENDBRANCH  14  15
ENDBRANCH   5  14
ENDBRANCH   1   3
BRANCH   1  21
ATOM     21  O   UNL     1       1.708   7.967  17.894  0.00  0.00    +0.000 OA
BRANCH  21  22
ATOM     22  C   UNL     1       1.923   9.368  18.057  0.00  0.00    +0.000 C 
BRANCH  22  24
ATOM     23  N   UNL     1      -0.136  10.692  17.839  0.00  0.00    +0.000 N 
ATOM     24  C   UNL     1       0.721  10.044  18.705  0.00  0.00    +0.000 C 
ATOM     25  O   UNL     1       0.550  10.010  19.921  0.00  0.00    +0.000 OA
ATOM     26  H   UNL     1      -0.025  10.550  16.842  0.00  0.00    +0.000 HD
BRANCH  23  28
ATOM     27  C   UNL     1      -2.415  11.358  17.253  0.00  0.00    +0.000 C 
ATOM     28  C   UNL     1      -1.339  11.336  18.338  0.00  0.00    +0.000 C 
BRANCH  28  29
ATOM     29  C   UNL     1      -1.032  12.662  19.021  0.00  0.00    +0.000 A 
ATOM     30  C   UNL     1      -0.198  13.652  18.442  0.00  0.00    +0.000 A 
ATOM     31  C   UNL     1      -0.199  14.972  18.915  0.00  0.00    +0.000 A 
ATOM     32  C   UNL     1      -1.054  15.274  19.949  0.00  0.00    +0.000 A 
ATOM     33  C   UNL     1      -1.801  14.304  20.577  0.00  0.00    +0.000 A 
ATOM     34  C   UNL     1      -1.790  12.994  20.162  0.00  0.00    +0.000 A 
ATOM     35  O   UNL     1      -2.626  14.823  21.528  0.00  0.00    +0.000 OA
ATOM     36  C   UNL     1      -2.552  16.214  21.159  0.00  0.00    +0.000 C 
ATOM     37  O   UNL     1      -1.353  16.519  20.414  0.00  0.00    +0.000 OA
ENDBRANCH  28  29
ENDBRANCH  23  28
ENDBRANCH  22  24
ENDBRANCH  21  22
ENDBRANCH   1  21
TORSDOF 8
ENDMDL
