MODEL 1
REMARK VINA RESULT:      -8.8      0.000      0.000
REMARK  Name = 
REMARK  4 active torsions:
REMARK  status: ('A' for Active; 'I' for Inactive)
REMARK    1  A    between atoms: C_1  and  C_2
REMARK    2  A    between atoms: C_8  and  C_9
REMARK    3  A    between atoms: N_11  and  C_12
REMARK    4  A    between atoms: C_16  and  C_17
REMARK                            x       y       z     vdW  Elec       q    Type
REMARK                         _______ _______ _______ _____ _____    ______ ____
ROOT
ATOM      1  C   UNL     1       1.631   7.853  20.272  0.00  0.00    +0.000 C 
ATOM      2  O   UNL     1       2.015   8.203  19.158  0.00  0.00    +0.000 OA
ATOM      3  N   UNL     1       1.756   6.576  20.796  0.00  0.00    +0.000 N 
ATOM      4  H   UNL     1       1.066   6.290  21.483  0.00  0.00    +0.000 HD
ENDROOT
BRANCH   1  12
ATOM      5  C   UNL     1      -1.999  12.315  19.715  0.00  0.00    +0.000 C 
ATOM      6  C   UNL     1      -1.423  11.846  20.995  0.00  0.00    +0.000 A 
ATOM      7  N   UNL     1      -1.695  12.478  22.145  0.00  0.00    +0.000 NA
ATOM      8  O   UNL     1      -1.005  11.779  23.131  0.00  0.00    +0.000 OA
ATOM      9  C   UNL     1      -0.327  10.744  22.576  0.00  0.00    +0.000 A 
ATOM     10  N   UNL     1       0.449   9.872  23.256  0.00  0.00    +0.000 NA
ATOM     11  C   UNL     1       1.040   8.943  22.462  0.00  0.00    +0.000 A 
ATOM     12  C   UNL     1       0.884   8.838  21.084  0.00  0.00    +0.000 A 
ATOM     13  C   UNL     1       0.061   9.757  20.422  0.00  0.00    +0.000 A 
ATOM     14  C   UNL     1      -0.559  10.743  21.205  0.00  0.00    +0.000 A 
ENDBRANCH   1  12
BRANCH   3  15
ATOM     15  C   UNL     1       2.326   5.546  20.012  0.00  0.00    +0.000 A 
ATOM     16  C   UNL     1       1.547   4.438  19.684  0.00  0.00    +0.000 A 
ATOM     17  C   UNL     1       2.067   3.453  18.844  0.00  0.00    +0.000 A 
ATOM     18  C   UNL     1       3.394   3.528  18.413  0.00  0.00    +0.000 A 
ATOM     19  C   UNL     1       4.214   4.594  18.807  0.00  0.00    +0.000 A 
ATOM     20  C   UNL     1       3.653   5.626  19.574  0.00  0.00    +0.000 A 
BRANCH  19  21
ATOM     21  C   UNL     1       5.640   4.561  18.493  0.00  0.00    +0.000 A 
ATOM     22  N   UNL     1       6.638   4.773  19.331  0.00  0.00    +0.000 NA
ATOM     23  N   UNL     1       7.818   4.760  18.622  0.00  0.00    +0.000 NA
ATOM     24  C   UNL     1       7.520   4.510  17.370  0.00  0.00    +0.000 A 
ATOM     25  N   UNL     1       6.174   4.357  17.246  0.00  0.00    +0.000 N 
ATOM     26  H   UNL     1       5.663   4.145  16.403  0.00  0.00    +0.000 HD
ENDBRANCH  19  21
ENDBRANCH   3  15
TORSDOF 3
ENDMDL
MODEL 2
REMARK VINA RESULT:      -8.4      2.861      4.189
REMARK  Name = 
REMARK  4 active torsions:
REMARK  status: ('A' for Active; 'I' for Inactive)
REMARK    1  A    between atoms: C_1  and  C_2
REMARK    2  A    between atoms: C_8  and  C_9
REMARK    3  A    between atoms: N_11  and  C_12
REMARK    4  A    between atoms: C_16  and  C_17
REMARK                            x       y       z     vdW  Elec       q    Type
REMARK                         _______ _______ _______ _____ _____    ______ ____
ROOT
ATOM      1  C   UNL     1       3.047   7.014  18.141  0.00  0.00    +0.000 C 
ATOM      2  O   UNL     1       2.755   5.866  18.468  0.00  0.00    +0.000 OA
ATOM      3  N   UNL     1       4.214   7.388  17.492  0.00  0.00    +0.000 N 
ATOM      4  H   UNL     1       4.547   8.333  17.652  0.00  0.00    +0.000 HD
ENDROOT
BRANCH   1  12
ATOM      5  C   UNL     1       0.524   9.208  22.854  0.00  0.00    +0.000 C 
ATOM      6  C   UNL     1       0.288   9.677  21.470  0.00  0.00    +0.000 A 
ATOM      7  N   UNL     1      -0.590  10.657  21.216  0.00  0.00    +0.000 NA
ATOM      8  O   UNL     1      -0.556  10.844  19.837  0.00  0.00    +0.000 OA
ATOM      9  C   UNL     1       0.327   9.983  19.275  0.00  0.00    +0.000 A 
ATOM     10  N   UNL     1       0.594   9.899  17.954  0.00  0.00    +0.000 NA
ATOM     11  C   UNL     1       1.500   8.936  17.645  0.00  0.00    +0.000 A 
ATOM     12  C   UNL     1       2.137   8.102  18.558  0.00  0.00    +0.000 A 
ATOM     13  C   UNL     1       1.838   8.232  19.920  0.00  0.00    +0.000 A 
ATOM     14  C   UNL     1       0.896   9.208  20.280  0.00  0.00    +0.000 A 
ENDBRANCH   1  12
BRANCH   3  15
ATOM     15  C   UNL     1       5.197   6.416  17.197  0.00  0.00    +0.000 A 
ATOM     16  C   UNL     1       6.009   5.944  18.226  0.00  0.00    +0.000 A 
ATOM     17  C   UNL     1       6.929   4.927  17.969  0.00  0.00    +0.000 A 
ATOM     18  C   UNL     1       7.102   4.452  16.667  0.00  0.00    +0.000 A 
ATOM     19  C   UNL     1       6.352   4.979  15.608  0.00  0.00    +0.000 A 
ATOM     20  C   UNL     1       5.365   5.934  15.893  0.00  0.00    +0.000 A 
BRANCH  19  21
ATOM     21  C   UNL     1       6.672   4.596  14.235  0.00  0.00    +0.000 A 
ATOM     22  N   UNL     1       7.454   5.250  13.395  0.00  0.00    +0.000 NA
ATOM     23  N   UNL     1       7.410   4.620  12.172  0.00  0.00    +0.000 NA
ATOM     24  C   UNL     1       6.626   3.576  12.297  0.00  0.00    +0.000 A 
ATOM     25  N   UNL     1       6.161   3.509  13.574  0.00  0.00    +0.000 N 
ATOM     26  H   UNL     1       5.550   2.805  13.961  0.00  0.00    +0.000 HD
ENDBRANCH  19  21
ENDBRANCH   3  15
TORSDOF 3
ENDMDL
MODEL 3
REMARK VINA RESULT:      -8.4      1.078      1.182
REMARK  Name = 
REMARK  4 active torsions:
REMARK  status: ('A' for Active; 'I' for Inactive)
REMARK    1  A    between atoms: C_1  and  C_2
REMARK    2  A    between atoms: C_8  and  C_9
REMARK    3  A    between atoms: N_11  and  C_12
REMARK    4  A    between atoms: C_16  and  C_17
REMARK                            x       y       z     vdW  Elec       q    Type
REMARK                         _______ _______ _______ _____ _____    ______ ____
ROOT
ATOM      1  C   UNL     1       1.669   8.060  19.659  0.00  0.00    +0.000 C 
ATOM      2  O   UNL     1       1.755   8.462  18.500  0.00  0.00    +0.000 OA
ATOM      3  N   UNL     1       2.049   6.801  20.099  0.00  0.00    +0.000 N 
ATOM      4  H   UNL     1       1.565   6.432  20.910  0.00  0.00    +0.000 HD
ENDROOT
BRANCH   1  12
ATOM      5  C   UNL     1      -2.116  12.414  19.994  0.00  0.00    +0.000 C 
ATOM      6  C   UNL     1      -1.357  11.861  21.137  0.00  0.00    +0.000 A 
ATOM      7  N   UNL     1      -1.484  12.384  22.365  0.00  0.00    +0.000 NA
ATOM      8  O   UNL     1      -0.647  11.630  23.183  0.00  0.00    +0.000 OA
ATOM      9  C   UNL     1      -0.026  10.672  22.453  0.00  0.00    +0.000 A 
ATOM     10  N   UNL     1       0.858   9.775  22.942  0.00  0.00    +0.000 NA
ATOM     11  C   UNL     1       1.358   8.939  21.996  0.00  0.00    +0.000 A 
ATOM     12  C   UNL     1       1.016   8.945  20.648  0.00  0.00    +0.000 A 
ATOM     13  C   UNL     1       0.087   9.885  20.187  0.00  0.00    +0.000 A 
ATOM     14  C   UNL     1      -0.445  10.777  21.130  0.00  0.00    +0.000 A 
ENDBRANCH   1  12
BRANCH   3  15
ATOM     15  C   UNL     1       2.542   5.852  19.174  0.00  0.00    +0.000 A 
ATOM     16  C   UNL     1       1.815   4.683  18.955  0.00  0.00    +0.000 A 
ATOM     17  C   UNL     1       2.244   3.775  17.988  0.00  0.00    +0.000 A 
ATOM     18  C   UNL     1       3.447   3.988  17.311  0.00  0.00    +0.000 A 
ATOM     19  C   UNL     1       4.231   5.116  17.584  0.00  0.00    +0.000 A 
ATOM     20  C   UNL     1       3.744   6.070  18.490  0.00  0.00    +0.000 A 
BRANCH  19  21
ATOM     21  C   UNL     1       5.563   5.229  16.997  0.00  0.00    +0.000 A 
ATOM     22  N   UNL     1       6.156   6.337  16.590  0.00  0.00    +0.000 NA
ATOM     23  N   UNL     1       7.355   6.004  16.001  0.00  0.00    +0.000 NA
ATOM     24  C   UNL     1       7.485   4.703  16.087  0.00  0.00    +0.000 A 
ATOM     25  N   UNL     1       6.402   4.179  16.721  0.00  0.00    +0.000 N 
ATOM     26  H   UNL     1       6.237   3.208  16.939  0.00  0.00    +0.000 HD
ENDBRANCH  19  21
ENDBRANCH   3  15
TORSDOF 3
ENDMDL
MODEL 4
REMARK VINA RESULT:      -8.3      6.957      8.451
REMARK  Name = 
REMARK  4 active torsions:
REMARK  status: ('A' for Active; 'I' for Inactive)
REMARK    1  A    between atoms: C_1  and  C_2
REMARK    2  A    between atoms: C_8  and  C_9
REMARK    3  A    between atoms: N_11  and  C_12
REMARK    4  A    between atoms: C_16  and  C_17
REMARK                            x       y       z     vdW  Elec       q    Type
REMARK                         _______ _______ _______ _____ _____    ______ ____
ROOT
ATOM      1  C   UNL     1       8.364   9.059  18.220  0.00  0.00    +0.000 C 
ATOM      2  O   UNL     1       7.538   9.285  17.338  0.00  0.00    +0.000 OA
ATOM      3  N   UNL     1       8.584   7.825  18.812  0.00  0.00    +0.000 N 
ATOM      4  H   UNL     1       8.937   7.827  19.763  0.00  0.00    +0.000 HD
ENDROOT
BRANCH   1  12
ATOM      5  C   UNL     1      11.680  13.485  16.547  0.00  0.00    +0.000 C 
ATOM      6  C   UNL     1      11.388  13.130  17.953  0.00  0.00    +0.000 A 
ATOM      7  N   UNL     1      11.928  13.823  18.965  0.00  0.00    +0.000 NA
ATOM      8  O   UNL     1      11.444  13.231  20.127  0.00  0.00    +0.000 OA
ATOM      9  C   UNL     1      10.628  12.194  19.814  0.00  0.00    +0.000 A 
ATOM     10  N   UNL     1      10.000  11.403  20.711  0.00  0.00    +0.000 NA
ATOM     11  C   UNL     1       9.262  10.418  20.138  0.00  0.00    +0.000 A 
ATOM     12  C   UNL     1       9.114  10.208  18.771  0.00  0.00    +0.000 A 
ATOM     13  C   UNL     1       9.775  11.060  17.878  0.00  0.00    +0.000 A 
ATOM     14  C   UNL     1      10.560  12.084  18.429  0.00  0.00    +0.000 A 
ENDBRANCH   1  12
BRANCH   3  15
ATOM     15  C   UNL     1       7.794   6.714  18.438  0.00  0.00    +0.000 A 
ATOM     16  C   UNL     1       7.260   5.899  19.434  0.00  0.00    +0.000 A 
ATOM     17  C   UNL     1       6.413   4.847  19.085  0.00  0.00    +0.000 A 
ATOM     18  C   UNL     1       6.178   4.553  17.739  0.00  0.00    +0.000 A 
ATOM     19  C   UNL     1       6.778   5.312  16.727  0.00  0.00    +0.000 A 
ATOM     20  C   UNL     1       7.552   6.424  17.089  0.00  0.00    +0.000 A 
BRANCH  19  21
ATOM     21  C   UNL     1       6.662   4.881  15.336  0.00  0.00    +0.000 A 
ATOM     22  N   UNL     1       5.797   4.008  14.850  0.00  0.00    +0.000 NA
ATOM     23  N   UNL     1       6.086   3.798  13.520  0.00  0.00    +0.000 NA
ATOM     24  C   UNL     1       7.101   4.568  13.213  0.00  0.00    +0.000 A 
ATOM     25  N   UNL     1       7.479   5.279  14.310  0.00  0.00    +0.000 N 
ATOM     26  H   UNL     1       8.222   5.960  14.365  0.00  0.00    +0.000 HD
ENDBRANCH  19  21
ENDBRANCH   3  15
TORSDOF 3
ENDMDL
MODEL 5
REMARK VINA RESULT:      -8.2      1.874      2.436
REMARK  Name = 
REMARK  4 active torsions:
REMARK  status: ('A' for Active; 'I' for Inactive)
REMARK    1  A    between atoms: C_1  and  C_2
REMARK    2  A    between atoms: C_8  and  C_9
REMARK    3  A    between atoms: N_11  and  C_12
REMARK    4  A    between atoms: C_16  and  C_17
REMARK                            x       y       z     vdW  Elec       q    Type
REMARK                         _______ _______ _______ _____ _____    ______ ____
ROOT
ATOM      1  C   UNL     1       2.132   8.317  18.374  0.00  0.00    +0.000 C 
ATOM      2  O   UNL     1       2.399   8.470  17.184  0.00  0.00    +0.000 OA
ATOM      3  N   UNL     1       2.249   7.125  19.073  0.00  0.00    +0.000 N 
ATOM      4  H   UNL     1       1.631   6.994  19.866  0.00  0.00    +0.000 HD
ENDROOT
BRANCH   1  12
ATOM      5  C   UNL     1      -0.413   9.635  23.392  0.00  0.00    +0.000 C 
ATOM      6  C   UNL     1      -0.234  10.572  22.261  0.00  0.00    +0.000 A 
ATOM      7  N   UNL     1      -0.703  11.826  22.324  0.00  0.00    +0.000 NA
ATOM      8  O   UNL     1      -0.360  12.418  21.112  0.00  0.00    +0.000 OA
ATOM      9  C   UNL     1       0.303  11.528  20.333  0.00  0.00    +0.000 A 
ATOM     10  N   UNL     1       0.769  11.781  19.091  0.00  0.00    +0.000 NA
ATOM     11  C   UNL     1       1.373  10.712  18.512  0.00  0.00    +0.000 A 
ATOM     12  C   UNL     1       1.541   9.462  19.099  0.00  0.00    +0.000 A 
ATOM     13  C   UNL     1       1.052   9.248  20.394  0.00  0.00    +0.000 A 
ATOM     14  C   UNL     1       0.409  10.324  21.023  0.00  0.00    +0.000 A 
ENDBRANCH   1  12
BRANCH   3  15
ATOM     15  C   UNL     1       2.665   5.953  18.401  0.00  0.00    +0.000 A 
ATOM     16  C   UNL     1       1.883   4.804  18.500  0.00  0.00    +0.000 A 
ATOM     17  C   UNL     1       2.235   3.664  17.778  0.00  0.00    +0.000 A 
ATOM     18  C   UNL     1       3.419   3.642  17.036  0.00  0.00    +0.000 A 
ATOM     19  C   UNL     1       4.258   4.763  16.997  0.00  0.00    +0.000 A 
ATOM     20  C   UNL     1       3.847   5.934  17.650  0.00  0.00    +0.000 A 
BRANCH  19  21
ATOM     21  C   UNL     1       5.570   4.660  16.363  0.00  0.00    +0.000 A 
ATOM     22  N   UNL     1       6.737   4.561  16.975  0.00  0.00    +0.000 NA
ATOM     23  N   UNL     1       7.734   4.597  16.027  0.00  0.00    +0.000 NA
ATOM     24  C   UNL     1       7.156   4.686  14.853  0.00  0.00    +0.000 A 
ATOM     25  N   UNL     1       5.806   4.706  15.013  0.00  0.00    +0.000 N 
ATOM     26  H   UNL     1       5.109   4.756  14.285  0.00  0.00    +0.000 HD
ENDBRANCH  19  21
ENDBRANCH   3  15
TORSDOF 3
ENDMDL
MODEL 6
REMARK VINA RESULT:      -8.1      1.642      1.771
REMARK  Name = 
REMARK  4 active torsions:
REMARK  status: ('A' for Active; 'I' for Inactive)
REMARK    1  A    between atoms: C_1  and  C_2
REMARK    2  A    between atoms: C_8  and  C_9
REMARK    3  A    between atoms: N_11  and  C_12
REMARK    4  A    between atoms: C_16  and  C_17
REMARK                            x       y       z     vdW  Elec       q    Type
REMARK                         _______ _______ _______ _____ _____    ______ ____
ROOT
ATOM      1  C   UNL     1       1.849   8.118  18.844  0.00  0.00    +0.000 C 
ATOM      2  O   UNL     1       1.778   8.289  17.629  0.00  0.00    +0.000 OA
ATOM      3  N   UNL     1       2.301   6.963  19.464  0.00  0.00    +0.000 N 
ATOM      4  H   UNL     1       1.931   6.760  20.386  0.00  0.00    +0.000 HD
ENDROOT
BRANCH   1  12
ATOM      5  C   UNL     1      -0.224  13.507  18.628  0.00  0.00    +0.000 C 
ATOM      6  C   UNL     1       0.011  12.739  19.871  0.00  0.00    +0.000 A 
ATOM      7  N   UNL     1      -0.220  13.286  21.072  0.00  0.00    +0.000 NA
ATOM      8  O   UNL     1       0.097  12.299  22.002  0.00  0.00    +0.000 OA
ATOM      9  C   UNL     1       0.515  11.179  21.364  0.00  0.00    +0.000 A 
ATOM     10  N   UNL     1       0.905  10.039  21.974  0.00  0.00    +0.000 NA
ATOM     11  C   UNL     1       1.306   9.072  21.108  0.00  0.00    +0.000 A 
ATOM     12  C   UNL     1       1.315   9.182  19.721  0.00  0.00    +0.000 A 
ATOM     13  C   UNL     1       0.891  10.379  19.131  0.00  0.00    +0.000 A 
ATOM     14  C   UNL     1       0.482  11.409  19.992  0.00  0.00    +0.000 A 
ENDBRANCH   1  12
BRANCH   3  15
ATOM     15  C   UNL     1       2.685   5.849  18.682  0.00  0.00    +0.000 A 
ATOM     16  C   UNL     1       1.881   4.711  18.688  0.00  0.00    +0.000 A 
ATOM     17  C   UNL     1       2.201   3.635  17.861  0.00  0.00    +0.000 A 
ATOM     18  C   UNL     1       3.374   3.658  17.103  0.00  0.00    +0.000 A 
ATOM     19  C   UNL     1       4.236   4.762  17.154  0.00  0.00    +0.000 A 
ATOM     20  C   UNL     1       3.857   5.876  17.916  0.00  0.00    +0.000 A 
BRANCH  19  21
ATOM     21  C   UNL     1       5.537   4.692  16.494  0.00  0.00    +0.000 A 
ATOM     22  N   UNL     1       6.710   4.524  17.078  0.00  0.00    +0.000 NA
ATOM     23  N   UNL     1       7.696   4.623  16.122  0.00  0.00    +0.000 NA
ATOM     24  C   UNL     1       7.104   4.820  14.969  0.00  0.00    +0.000 A 
ATOM     25  N   UNL     1       5.756   4.847  15.149  0.00  0.00    +0.000 N 
ATOM     26  H   UNL     1       5.051   4.969  14.438  0.00  0.00    +0.000 HD
ENDBRANCH  19  21
ENDBRANCH   3  15
TORSDOF 3
ENDMDL
MODEL 7
REMARK VINA RESULT:      -8.1      2.991      8.765
REMARK  Name = 
REMARK  4 active torsions:
REMARK  status: ('A' for Active; 'I' for Inactive)
REMARK    1  A    between atoms: C_1  and  C_2
REMARK    2  A    between atoms: C_8  and  C_9
REMARK    3  A    between atoms: N_11  and  C_12
REMARK    4  A    between atoms: C_16  and  C_17
REMARK                            x       y       z     vdW  Elec       q    Type
REMARK                         _______ _______ _______ _____ _____    ______ ____
ROOT
ATOM      1  C   UNL     1       2.284   8.261  18.099  0.00  0.00    +0.000 C 
ATOM      2  O   UNL     1       2.410   8.959  17.094  0.00  0.00    +0.000 OA
ATOM      3  N   UNL     1       1.463   8.552  19.177  0.00  0.00    +0.000 N 
ATOM      4  H   UNL     1       1.740   8.183  20.080  0.00  0.00    +0.000 HD
ENDROOT
BRANCH   1  12
ATOM      5  C   UNL     1       2.569   3.168  20.814  0.00  0.00    +0.000 C 
ATOM      6  C   UNL     1       3.627   3.723  19.942  0.00  0.00    +0.000 A 
ATOM      7  N   UNL     1       4.778   3.064  19.751  0.00  0.00    +0.000 NA
ATOM      8  O   UNL     1       5.527   3.857  18.887  0.00  0.00    +0.000 OA
ATOM      9  C   UNL     1       4.834   4.978  18.569  0.00  0.00    +0.000 A 
ATOM     10  N   UNL     1       5.279   5.961  17.757  0.00  0.00    +0.000 NA
ATOM     11  C   UNL     1       4.403   6.989  17.622  0.00  0.00    +0.000 A 
ATOM     12  C   UNL     1       3.149   7.068  18.220  0.00  0.00    +0.000 A 
ATOM     13  C   UNL     1       2.724   6.020  19.046  0.00  0.00    +0.000 A 
ATOM     14  C   UNL     1       3.606   4.943  19.222  0.00  0.00    +0.000 A 
ENDBRANCH   1  12
BRANCH   3  15
ATOM     15  C   UNL     1       0.721   9.755  19.191  0.00  0.00    +0.000 A 
ATOM     16  C   UNL     1       1.056  10.744  20.115  0.00  0.00    +0.000 A 
ATOM     17  C   UNL     1       0.388  11.968  20.089  0.00  0.00    +0.000 A 
ATOM     18  C   UNL     1      -0.676  12.167  19.206  0.00  0.00    +0.000 A 
ATOM     19  C   UNL     1      -1.078  11.150  18.331  0.00  0.00    +0.000 A 
ATOM     20  C   UNL     1      -0.340   9.958  18.300  0.00  0.00    +0.000 A 
BRANCH  19  21
ATOM     21  C   UNL     1      -2.298  11.315  17.544  0.00  0.00    +0.000 A 
ATOM     22  N   UNL     1      -3.513  11.542  18.010  0.00  0.00    +0.000 NA
ATOM     23  N   UNL     1      -4.398  11.526  16.956  0.00  0.00    +0.000 NA
ATOM     24  C   UNL     1      -3.703  11.321  15.864  0.00  0.00    +0.000 A 
ATOM     25  N   UNL     1      -2.385  11.206  16.180  0.00  0.00    +0.000 N 
ATOM     26  H   UNL     1      -1.618  11.059  15.541  0.00  0.00    +0.000 HD
ENDBRANCH  19  21
ENDBRANCH   3  15
TORSDOF 3
ENDMDL
MODEL 8
REMARK VINA RESULT:      -8.1      3.005      9.020
REMARK  Name = 
REMARK  4 active torsions:
REMARK  status: ('A' for Active; 'I' for Inactive)
REMARK    1  A    between atoms: C_1  and  C_2
REMARK    2  A    between atoms: C_8  and  C_9
REMARK    3  A    between atoms: N_11  and  C_12
REMARK    4  A    between atoms: C_16  and  C_17
REMARK                            x       y       z     vdW  Elec       q    Type
REMARK                         _______ _______ _______ _____ _____    ______ ____
ROOT
ATOM      1  C   UNL     1       2.101   8.518  18.209  0.00  0.00    +0.000 C 
ATOM      2  O   UNL     1       2.234   8.979  17.077  0.00  0.00    +0.000 OA
ATOM      3  N   UNL     1       1.294   9.054  19.201  0.00  0.00    +0.000 N 
ATOM      4  H   UNL     1       1.571   8.883  20.162  0.00  0.00    +0.000 HD
ENDROOT
BRANCH   1  12
ATOM      5  C   UNL     1       6.898   5.732  16.591  0.00  0.00    +0.000 C 
ATOM      6  C   UNL     1       5.994   5.300  17.679  0.00  0.00    +0.000 A 
ATOM      7  N   UNL     1       6.227   4.170  18.360  0.00  0.00    +0.000 NA
ATOM      8  O   UNL     1       5.202   4.076  19.297  0.00  0.00    +0.000 OA
ATOM      9  C   UNL     1       4.365   5.136  19.174  0.00  0.00    +0.000 A 
ATOM     10  N   UNL     1       3.264   5.345  19.928  0.00  0.00    +0.000 NA
ATOM     11  C   UNL     1       2.581   6.468  19.586  0.00  0.00    +0.000 A 
ATOM     12  C   UNL     1       2.943   7.361  18.584  0.00  0.00    +0.000 A 
ATOM     13  C   UNL     1       4.099   7.110  17.835  0.00  0.00    +0.000 A 
ATOM     14  C   UNL     1       4.827   5.953  18.147  0.00  0.00    +0.000 A 
ENDBRANCH   1  12
BRANCH   3  15
ATOM     15  C   UNL     1       0.577  10.247  18.956  0.00  0.00    +0.000 A 
ATOM     16  C   UNL     1       1.129  11.461  19.361  0.00  0.00    +0.000 A 
ATOM     17  C   UNL     1       0.474  12.654  19.055  0.00  0.00    +0.000 A 
ATOM     18  C   UNL     1      -0.776  12.627  18.432  0.00  0.00    +0.000 A 
ATOM     19  C   UNL     1      -1.382  11.409  18.098  0.00  0.00    +0.000 A 
ATOM     20  C   UNL     1      -0.672  10.221  18.325  0.00  0.00    +0.000 A 
BRANCH  19  21
ATOM     21  C   UNL     1      -2.759  11.397  17.611  0.00  0.00    +0.000 A 
ATOM     22  N   UNL     1      -3.188  10.893  16.468  0.00  0.00    +0.000 NA
ATOM     23  N   UNL     1      -4.528  11.179  16.337  0.00  0.00    +0.000 NA
ATOM     24  C   UNL     1      -4.898  11.826  17.416  0.00  0.00    +0.000 A 
ATOM     25  N   UNL     1      -3.832  11.965  18.249  0.00  0.00    +0.000 N 
ATOM     26  H   UNL     1      -3.824  12.407  19.156  0.00  0.00    +0.000 HD
ENDBRANCH  19  21
ENDBRANCH   3  15
TORSDOF 3
ENDMDL
MODEL 9
REMARK VINA RESULT:      -8.1      1.676      2.317
REMARK  Name = 
REMARK  4 active torsions:
REMARK  status: ('A' for Active; 'I' for Inactive)
REMARK    1  A    between atoms: C_1  and  C_2
REMARK    2  A    between atoms: C_8  and  C_9
REMARK    3  A    between atoms: N_11  and  C_12
REMARK    4  A    between atoms: C_16  and  C_17
REMARK                            x       y       z     vdW  Elec       q    Type
REMARK                         _______ _______ _______ _____ _____    ______ ____
ROOT
ATOM      1  C   UNL     1       1.944   8.616  18.398  0.00  0.00    +0.000 C 
ATOM      2  O   UNL     1       2.274   8.760  17.223  0.00  0.00    +0.000 OA
ATOM      3  N   UNL     1       2.082   7.447  19.130  0.00  0.00    +0.000 N 
ATOM      4  H   UNL     1       1.425   7.298  19.888  0.00  0.00    +0.000 HD
ENDROOT
BRANCH   1  12
ATOM      5  C   UNL     1      -0.729   9.970  23.339  0.00  0.00    +0.000 C 
ATOM      6  C   UNL     1      -0.630  10.857  22.159  0.00  0.00    +0.000 A 
ATOM      7  N   UNL     1      -1.210  12.065  22.155  0.00  0.00    +0.000 NA
ATOM      8  O   UNL     1      -0.917  12.619  20.913  0.00  0.00    +0.000 OA
ATOM      9  C   UNL     1      -0.174  11.751  20.182  0.00  0.00    +0.000 A 
ATOM     10  N   UNL     1       0.272  11.978  18.928  0.00  0.00    +0.000 NA
ATOM     11  C   UNL     1       0.972  10.937  18.407  0.00  0.00    +0.000 A 
ATOM     12  C   UNL     1       1.250   9.741  19.061  0.00  0.00    +0.000 A 
ATOM     13  C   UNL     1       0.776   9.554  20.366  0.00  0.00    +0.000 A 
ATOM     14  C   UNL     1       0.037  10.601  20.936  0.00  0.00    +0.000 A 
ENDBRANCH   1  12
BRANCH   3  15
ATOM     15  C   UNL     1       2.600   6.286  18.511  0.00  0.00    +0.000 A 
ATOM     16  C   UNL     1       1.737   5.229  18.228  0.00  0.00    +0.000 A 
ATOM     17  C   UNL     1       2.216   4.111  17.544  0.00  0.00    +0.000 A 
ATOM     18  C   UNL     1       3.573   4.009  17.231  0.00  0.00    +0.000 A 
ATOM     19  C   UNL     1       4.467   5.027  17.587  0.00  0.00    +0.000 A 
ATOM     20  C   UNL     1       3.960   6.187  18.189  0.00  0.00    +0.000 A 
BRANCH  19  21
ATOM     21  C   UNL     1       5.902   4.822  17.409  0.00  0.00    +0.000 A 
ATOM     22  N   UNL     1       6.544   4.682  16.262  0.00  0.00    +0.000 NA
ATOM     23  N   UNL     1       7.865   4.401  16.529  0.00  0.00    +0.000 NA
ATOM     24  C   UNL     1       8.011   4.406  17.832  0.00  0.00    +0.000 A 
ATOM     25  N   UNL     1       6.817   4.687  18.421  0.00  0.00    +0.000 N 
ATOM     26  H   UNL     1       6.634   4.769  19.410  0.00  0.00    +0.000 HD
ENDBRANCH  19  21
ENDBRANCH   3  15
TORSDOF 3
ENDMDL
