MODEL 1
REMARK VINA RESULT:      -9.9      0.000      0.000
REMARK  Name = 
REMARK  6 active torsions:
REMARK  status: ('A' for Active; 'I' for Inactive)
REMARK    1  A    between atoms: C_2  and  C_3
REMARK    2  A    between atoms: C_3  and  O_4
REMARK    3  A    between atoms: O_4  and  C_5
REMARK    4  A    between atoms: C_5  and  C_7
REMARK    5  A    between atoms: C_7  and  N_8
REMARK    6  A    between atoms: N_20  and  C_21
REMARK                            x       y       z     vdW  Elec       q    Type
REMARK                         _______ _______ _______ _____ _____    ______ ____
ROOT
ATOM      1  C   UNL     1       6.796   5.423  16.615  0.00  0.00    +0.000 C 
ATOM      2  O   UNL     1       7.641   4.579  16.897  0.00  0.00    +0.000 OA
ENDROOT
BRANCH   1   3
ATOM      3  O   UNL     1       6.917   6.753  16.879  0.00  0.00    +0.000 OA
BRANCH   3   4
ATOM      4  C   UNL     1       7.787   7.074  17.964  0.00  0.00    +0.000 C 
BRANCH   4   6
ATOM      5  O   UNL     1       7.496   9.335  17.221  0.00  0.00    +0.000 OA
ATOM      6  C   UNL     1       8.048   8.574  18.014  0.00  0.00    +0.000 C 
ATOM      7  N   UNL     1       8.964   8.952  18.997  0.00  0.00    +0.000 N 
ATOM      8  H   UNL     1       9.662   8.252  19.238  0.00  0.00    +0.000 HD
BRANCH   7   9
ATOM      9  C   UNL     1       9.294  10.303  19.190  0.00  0.00    +0.000 A 
ATOM     10  C   UNL     1       9.380  10.793  20.504  0.00  0.00    +0.000 A 
ATOM     11  C   UNL     1      10.106  11.959  20.754  0.00  0.00    +0.000 A 
ATOM     12  C   UNL     1      10.657  12.615  19.667  0.00  0.00    +0.000 A 
ATOM     13  C   UNL     1      10.315  12.274  18.353  0.00  0.00    +0.000 A 
ATOM     14  C   UNL     1       9.668  11.088  18.097  0.00  0.00    +0.000 A 
ATOM     15  C   UNL     1      11.038  13.157  17.387  0.00  0.00    +0.000 C 
ATOM     16  C   UNL     1      12.333  13.276  18.189  0.00  0.00    +0.000 C 
ATOM     17  C   UNL     1      11.855  13.526  19.639  0.00  0.00    +0.000 C 
ENDBRANCH   7   9
ENDBRANCH   4   6
ENDBRANCH   3   4
ENDBRANCH   1   3
BRANCH   1  18
ATOM     18  C   UNL     1       5.420   5.136  16.044  0.00  0.00    +0.000 C 
BRANCH  18  19
ATOM     19  N   UNL     1       4.565   4.575  17.074  0.00  0.00    +0.000 N 
ATOM     20  N   UNL     1       4.555   3.185  17.168  0.00  0.00    +0.000 N 
ATOM     21  C   UNL     1       3.756   2.508  18.064  0.00  0.00    +0.000 A 
ATOM     22  O   UNL     1       3.737   1.284  18.099  0.00  0.00    +0.000 OA
ATOM     23  C   UNL     1       2.932   3.326  18.967  0.00  0.00    +0.000 A 
ATOM     24  C   UNL     1       2.168   2.701  19.963  0.00  0.00    +0.000 A 
ATOM     25  C   UNL     1       1.371   3.467  20.816  0.00  0.00    +0.000 A 
ATOM     26  C   UNL     1       1.323   4.852  20.668  0.00  0.00    +0.000 A 
ATOM     27  C   UNL     1       2.077   5.478  19.675  0.00  0.00    +0.000 A 
ATOM     28  C   UNL     1       2.892   4.714  18.829  0.00  0.00    +0.000 A 
ATOM     29  C   UNL     1       3.716   5.386  17.801  0.00  0.00    +0.000 A 
ATOM     30  O   UNL     1       3.644   6.601  17.624  0.00  0.00    +0.000 OA
ATOM     31  H   UNL     1       5.034   2.625  16.473  0.00  0.00    +0.000 HD
ENDBRANCH  18  19
ENDBRANCH   1  18
TORSDOF 6
ENDMDL
MODEL 2
REMARK VINA RESULT:      -9.6      0.966      1.809
REMARK  Name = 
REMARK  6 active torsions:
REMARK  status: ('A' for Active; 'I' for Inactive)
REMARK    1  A    between atoms: C_2  and  C_3
REMARK    2  A    between atoms: C_3  and  O_4
REMARK    3  A    between atoms: O_4  and  C_5
REMARK    4  A    between atoms: C_5  and  C_7
REMARK    5  A    between atoms: C_7  and  N_8
REMARK    6  A    between atoms: N_20  and  C_21
REMARK                            x       y       z     vdW  Elec       q    Type
REMARK                         _______ _______ _______ _____ _____    ______ ____
ROOT
ATOM      1  C   UNL     1       7.176   5.364  16.460  0.00  0.00    +0.000 C 
ATOM      2  O   UNL     1       7.818   4.370  16.787  0.00  0.00    +0.000 OA
ENDROOT
BRANCH   1   3
ATOM      3  O   UNL     1       7.605   6.646  16.626  0.00  0.00    +0.000 OA
BRANCH   3   4
ATOM      4  C   UNL     1       7.753   7.060  17.984  0.00  0.00    +0.000 C 
BRANCH   4   6
ATOM      5  O   UNL     1       7.445   9.343  17.318  0.00  0.00    +0.000 OA
ATOM      6  C   UNL     1       8.032   8.555  18.060  0.00  0.00    +0.000 C 
ATOM      7  N   UNL     1       9.003   8.899  19.000  0.00  0.00    +0.000 N 
ATOM      8  H   UNL     1       9.707   8.187  19.184  0.00  0.00    +0.000 HD
BRANCH   7   9
ATOM      9  C   UNL     1       9.357  10.241  19.211  0.00  0.00    +0.000 A 
ATOM     10  C   UNL     1       9.605  11.055  18.094  0.00  0.00    +0.000 A 
ATOM     11  C   UNL     1       9.528  12.443  18.227  0.00  0.00    +0.000 A 
ATOM     12  C   UNL     1       9.271  12.952  19.489  0.00  0.00    +0.000 A 
ATOM     13  C   UNL     1       9.319  12.142  20.630  0.00  0.00    +0.000 A 
ATOM     14  C   UNL     1       9.317  10.773  20.502  0.00  0.00    +0.000 A 
ATOM     15  C   UNL     1       9.026  12.955  21.851  0.00  0.00    +0.000 C 
ATOM     16  C   UNL     1       7.998  13.882  21.204  0.00  0.00    +0.000 C 
ATOM     17  C   UNL     1       8.640  14.269  19.850  0.00  0.00    +0.000 C 
ENDBRANCH   7   9
ENDBRANCH   4   6
ENDBRANCH   3   4
ENDBRANCH   1   3
BRANCH   1  18
ATOM     18  C   UNL     1       5.753   5.362  15.935  0.00  0.00    +0.000 C 
BRANCH  18  19
ATOM     19  N   UNL     1       4.849   4.878  16.963  0.00  0.00    +0.000 N 
ATOM     20  N   UNL     1       4.692   3.495  17.033  0.00  0.00    +0.000 N 
ATOM     21  C   UNL     1       3.831   2.892  17.924  0.00  0.00    +0.000 A 
ATOM     22  O   UNL     1       3.682   1.676  17.939  0.00  0.00    +0.000 OA
ATOM     23  C   UNL     1       3.104   3.776  18.847  0.00  0.00    +0.000 A 
ATOM     24  C   UNL     1       2.284   3.219  19.838  0.00  0.00    +0.000 A 
ATOM     25  C   UNL     1       1.577   4.051  20.709  0.00  0.00    +0.000 A 
ATOM     26  C   UNL     1       1.675   5.435  20.585  0.00  0.00    +0.000 A 
ATOM     27  C   UNL     1       2.486   5.995  19.596  0.00  0.00    +0.000 A 
ATOM     28  C   UNL     1       3.210   5.163  18.732  0.00  0.00    +0.000 A 
ATOM     29  C   UNL     1       4.095   5.761  17.710  0.00  0.00    +0.000 A 
ATOM     30  O   UNL     1       4.152   6.980  17.553  0.00  0.00    +0.000 OA
ATOM     31  H   UNL     1       5.105   2.900  16.326  0.00  0.00    +0.000 HD
ENDBRANCH  18  19
ENDBRANCH   1  18
TORSDOF 6
ENDMDL
MODEL 3
REMARK VINA RESULT:      -9.4      1.048      1.984
REMARK  Name = 
REMARK  6 active torsions:
REMARK  status: ('A' for Active; 'I' for Inactive)
REMARK    1  A    between atoms: C_2  and  C_3
REMARK    2  A    between atoms: C_3  and  O_4
REMARK    3  A    between atoms: O_4  and  C_5
REMARK    4  A    between atoms: C_5  and  C_7
REMARK    5  A    between atoms: C_7  and  N_8
REMARK    6  A    between atoms: N_20  and  C_21
REMARK                            x       y       z     vdW  Elec       q    Type
REMARK                         _______ _______ _______ _____ _____    ______ ____
ROOT
ATOM      1  C   UNL     1       6.598   5.816  16.924  0.00  0.00    +0.000 C 
ATOM      2  O   UNL     1       7.435   4.932  16.766  0.00  0.00    +0.000 OA
ENDROOT
BRANCH   1   3
ATOM      3  O   UNL     1       6.699   6.815  17.844  0.00  0.00    +0.000 OA
BRANCH   3   4
ATOM      4  C   UNL     1       8.033   7.172  18.202  0.00  0.00    +0.000 C 
BRANCH   4   6
ATOM      5  O   UNL     1       7.522   9.399  17.475  0.00  0.00    +0.000 OA
ATOM      6  C   UNL     1       8.197   8.686  18.217  0.00  0.00    +0.000 C 
ATOM      7  N   UNL     1       9.174   9.137  19.105  0.00  0.00    +0.000 N 
ATOM      8  H   UNL     1       9.938   8.489  19.283  0.00  0.00    +0.000 HD
BRANCH   7   9
ATOM      9  C   UNL     1       9.429  10.509  19.257  0.00  0.00    +0.000 A 
ATOM     10  C   UNL     1       9.459  11.049  20.554  0.00  0.00    +0.000 A 
ATOM     11  C   UNL     1      10.118  12.260  20.777  0.00  0.00    +0.000 A 
ATOM     12  C   UNL     1      10.660  12.905  19.679  0.00  0.00    +0.000 A 
ATOM     13  C   UNL     1      10.367  12.501  18.371  0.00  0.00    +0.000 A 
ATOM     14  C   UNL     1       9.788  11.275  18.144  0.00  0.00    +0.000 A 
ATOM     15  C   UNL     1      11.066  13.387  17.389  0.00  0.00    +0.000 C 
ATOM     16  C   UNL     1      12.333  13.601  18.214  0.00  0.00    +0.000 C 
ATOM     17  C   UNL     1      11.809  13.876  19.644  0.00  0.00    +0.000 C 
ENDBRANCH   7   9
ENDBRANCH   4   6
ENDBRANCH   3   4
ENDBRANCH   1   3
BRANCH   1  18
ATOM     18  C   UNL     1       5.253   5.894  16.227  0.00  0.00    +0.000 C 
BRANCH  18  19
ATOM     19  N   UNL     1       4.204   5.452  17.128  0.00  0.00    +0.000 N 
ATOM     20  N   UNL     1       3.629   6.441  17.924  0.00  0.00    +0.000 N 
ATOM     21  C   UNL     1       2.657   6.165  18.861  0.00  0.00    +0.000 A 
ATOM     22  O   UNL     1       2.196   7.046  19.576  0.00  0.00    +0.000 OA
ATOM     23  C   UNL     1       2.209   4.768  18.961  0.00  0.00    +0.000 A 
ATOM     24  C   UNL     1       1.159   4.438  19.829  0.00  0.00    +0.000 A 
ATOM     25  C   UNL     1       0.736   3.112  19.941  0.00  0.00    +0.000 A 
ATOM     26  C   UNL     1       1.366   2.113  19.202  0.00  0.00    +0.000 A 
ATOM     27  C   UNL     1       2.416   2.436  18.341  0.00  0.00    +0.000 A 
ATOM     28  C   UNL     1       2.831   3.768  18.212  0.00  0.00    +0.000 A 
ATOM     29  C   UNL     1       3.920   4.108  17.272  0.00  0.00    +0.000 A 
ATOM     30  O   UNL     1       4.521   3.233  16.652  0.00  0.00    +0.000 OA
ATOM     31  H   UNL     1       4.017   7.376  17.933  0.00  0.00    +0.000 HD
ENDBRANCH  18  19
ENDBRANCH   1  18
TORSDOF 6
ENDMDL
MODEL 4
REMARK VINA RESULT:      -9.2      1.530      2.314
REMARK  Name = 
REMARK  6 active torsions:
REMARK  status: ('A' for Active; 'I' for Inactive)
REMARK    1  A    between atoms: C_2  and  C_3
REMARK    2  A    between atoms: C_3  and  O_4
REMARK    3  A    between atoms: O_4  and  C_5
REMARK    4  A    between atoms: C_5  and  C_7
REMARK    5  A    between atoms: C_7  and  N_8
REMARK    6  A    between atoms: N_20  and  C_21
REMARK                            x       y       z     vdW  Elec       q    Type
REMARK                         _______ _______ _______ _____ _____    ______ ____
ROOT
ATOM      1  C   UNL     1       5.766   5.799  16.441  0.00  0.00    +0.000 C 
ATOM      2  O   UNL     1       5.271   6.349  15.462  0.00  0.00    +0.000 OA
ENDROOT
BRANCH   1   3
ATOM      3  O   UNL     1       6.563   6.420  17.352  0.00  0.00    +0.000 OA
BRANCH   3   4
ATOM      4  C   UNL     1       6.737   7.822  17.144  0.00  0.00    +0.000 C 
BRANCH   4   6
ATOM      5  O   UNL     1       8.554   7.588  18.691  0.00  0.00    +0.000 OA
ATOM      6  C   UNL     1       7.902   8.346  17.974  0.00  0.00    +0.000 C 
ATOM      7  N   UNL     1       8.106   9.720  17.850  0.00  0.00    +0.000 N 
ATOM      8  H   UNL     1       7.276  10.270  17.637  0.00  0.00    +0.000 HD
BRANCH   7   9
ATOM      9  C   UNL     1       9.157  10.355  18.530  0.00  0.00    +0.000 A 
ATOM     10  C   UNL     1      10.274  10.784  17.794  0.00  0.00    +0.000 A 
ATOM     11  C   UNL     1      11.107  11.771  18.324  0.00  0.00    +0.000 A 
ATOM     12  C   UNL     1      10.819  12.235  19.596  0.00  0.00    +0.000 A 
ATOM     13  C   UNL     1       9.887  11.592  20.419  0.00  0.00    +0.000 A 
ATOM     14  C   UNL     1       9.014  10.676  19.882  0.00  0.00    +0.000 A 
ATOM     15  C   UNL     1       9.795  12.291  21.738  0.00  0.00    +0.000 C 
ATOM     16  C   UNL     1       9.993  13.708  21.202  0.00  0.00    +0.000 C 
ATOM     17  C   UNL     1      11.164  13.570  20.199  0.00  0.00    +0.000 C 
ENDBRANCH   7   9
ENDBRANCH   4   6
ENDBRANCH   3   4
ENDBRANCH   1   3
BRANCH   1  18
ATOM     18  C   UNL     1       5.691   4.315  16.750  0.00  0.00    +0.000 C 
BRANCH  18  19
ATOM     19  N   UNL     1       4.518   4.039  17.560  0.00  0.00    +0.000 N 
ATOM     20  N   UNL     1       3.288   4.255  16.944  0.00  0.00    +0.000 N 
ATOM     21  C   UNL     1       2.089   4.083  17.602  0.00  0.00    +0.000 A 
ATOM     22  O   UNL     1       1.022   4.318  17.049  0.00  0.00    +0.000 OA
ATOM     23  C   UNL     1       2.158   3.610  18.993  0.00  0.00    +0.000 A 
ATOM     24  C   UNL     1       0.973   3.328  19.687  0.00  0.00    +0.000 A 
ATOM     25  C   UNL     1       1.027   2.892  21.013  0.00  0.00    +0.000 A 
ATOM     26  C   UNL     1       2.258   2.752  21.652  0.00  0.00    +0.000 A 
ATOM     27  C   UNL     1       3.440   3.038  20.966  0.00  0.00    +0.000 A 
ATOM     28  C   UNL     1       3.390   3.458  19.630  0.00  0.00    +0.000 A 
ATOM     29  C   UNL     1       4.646   3.725  18.899  0.00  0.00    +0.000 A 
ATOM     30  O   UNL     1       5.737   3.658  19.463  0.00  0.00    +0.000 OA
ATOM     31  H   UNL     1       3.246   4.686  16.029  0.00  0.00    +0.000 HD
ENDBRANCH  18  19
ENDBRANCH   1  18
TORSDOF 6
ENDMDL
MODEL 5
REMARK VINA RESULT:      -9.2      3.694      7.458
REMARK  Name = 
REMARK  6 active torsions:
REMARK  status: ('A' for Active; 'I' for Inactive)
REMARK    1  A    between atoms: C_2  and  C_3
REMARK    2  A    between atoms: C_3  and  O_4
REMARK    3  A    between atoms: O_4  and  C_5
REMARK    4  A    between atoms: C_5  and  C_7
REMARK    5  A    between atoms: C_7  and  N_8
REMARK    6  A    between atoms: N_20  and  C_21
REMARK                            x       y       z     vdW  Elec       q    Type
REMARK                         _______ _______ _______ _____ _____    ______ ____
ROOT
ATOM      1  C   UNL     1       2.171   3.399  17.941  0.00  0.00    +0.000 C 
ATOM      2  O   UNL     1       1.518   4.170  17.244  0.00  0.00    +0.000 OA
ENDROOT
BRANCH   1   3
ATOM      3  O   UNL     1       1.785   2.959  19.171  0.00  0.00    +0.000 OA
BRANCH   3   4
ATOM      4  C   UNL     1       2.309   3.705  20.269  0.00  0.00    +0.000 C 
BRANCH   4   6
ATOM      5  O   UNL     1       0.775   5.483  20.752  0.00  0.00    +0.000 OA
ATOM      6  C   UNL     1       1.828   5.149  20.212  0.00  0.00    +0.000 C 
ATOM      7  N   UNL     1       2.669   5.993  19.485  0.00  0.00    +0.000 N 
ATOM      8  H   UNL     1       3.198   5.547  18.738  0.00  0.00    +0.000 HD
BRANCH   7   9
ATOM      9  C   UNL     1       2.380   7.361  19.359  0.00  0.00    +0.000 A 
ATOM     10  C   UNL     1       2.658   7.998  18.137  0.00  0.00    +0.000 A 
ATOM     11  C   UNL     1       2.010   9.194  17.825  0.00  0.00    +0.000 A 
ATOM     12  C   UNL     1       1.162   9.730  18.779  0.00  0.00    +0.000 A 
ATOM     13  C   UNL     1       1.127   9.239  20.089  0.00  0.00    +0.000 A 
ATOM     14  C   UNL     1       1.699   8.023  20.383  0.00  0.00    +0.000 A 
ATOM     15  C   UNL     1       0.144  10.016  20.905  0.00  0.00    +0.000 C 
ATOM     16  C   UNL     1      -0.874  10.242  19.790  0.00  0.00    +0.000 C 
ATOM     17  C   UNL     1      -0.012  10.648  18.570  0.00  0.00    +0.000 C 
ENDBRANCH   7   9
ENDBRANCH   4   6
ENDBRANCH   3   4
ENDBRANCH   1   3
BRANCH   1  18
ATOM     18  C   UNL     1       3.569   2.898  17.631  0.00  0.00    +0.000 C 
BRANCH  18  19
ATOM     19  N   UNL     1       4.486   4.019  17.540  0.00  0.00    +0.000 N 
ATOM     20  N   UNL     1       4.378   4.803  16.393  0.00  0.00    +0.000 N 
ATOM     21  C   UNL     1       5.212   5.871  16.144  0.00  0.00    +0.000 A 
ATOM     22  O   UNL     1       5.122   6.520  15.110  0.00  0.00    +0.000 OA
ATOM     23  C   UNL     1       6.212   6.187  17.176  0.00  0.00    +0.000 A 
ATOM     24  C   UNL     1       7.029   7.316  17.025  0.00  0.00    +0.000 A 
ATOM     25  C   UNL     1       7.991   7.616  17.992  0.00  0.00    +0.000 A 
ATOM     26  C   UNL     1       8.150   6.785  19.100  0.00  0.00    +0.000 A 
ATOM     27  C   UNL     1       7.343   5.657  19.251  0.00  0.00    +0.000 A 
ATOM     28  C   UNL     1       6.364   5.363  18.291  0.00  0.00    +0.000 A 
ATOM     29  C   UNL     1       5.489   4.186  18.475  0.00  0.00    +0.000 A 
ATOM     30  O   UNL     1       5.651   3.414  19.419  0.00  0.00    +0.000 OA
ATOM     31  H   UNL     1       3.768   4.517  15.637  0.00  0.00    +0.000 HD
ENDBRANCH  18  19
ENDBRANCH   1  18
TORSDOF 6
ENDMDL
MODEL 6
REMARK VINA RESULT:      -9.0      1.359      2.659
REMARK  Name = 
REMARK  6 active torsions:
REMARK  status: ('A' for Active; 'I' for Inactive)
REMARK    1  A    between atoms: C_2  and  C_3
REMARK    2  A    between atoms: C_3  and  O_4
REMARK    3  A    between atoms: O_4  and  C_5
REMARK    4  A    between atoms: C_5  and  C_7
REMARK    5  A    between atoms: C_7  and  N_8
REMARK    6  A    between atoms: N_20  and  C_21
REMARK                            x       y       z     vdW  Elec       q    Type
REMARK                         _______ _______ _______ _____ _____    ______ ____
ROOT
ATOM      1  C   UNL     1       6.552   6.116  16.499  0.00  0.00    +0.000 C 
ATOM      2  O   UNL     1       7.539   5.613  15.972  0.00  0.00    +0.000 OA
ENDROOT
BRANCH   1   3
ATOM      3  O   UNL     1       6.559   6.741  17.708  0.00  0.00    +0.000 OA
BRANCH   3   4
ATOM      4  C   UNL     1       7.857   7.033  18.227  0.00  0.00    +0.000 C 
BRANCH   4   6
ATOM      5  O   UNL     1       7.570   9.248  17.355  0.00  0.00    +0.000 OA
ATOM      6  C   UNL     1       8.124   8.532  18.188  0.00  0.00    +0.000 C 
ATOM      7  N   UNL     1       9.047   8.963  19.142  0.00  0.00    +0.000 N 
ATOM      8  H   UNL     1       9.744   8.276  19.420  0.00  0.00    +0.000 HD
BRANCH   7   9
ATOM      9  C   UNL     1       9.384  10.321  19.254  0.00  0.00    +0.000 A 
ATOM     10  C   UNL     1       9.609  11.058  18.080  0.00  0.00    +0.000 A 
ATOM     11  C   UNL     1       9.514  12.451  18.116  0.00  0.00    +0.000 A 
ATOM     12  C   UNL     1       9.262  13.044  19.341  0.00  0.00    +0.000 A 
ATOM     13  C   UNL     1       9.332  12.317  20.536  0.00  0.00    +0.000 A 
ATOM     14  C   UNL     1       9.348  10.943  20.505  0.00  0.00    +0.000 A 
ATOM     15  C   UNL     1       9.039  13.210  21.699  0.00  0.00    +0.000 C 
ATOM     16  C   UNL     1       7.992  14.075  21.001  0.00  0.00    +0.000 C 
ATOM     17  C   UNL     1       8.616  14.374  19.616  0.00  0.00    +0.000 C 
ENDBRANCH   7   9
ENDBRANCH   4   6
ENDBRANCH   3   4
ENDBRANCH   1   3
BRANCH   1  18
ATOM     18  C   UNL     1       5.131   6.027  15.976  0.00  0.00    +0.000 C 
BRANCH  18  19
ATOM     19  N   UNL     1       4.229   5.668  17.055  0.00  0.00    +0.000 N 
ATOM     20  N   UNL     1       3.714   6.728  17.798  0.00  0.00    +0.000 N 
ATOM     21  C   UNL     1       2.885   6.540  18.883  0.00  0.00    +0.000 A 
ATOM     22  O   UNL     1       2.479   7.487  19.543  0.00  0.00    +0.000 OA
ATOM     23  C   UNL     1       2.521   5.152  19.206  0.00  0.00    +0.000 A 
ATOM     24  C   UNL     1       1.608   4.899  20.240  0.00  0.00    +0.000 A 
ATOM     25  C   UNL     1       1.267   3.584  20.564  0.00  0.00    +0.000 A 
ATOM     26  C   UNL     1       1.844   2.522  19.870  0.00  0.00    +0.000 A 
ATOM     27  C   UNL     1       2.758   2.769  18.844  0.00  0.00    +0.000 A 
ATOM     28  C   UNL     1       3.089   4.088  18.504  0.00  0.00    +0.000 A 
ATOM     29  C   UNL     1       4.030   4.344  17.393  0.00  0.00    +0.000 A 
ATOM     30  O   UNL     1       4.588   3.418  16.806  0.00  0.00    +0.000 OA
ATOM     31  H   UNL     1       4.055   7.669  17.644  0.00  0.00    +0.000 HD
ENDBRANCH  18  19
ENDBRANCH   1  18
TORSDOF 6
ENDMDL
MODEL 7
REMARK VINA RESULT:      -9.0      1.500      2.088
REMARK  Name = 
REMARK  6 active torsions:
REMARK  status: ('A' for Active; 'I' for Inactive)
REMARK    1  A    between atoms: C_2  and  C_3
REMARK    2  A    between atoms: C_3  and  O_4
REMARK    3  A    between atoms: O_4  and  C_5
REMARK    4  A    between atoms: C_5  and  C_7
REMARK    5  A    between atoms: C_7  and  N_8
REMARK    6  A    between atoms: N_20  and  C_21
REMARK                            x       y       z     vdW  Elec       q    Type
REMARK                         _______ _______ _______ _____ _____    ______ ____
ROOT
ATOM      1  C   UNL     1       7.341   5.415  17.825  0.00  0.00    +0.000 C 
ATOM      2  O   UNL     1       7.943   4.346  17.854  0.00  0.00    +0.000 OA
ENDROOT
BRANCH   1   3
ATOM      3  O   UNL     1       7.581   6.409  16.927  0.00  0.00    +0.000 OA
BRANCH   3   4
ATOM      4  C   UNL     1       7.133   7.704  17.328  0.00  0.00    +0.000 C 
BRANCH   4   6
ATOM      5  O   UNL     1       8.836   7.804  19.013  0.00  0.00    +0.000 OA
ATOM      6  C   UNL     1       8.205   8.410  18.149  0.00  0.00    +0.000 C 
ATOM      7  N   UNL     1       8.352   9.762  17.836  0.00  0.00    +0.000 N 
ATOM      8  H   UNL     1       7.515  10.225  17.488  0.00  0.00    +0.000 HD
BRANCH   7   9
ATOM      9  C   UNL     1       9.315  10.550  18.485  0.00  0.00    +0.000 A 
ATOM     10  C   UNL     1      10.286  11.204  17.707  0.00  0.00    +0.000 A 
ATOM     11  C   UNL     1      10.962  12.304  18.238  0.00  0.00    +0.000 A 
ATOM     12  C   UNL     1      10.682  12.656  19.547  0.00  0.00    +0.000 A 
ATOM     13  C   UNL     1       9.938  11.821  20.389  0.00  0.00    +0.000 A 
ATOM     14  C   UNL     1       9.209  10.784  19.859  0.00  0.00    +0.000 A 
ATOM     15  C   UNL     1       9.811  12.438  21.746  0.00  0.00    +0.000 C 
ATOM     16  C   UNL     1       9.716  13.888  21.274  0.00  0.00    +0.000 C 
ATOM     17  C   UNL     1      10.822  14.006  20.198  0.00  0.00    +0.000 C 
ENDBRANCH   7   9
ENDBRANCH   4   6
ENDBRANCH   3   4
ENDBRANCH   1   3
BRANCH   1  18
ATOM     18  C   UNL     1       6.319   5.880  18.845  0.00  0.00    +0.000 C 
BRANCH  18  19
ATOM     19  N   UNL     1       5.227   4.926  18.920  0.00  0.00    +0.000 N 
ATOM     20  N   UNL     1       5.544   3.678  19.453  0.00  0.00    +0.000 N 
ATOM     21  C   UNL     1       4.624   2.656  19.542  0.00  0.00    +0.000 A 
ATOM     22  O   UNL     1       4.939   1.556  19.978  0.00  0.00    +0.000 OA
ATOM     23  C   UNL     1       3.258   2.951  19.086  0.00  0.00    +0.000 A 
ATOM     24  C   UNL     1       2.254   1.983  19.236  0.00  0.00    +0.000 A 
ATOM     25  C   UNL     1       0.956   2.249  18.793  0.00  0.00    +0.000 A 
ATOM     26  C   UNL     1       0.661   3.470  18.189  0.00  0.00    +0.000 A 
ATOM     27  C   UNL     1       1.658   4.433  18.032  0.00  0.00    +0.000 A 
ATOM     28  C   UNL     1       2.957   4.177  18.492  0.00  0.00    +0.000 A 
ATOM     29  C   UNL     1       4.001   5.216  18.355  0.00  0.00    +0.000 A 
ATOM     30  O   UNL     1       3.770   6.277  17.778  0.00  0.00    +0.000 OA
ATOM     31  H   UNL     1       6.507   3.443  19.659  0.00  0.00    +0.000 HD
ENDBRANCH  18  19
ENDBRANCH   1  18
TORSDOF 6
ENDMDL
MODEL 8
REMARK VINA RESULT:      -8.9      4.681      5.846
REMARK  Name = 
REMARK  6 active torsions:
REMARK  status: ('A' for Active; 'I' for Inactive)
REMARK    1  A    between atoms: C_2  and  C_3
REMARK    2  A    between atoms: C_3  and  O_4
REMARK    3  A    between atoms: O_4  and  C_5
REMARK    4  A    between atoms: C_5  and  C_7
REMARK    5  A    between atoms: C_7  and  N_8
REMARK    6  A    between atoms: N_20  and  C_21
REMARK                            x       y       z     vdW  Elec       q    Type
REMARK                         _______ _______ _______ _____ _____    ______ ____
ROOT
ATOM      1  C   UNL     1       5.567   4.482  16.000  0.00  0.00    +0.000 C 
ATOM      2  O   UNL     1       5.268   5.292  15.129  0.00  0.00    +0.000 OA
ENDROOT
BRANCH   1   3
ATOM      3  O   UNL     1       6.591   4.643  16.883  0.00  0.00    +0.000 OA
BRANCH   3   4
ATOM      4  C   UNL     1       6.637   5.916  17.525  0.00  0.00    +0.000 C 
BRANCH   4   6
ATOM      5  O   UNL     1       5.237   5.665  19.456  0.00  0.00    +0.000 OA
ATOM      6  C   UNL     1       5.368   6.153  18.335  0.00  0.00    +0.000 C 
ATOM      7  N   UNL     1       4.414   6.924  17.670  0.00  0.00    +0.000 N 
ATOM      8  H   UNL     1       4.428   6.860  16.654  0.00  0.00    +0.000 HD
BRANCH   7   9
ATOM      9  C   UNL     1       3.198   7.254  18.289  0.00  0.00    +0.000 A 
ATOM     10  C   UNL     1       2.850   6.599  19.483  0.00  0.00    +0.000 A 
ATOM     11  C   UNL     1       1.910   7.182  20.336  0.00  0.00    +0.000 A 
ATOM     12  C   UNL     1       1.314   8.360  19.921  0.00  0.00    +0.000 A 
ATOM     13  C   UNL     1       1.457   8.834  18.611  0.00  0.00    +0.000 A 
ATOM     14  C   UNL     1       2.434   8.315  17.795  0.00  0.00    +0.000 A 
ATOM     15  C   UNL     1       0.691  10.107  18.437  0.00  0.00    +0.000 C 
ATOM     16  C   UNL     1       0.944  10.659  19.839  0.00  0.00    +0.000 C 
ATOM     17  C   UNL     1       0.708   9.445  20.769  0.00  0.00    +0.000 C 
ENDBRANCH   7   9
ENDBRANCH   4   6
ENDBRANCH   3   4
ENDBRANCH   1   3
BRANCH   1  18
ATOM     18  C   UNL     1       4.948   3.108  16.178  0.00  0.00    +0.000 C 
BRANCH  18  19
ATOM     19  N   UNL     1       4.281   3.031  17.464  0.00  0.00    +0.000 N 
ATOM     20  N   UNL     1       5.053   2.559  18.524  0.00  0.00    +0.000 N 
ATOM     21  C   UNL     1       4.543   2.385  19.793  0.00  0.00    +0.000 A 
ATOM     22  O   UNL     1       5.232   1.932  20.697  0.00  0.00    +0.000 OA
ATOM     23  C   UNL     1       3.138   2.765  20.001  0.00  0.00    +0.000 A 
ATOM     24  C   UNL     1       2.586   2.699  21.288  0.00  0.00    +0.000 A 
ATOM     25  C   UNL     1       1.249   3.044  21.494  0.00  0.00    +0.000 A 
ATOM     26  C   UNL     1       0.457   3.440  20.417  0.00  0.00    +0.000 A 
ATOM     27  C   UNL     1       1.000   3.502  19.133  0.00  0.00    +0.000 A 
ATOM     28  C   UNL     1       2.347   3.174  18.926  0.00  0.00    +0.000 A 
ATOM     29  C   UNL     1       2.925   3.275  17.570  0.00  0.00    +0.000 A 
ATOM     30  O   UNL     1       2.227   3.572  16.602  0.00  0.00    +0.000 OA
ATOM     31  H   UNL     1       5.981   2.194  18.353  0.00  0.00    +0.000 HD
ENDBRANCH  18  19
ENDBRANCH   1  18
TORSDOF 6
ENDMDL
MODEL 9
REMARK VINA RESULT:      -8.7      4.858      7.129
REMARK  Name = 
REMARK  6 active torsions:
REMARK  status: ('A' for Active; 'I' for Inactive)
REMARK    1  A    between atoms: C_2  and  C_3
REMARK    2  A    between atoms: C_3  and  O_4
REMARK    3  A    between atoms: O_4  and  C_5
REMARK    4  A    between atoms: C_5  and  C_7
REMARK    5  A    between atoms: C_7  and  N_8
REMARK    6  A    between atoms: N_20  and  C_21
REMARK                            x       y       z     vdW  Elec       q    Type
REMARK                         _______ _______ _______ _____ _____    ______ ____
ROOT
ATOM      1  C   UNL     1       5.630   6.101  16.834  0.00  0.00    +0.000 C 
ATOM      2  O   UNL     1       6.662   6.676  17.167  0.00  0.00    +0.000 OA
ENDROOT
BRANCH   1   3
ATOM      3  O   UNL     1       4.445   6.726  16.593  0.00  0.00    +0.000 OA
BRANCH   3   4
ATOM      4  C   UNL     1       4.267   7.964  17.281  0.00  0.00    +0.000 C 
BRANCH   4   6
ATOM      5  O   UNL     1       2.322   7.044  18.340  0.00  0.00    +0.000 OA
ATOM      6  C   UNL     1       2.870   8.046  17.882  0.00  0.00    +0.000 C 
ATOM      7  N   UNL     1       2.307   9.322  17.825  0.00  0.00    +0.000 N 
ATOM      8  H   UNL     1       2.621   9.905  17.052  0.00  0.00    +0.000 HD
BRANCH   7   9
ATOM      9  C   UNL     1       1.034   9.571  18.360  0.00  0.00    +0.000 A 
ATOM     10  C   UNL     1       0.941  10.186  19.620  0.00  0.00    +0.000 A 
ATOM     11  C   UNL     1      -0.243  10.831  19.983  0.00  0.00    +0.000 A 
ATOM     12  C   UNL     1      -1.302  10.772  19.093  0.00  0.00    +0.000 A 
ATOM     13  C   UNL     1      -1.284   9.914  17.987  0.00  0.00    +0.000 A 
ATOM     14  C   UNL     1      -0.103   9.339  17.582  0.00  0.00    +0.000 A 
ATOM     15  C   UNL     1      -2.560  10.040  17.217  0.00  0.00    +0.000 C 
ATOM     16  C   UNL     1      -2.756  11.538  17.442  0.00  0.00    +0.000 C 
ATOM     17  C   UNL     1      -2.448  11.736  18.945  0.00  0.00    +0.000 C 
ENDBRANCH   7   9
ENDBRANCH   4   6
ENDBRANCH   3   4
ENDBRANCH   1   3
BRANCH   1  18
ATOM     18  C   UNL     1       5.444   4.598  16.751  0.00  0.00    +0.000 C 
BRANCH  18  19
ATOM     19  N   UNL     1       4.330   4.192  17.589  0.00  0.00    +0.000 N 
ATOM     20  N   UNL     1       3.065   4.308  17.018  0.00  0.00    +0.000 N 
ATOM     21  C   UNL     1       1.910   4.007  17.708  0.00  0.00    +0.000 A 
ATOM     22  O   UNL     1       0.808   4.155  17.196  0.00  0.00    +0.000 OA
ATOM     23  C   UNL     1       2.069   3.508  19.082  0.00  0.00    +0.000 A 
ATOM     24  C   UNL     1       0.940   3.098  19.805  0.00  0.00    +0.000 A 
ATOM     25  C   UNL     1       1.079   2.636  21.115  0.00  0.00    +0.000 A 
ATOM     26  C   UNL     1       2.338   2.596  21.711  0.00  0.00    +0.000 A 
ATOM     27  C   UNL     1       3.465   3.009  20.998  0.00  0.00    +0.000 A 
ATOM     28  C   UNL     1       3.331   3.456  19.676  0.00  0.00    +0.000 A 
ATOM     29  C   UNL     1       4.532   3.858  18.914  0.00  0.00    +0.000 A 
ATOM     30  O   UNL     1       5.642   3.879  19.442  0.00  0.00    +0.000 OA
ATOM     31  H   UNL     1       2.952   4.756  16.117  0.00  0.00    +0.000 HD
ENDBRANCH  18  19
ENDBRANCH   1  18
TORSDOF 6
ENDMDL
