MODEL 1
REMARK VINA RESULT:      -8.8      0.000      0.000
REMARK  Name = 
REMARK  5 active torsions:
REMARK  status: ('A' for Active; 'I' for Inactive)
REMARK    1  A    between atoms: C_2  and  C_20
REMARK    2  A    between atoms: N_3  and  C_4
REMARK    3  A    between atoms: C_8  and  S_9
REMARK    4  A    between atoms: S_9  and  N_12
REMARK    5  A    between atoms: N_23  and  C_24
REMARK                            x       y       z     vdW  Elec       q    Type
REMARK                         _______ _______ _______ _____ _____    ______ ____
ROOT
ATOM      1  C   UNL     1       8.083   8.147  17.956  0.00  0.00    +0.000 A 
ATOM      2  C   UNL     1       8.471   7.338  19.028  0.00  0.00    +0.000 A 
ATOM      3  C   UNL     1       8.003   6.029  19.147  0.00  0.00    +0.000 A 
ATOM      4  C   UNL     1       7.130   5.513  18.197  0.00  0.00    +0.000 A 
ATOM      5  C   UNL     1       6.727   6.315  17.125  0.00  0.00    +0.000 A 
ATOM      6  C   UNL     1       7.177   7.640  17.015  0.00  0.00    +0.000 A 
ENDROOT
BRANCH   1   9
ATOM      7  O   UNL     1       9.202   9.979  19.958  0.00  0.00    +0.000 OA
ATOM      8  C   UNL     1       9.048  10.294  18.781  0.00  0.00    +0.000 C 
ATOM      9  N   UNL     1       8.557   9.464  17.783  0.00  0.00    +0.000 N 
ATOM     10  H   UNL     1       8.632   9.795  16.831  0.00  0.00    +0.000 HD
BRANCH   8  11
ATOM     11  C   UNL     1       9.438  11.618  18.337  0.00  0.00    +0.000 A 
ATOM     12  C   UNL     1      10.554  11.936  17.536  0.00  0.00    +0.000 A 
ATOM     13  N   UNL     1      10.666  13.240  17.286  0.00  0.00    +0.000 NA
ATOM     14  N   UNL     1       9.636  13.804  17.961  0.00  0.00    +0.000 N 
ATOM     15  C   UNL     1       8.861  12.847  18.585  0.00  0.00    +0.000 A 
BRANCH  14  16
ATOM     16  C   UNL     1       9.454  15.213  17.979  0.00  0.00    +0.000 A 
ATOM     17  C   UNL     1      10.497  16.052  17.566  0.00  0.00    +0.000 A 
ATOM     18  C   UNL     1      10.336  17.438  17.595  0.00  0.00    +0.000 A 
ATOM     19  C   UNL     1       9.137  17.994  18.038  0.00  0.00    +0.000 A 
ATOM     20  C   UNL     1       8.095  17.165  18.449  0.00  0.00    +0.000 A 
ATOM     21  C   UNL     1       8.248  15.778  18.420  0.00  0.00    +0.000 A 
ENDBRANCH  14  16
ENDBRANCH   8  11
ENDBRANCH   1   9
BRANCH   5  22
ATOM     22  S   UNL     1       5.526   5.682  15.963  0.00  0.00    +0.000 S 
ATOM     23  O   UNL     1       5.068   6.800  15.165  0.00  0.00    +0.000 OA
ATOM     24  O   UNL     1       6.115   4.515  15.341  0.00  0.00    +0.000 OA
BRANCH  22  25
ATOM     25  N   UNL     1       4.232   5.172  16.959  0.00  0.00    +0.000 NA
ATOM     26  C   UNL     1       4.142   3.730  17.260  0.00  0.00    +0.000 C 
ATOM     27  C   UNL     1       2.697   3.239  17.184  0.00  0.00    +0.000 C 
ATOM     28  C   UNL     1       1.892   3.464  18.460  0.00  0.00    +0.000 C 
ATOM     29  C   UNL     1       1.716   4.929  18.832  0.00  0.00    +0.000 C 
ATOM     30  C   UNL     1       3.034   5.611  19.176  0.00  0.00    +0.000 C 
ATOM     31  C   UNL     1       3.779   6.160  17.967  0.00  0.00    +0.000 C 
ENDBRANCH  22  25
ENDBRANCH   5  22
TORSDOF 5
ENDMDL
MODEL 2
REMARK VINA RESULT:      -8.7      0.326      1.151
REMARK  Name = 
REMARK  5 active torsions:
REMARK  status: ('A' for Active; 'I' for Inactive)
REMARK    1  A    between atoms: C_2  and  C_20
REMARK    2  A    between atoms: N_3  and  C_4
REMARK    3  A    between atoms: C_8  and  S_9
REMARK    4  A    between atoms: S_9  and  N_12
REMARK    5  A    between atoms: N_23  and  C_24
REMARK                            x       y       z     vdW  Elec       q    Type
REMARK                         _______ _______ _______ _____ _____    ______ ____
ROOT
ATOM      1  C   UNL     1       8.110   8.200  18.050  0.00  0.00    +0.000 A 
ATOM      2  C   UNL     1       8.554   7.394  19.103  0.00  0.00    +0.000 A 
ATOM      3  C   UNL     1       8.087   6.088  19.253  0.00  0.00    +0.000 A 
ATOM      4  C   UNL     1       7.160   5.573  18.355  0.00  0.00    +0.000 A 
ATOM      5  C   UNL     1       6.702   6.372  17.303  0.00  0.00    +0.000 A 
ATOM      6  C   UNL     1       7.151   7.694  17.163  0.00  0.00    +0.000 A 
ENDROOT
BRANCH   1   9
ATOM      7  O   UNL     1       9.252  10.073  20.002  0.00  0.00    +0.000 OA
ATOM      8  C   UNL     1       9.083  10.364  18.821  0.00  0.00    +0.000 C 
ATOM      9  N   UNL     1       8.581   9.514  17.846  0.00  0.00    +0.000 N 
ATOM     10  H   UNL     1       8.644   9.826  16.887  0.00  0.00    +0.000 HD
BRANCH   8  11
ATOM     11  C   UNL     1       9.465  11.679  18.346  0.00  0.00    +0.000 A 
ATOM     12  C   UNL     1      10.547  11.978  17.491  0.00  0.00    +0.000 A 
ATOM     13  N   UNL     1      10.660  13.278  17.224  0.00  0.00    +0.000 NA
ATOM     14  N   UNL     1       9.668  13.860  17.940  0.00  0.00    +0.000 N 
ATOM     15  C   UNL     1       8.914  12.917  18.609  0.00  0.00    +0.000 A 
BRANCH  14  16
ATOM     16  C   UNL     1       9.502  15.271  17.953  0.00  0.00    +0.000 A 
ATOM     17  C   UNL     1      10.551  16.096  17.526  0.00  0.00    +0.000 A 
ATOM     18  C   UNL     1      10.406  17.484  17.549  0.00  0.00    +0.000 A 
ATOM     19  C   UNL     1       9.218  18.055  18.001  0.00  0.00    +0.000 A 
ATOM     20  C   UNL     1       8.170  17.240  18.426  0.00  0.00    +0.000 A 
ATOM     21  C   UNL     1       8.307  15.852  18.402  0.00  0.00    +0.000 A 
ENDBRANCH  14  16
ENDBRANCH   8  11
ENDBRANCH   1   9
BRANCH   5  22
ATOM     22  S   UNL     1       5.435   5.740  16.212  0.00  0.00    +0.000 S 
ATOM     23  O   UNL     1       4.942   6.857  15.433  0.00  0.00    +0.000 OA
ATOM     24  O   UNL     1       5.982   4.566  15.567  0.00  0.00    +0.000 OA
BRANCH  22  25
ATOM     25  N   UNL     1       4.194   5.245  17.280  0.00  0.00    +0.000 NA
ATOM     26  C   UNL     1       3.382   6.306  17.907  0.00  0.00    +0.000 C 
ATOM     27  C   UNL     1       3.125   6.005  19.383  0.00  0.00    +0.000 C 
ATOM     28  C   UNL     1       1.941   5.077  19.634  0.00  0.00    +0.000 C 
ATOM     29  C   UNL     1       2.109   3.684  19.045  0.00  0.00    +0.000 C 
ATOM     30  C   UNL     1       2.175   3.694  17.523  0.00  0.00    +0.000 C 
ATOM     31  C   UNL     1       3.571   3.937  16.966  0.00  0.00    +0.000 C 
ENDBRANCH  22  25
ENDBRANCH   5  22
TORSDOF 5
ENDMDL
MODEL 3
REMARK VINA RESULT:      -8.5      6.996      9.615
REMARK  Name = 
REMARK  5 active torsions:
REMARK  status: ('A' for Active; 'I' for Inactive)
REMARK    1  A    between atoms: C_2  and  C_20
REMARK    2  A    between atoms: N_3  and  C_4
REMARK    3  A    between atoms: C_8  and  S_9
REMARK    4  A    between atoms: S_9  and  N_12
REMARK    5  A    between atoms: N_23  and  C_24
REMARK                            x       y       z     vdW  Elec       q    Type
REMARK                         _______ _______ _______ _____ _____    ______ ____
ROOT
ATOM      1  C   UNL     1       2.141   7.308  19.293  0.00  0.00    +0.000 A 
ATOM      2  C   UNL     1       1.786   6.861  20.569  0.00  0.00    +0.000 A 
ATOM      3  C   UNL     1       1.083   7.685  21.449  0.00  0.00    +0.000 A 
ATOM      4  C   UNL     1       0.733   8.973  21.066  0.00  0.00    +0.000 A 
ATOM      5  C   UNL     1       1.089   9.435  19.796  0.00  0.00    +0.000 A 
ATOM      6  C   UNL     1       1.817   8.618  18.917  0.00  0.00    +0.000 A 
ENDROOT
BRANCH   1   9
ATOM      7  O   UNL     1       4.612   5.766  19.658  0.00  0.00    +0.000 OA
ATOM      8  C   UNL     1       4.010   5.814  18.590  0.00  0.00    +0.000 C 
ATOM      9  N   UNL     1       2.823   6.496  18.363  0.00  0.00    +0.000 N 
ATOM     10  H   UNL     1       2.353   6.322  17.486  0.00  0.00    +0.000 HD
BRANCH   8  11
ATOM     11  C   UNL     1       4.519   5.078  17.448  0.00  0.00    +0.000 A 
ATOM     12  C   UNL     1       4.530   3.676  17.294  0.00  0.00    +0.000 A 
ATOM     13  N   UNL     1       5.062   3.280  16.140  0.00  0.00    +0.000 NA
ATOM     14  N   UNL     1       5.448   4.427  15.532  0.00  0.00    +0.000 N 
ATOM     15  C   UNL     1       5.110   5.532  16.287  0.00  0.00    +0.000 A 
BRANCH  14  16
ATOM     16  C   UNL     1       6.119   4.405  14.280  0.00  0.00    +0.000 A 
ATOM     17  C   UNL     1       5.670   3.547  13.267  0.00  0.00    +0.000 A 
ATOM     18  C   UNL     1       6.331   3.505  12.039  0.00  0.00    +0.000 A 
ATOM     19  C   UNL     1       7.442   4.315  11.814  0.00  0.00    +0.000 A 
ATOM     20  C   UNL     1       7.893   5.172  12.817  0.00  0.00    +0.000 A 
ATOM     21  C   UNL     1       7.236   5.222  14.046  0.00  0.00    +0.000 A 
ENDBRANCH  14  16
ENDBRANCH   8  11
ENDBRANCH   1   9
BRANCH   5  22
ATOM     22  S   UNL     1       0.727  11.126  19.346  0.00  0.00    +0.000 S 
ATOM     23  O   UNL     1       0.702  11.901  20.569  0.00  0.00    +0.000 OA
ATOM     24  O   UNL     1       1.621  11.475  18.262  0.00  0.00    +0.000 OA
BRANCH  22  25
ATOM     25  N   UNL     1      -0.867  11.048  18.732  0.00  0.00    +0.000 NA
ATOM     26  C   UNL     1      -1.652  12.298  18.736  0.00  0.00    +0.000 C 
ATOM     27  C   UNL     1      -3.092  12.044  19.179  0.00  0.00    +0.000 C 
ATOM     28  C   UNL     1      -4.017  11.574  18.061  0.00  0.00    +0.000 C 
ATOM     29  C   UNL     1      -3.625  10.234  17.455  0.00  0.00    +0.000 C 
ATOM     30  C   UNL     1      -2.280  10.283  16.742  0.00  0.00    +0.000 C 
ATOM     31  C   UNL     1      -1.086  10.050  17.658  0.00  0.00    +0.000 C 
ENDBRANCH  22  25
ENDBRANCH   5  22
TORSDOF 5
ENDMDL
MODEL 4
REMARK VINA RESULT:      -8.5      6.422      8.029
REMARK  Name = 
REMARK  5 active torsions:
REMARK  status: ('A' for Active; 'I' for Inactive)
REMARK    1  A    between atoms: C_2  and  C_20
REMARK    2  A    between atoms: N_3  and  C_4
REMARK    3  A    between atoms: C_8  and  S_9
REMARK    4  A    between atoms: S_9  and  N_12
REMARK    5  A    between atoms: N_23  and  C_24
REMARK                            x       y       z     vdW  Elec       q    Type
REMARK                         _______ _______ _______ _____ _____    ______ ____
ROOT
ATOM      1  C   UNL     1       3.385   6.043  17.949  0.00  0.00    +0.000 A 
ATOM      2  C   UNL     1       2.868   4.753  18.098  0.00  0.00    +0.000 A 
ATOM      3  C   UNL     1       3.633   3.630  17.778  0.00  0.00    +0.000 A 
ATOM      4  C   UNL     1       4.926   3.785  17.294  0.00  0.00    +0.000 A 
ATOM      5  C   UNL     1       5.452   5.070  17.132  0.00  0.00    +0.000 A 
ATOM      6  C   UNL     1       4.677   6.201  17.430  0.00  0.00    +0.000 A 
ENDROOT
BRANCH   1   9
ATOM      7  O   UNL     1       2.218   6.788  20.537  0.00  0.00    +0.000 OA
ATOM      8  C   UNL     1       2.101   7.481  19.531  0.00  0.00    +0.000 C 
ATOM      9  N   UNL     1       2.657   7.201  18.290  0.00  0.00    +0.000 N 
ATOM     10  H   UNL     1       2.618   7.931  17.593  0.00  0.00    +0.000 HD
BRANCH   8  11
ATOM     11  C   UNL     1       1.367   8.730  19.603  0.00  0.00    +0.000 A 
ATOM     12  C   UNL     1       1.331   9.736  18.614  0.00  0.00    +0.000 A 
ATOM     13  N   UNL     1       0.574  10.777  18.954  0.00  0.00    +0.000 NA
ATOM     14  N   UNL     1       0.131  10.484  20.200  0.00  0.00    +0.000 N 
ATOM     15  C   UNL     1       0.574   9.242  20.609  0.00  0.00    +0.000 A 
BRANCH  14  16
ATOM     16  C   UNL     1      -0.674  11.399  20.929  0.00  0.00    +0.000 A 
ATOM     17  C   UNL     1      -1.392  12.388  20.243  0.00  0.00    +0.000 A 
ATOM     18  C   UNL     1      -2.174  13.304  20.949  0.00  0.00    +0.000 A 
ATOM     19  C   UNL     1      -2.243  13.239  22.339  0.00  0.00    +0.000 A 
ATOM     20  C   UNL     1      -1.533  12.257  23.027  0.00  0.00    +0.000 A 
ATOM     21  C   UNL     1      -0.751  11.337  22.328  0.00  0.00    +0.000 A 
ENDBRANCH  14  16
ENDBRANCH   8  11
ENDBRANCH   1   9
BRANCH   5  22
ATOM     22  S   UNL     1       7.076   5.266  16.413  0.00  0.00    +0.000 S 
ATOM     23  O   UNL     1       7.374   6.682  16.400  0.00  0.00    +0.000 OA
ATOM     24  O   UNL     1       7.950   4.327  17.084  0.00  0.00    +0.000 OA
BRANCH  22  25
ATOM     25  N   UNL     1       6.866   4.751  14.795  0.00  0.00    +0.000 NA
ATOM     26  C   UNL     1       5.481   4.648  14.295  0.00  0.00    +0.000 C 
ATOM     27  C   UNL     1       5.288   3.384  13.459  0.00  0.00    +0.000 C 
ATOM     28  C   UNL     1       5.706   3.531  12.000  0.00  0.00    +0.000 C 
ATOM     29  C   UNL     1       7.188   3.823  11.806  0.00  0.00    +0.000 C 
ATOM     30  C   UNL     1       7.600   5.172  12.381  0.00  0.00    +0.000 C 
ATOM     31  C   UNL     1       7.953   5.131  13.862  0.00  0.00    +0.000 C 
ENDBRANCH  22  25
ENDBRANCH   5  22
TORSDOF 5
ENDMDL
MODEL 5
REMARK VINA RESULT:      -8.5      6.317      9.387
REMARK  Name = 
REMARK  5 active torsions:
REMARK  status: ('A' for Active; 'I' for Inactive)
REMARK    1  A    between atoms: C_2  and  C_20
REMARK    2  A    between atoms: N_3  and  C_4
REMARK    3  A    between atoms: C_8  and  S_9
REMARK    4  A    between atoms: S_9  and  N_12
REMARK    5  A    between atoms: N_23  and  C_24
REMARK                            x       y       z     vdW  Elec       q    Type
REMARK                         _______ _______ _______ _____ _____    ______ ____
ROOT
ATOM      1  C   UNL     1       2.491   7.695  19.089  0.00  0.00    +0.000 A 
ATOM      2  C   UNL     1       2.033   6.954  20.182  0.00  0.00    +0.000 A 
ATOM      3  C   UNL     1       1.065   7.470  21.045  0.00  0.00    +0.000 A 
ATOM      4  C   UNL     1       0.549   8.742  20.830  0.00  0.00    +0.000 A 
ATOM      5  C   UNL     1       1.005   9.497  19.745  0.00  0.00    +0.000 A 
ATOM      6  C   UNL     1       1.996   8.990  18.890  0.00  0.00    +0.000 A 
ENDROOT
BRANCH   1   9
ATOM      7  O   UNL     1       4.446   5.537  19.462  0.00  0.00    +0.000 OA
ATOM      8  C   UNL     1       4.367   6.190  18.426  0.00  0.00    +0.000 C 
ATOM      9  N   UNL     1       3.445   7.197  18.177  0.00  0.00    +0.000 N 
ATOM     10  H   UNL     1       3.385   7.542  17.229  0.00  0.00    +0.000 HD
BRANCH   8  11
ATOM     11  C   UNL     1       5.260   5.895  17.322  0.00  0.00    +0.000 A 
ATOM     12  C   UNL     1       6.608   6.292  17.209  0.00  0.00    +0.000 A 
ATOM     13  N   UNL     1       7.184   5.879  16.082  0.00  0.00    +0.000 NA
ATOM     14  N   UNL     1       6.198   5.232  15.414  0.00  0.00    +0.000 N 
ATOM     15  C   UNL     1       5.030   5.204  16.150  0.00  0.00    +0.000 A 
BRANCH  14  16
ATOM     16  C   UNL     1       6.420   4.690  14.120  0.00  0.00    +0.000 A 
ATOM     17  C   UNL     1       7.503   5.145  13.355  0.00  0.00    +0.000 A 
ATOM     18  C   UNL     1       7.722   4.632  12.075  0.00  0.00    +0.000 A 
ATOM     19  C   UNL     1       6.863   3.667  11.552  0.00  0.00    +0.000 A 
ATOM     20  C   UNL     1       5.786   3.209  12.309  0.00  0.00    +0.000 A 
ATOM     21  C   UNL     1       5.563   3.715  13.590  0.00  0.00    +0.000 A 
ENDBRANCH  14  16
ENDBRANCH   8  11
ENDBRANCH   1   9
BRANCH   5  22
ATOM     22  S   UNL     1       0.414  11.169  19.533  0.00  0.00    +0.000 S 
ATOM     23  O   UNL     1       0.171  11.712  20.853  0.00  0.00    +0.000 OA
ATOM     24  O   UNL     1       1.322  11.824  18.614  0.00  0.00    +0.000 OA
BRANCH  22  25
ATOM     25  N   UNL     1      -1.095  10.968  18.753  0.00  0.00    +0.000 NA
ATOM     26  C   UNL     1      -1.955  12.161  18.631  0.00  0.00    +0.000 C 
ATOM     27  C   UNL     1      -3.416  11.822  18.925  0.00  0.00    +0.000 C 
ATOM     28  C   UNL     1      -4.179  11.263  17.729  0.00  0.00    +0.000 C 
ATOM     29  C   UNL     1      -3.638   9.937  17.213  0.00  0.00    +0.000 C 
ATOM     30  C   UNL     1      -2.229  10.058  16.648  0.00  0.00    +0.000 C 
ATOM     31  C   UNL     1      -1.130   9.931  17.694  0.00  0.00    +0.000 C 
ENDBRANCH  22  25
ENDBRANCH   5  22
TORSDOF 5
ENDMDL
MODEL 6
REMARK VINA RESULT:      -8.4      6.285      8.038
REMARK  Name = 
REMARK  5 active torsions:
REMARK  status: ('A' for Active; 'I' for Inactive)
REMARK    1  A    between atoms: C_2  and  C_20
REMARK    2  A    between atoms: N_3  and  C_4
REMARK    3  A    between atoms: C_8  and  S_9
REMARK    4  A    between atoms: S_9  and  N_12
REMARK    5  A    between atoms: N_23  and  C_24
REMARK                            x       y       z     vdW  Elec       q    Type
REMARK                         _______ _______ _______ _____ _____    ______ ____
ROOT
ATOM      1  C   UNL     1       1.987   4.985  20.820  0.00  0.00    +0.000 A 
ATOM      2  C   UNL     1       2.006   3.986  21.798  0.00  0.00    +0.000 A 
ATOM      3  C   UNL     1       2.485   2.707  21.510  0.00  0.00    +0.000 A 
ATOM      4  C   UNL     1       2.943   2.408  20.233  0.00  0.00    +0.000 A 
ATOM      5  C   UNL     1       2.921   3.396  19.244  0.00  0.00    +0.000 A 
ATOM      6  C   UNL     1       2.418   4.676  19.524  0.00  0.00    +0.000 A 
ENDROOT
BRANCH   1   9
ATOM      7  O   UNL     1       2.474   7.435  19.279  0.00  0.00    +0.000 OA
ATOM      8  C   UNL     1       1.833   7.425  20.325  0.00  0.00    +0.000 C 
ATOM      9  N   UNL     1       1.541   6.297  21.080  0.00  0.00    +0.000 N 
ATOM     10  H   UNL     1       0.873   6.406  21.830  0.00  0.00    +0.000 HD
BRANCH   8  11
ATOM     11  C   UNL     1       1.275   8.662  20.837  0.00  0.00    +0.000 A 
ATOM     12  C   UNL     1       1.225   9.061  22.189  0.00  0.00    +0.000 A 
ATOM     13  N   UNL     1       0.652  10.250  22.364  0.00  0.00    +0.000 NA
ATOM     14  N   UNL     1       0.277  10.633  21.120  0.00  0.00    +0.000 N 
ATOM     15  C   UNL     1       0.663   9.705  20.173  0.00  0.00    +0.000 A 
BRANCH  14  16
ATOM     16  C   UNL     1      -0.429  11.847  20.906  0.00  0.00    +0.000 A 
ATOM     17  C   UNL     1      -0.002  12.730  19.905  0.00  0.00    +0.000 A 
ATOM     18  C   UNL     1      -0.678  13.933  19.696  0.00  0.00    +0.000 A 
ATOM     19  C   UNL     1      -1.779  14.263  20.485  0.00  0.00    +0.000 A 
ATOM     20  C   UNL     1      -2.209  13.389  21.482  0.00  0.00    +0.000 A 
ATOM     21  C   UNL     1      -1.540  12.183  21.693  0.00  0.00    +0.000 A 
ENDBRANCH  14  16
ENDBRANCH   8  11
ENDBRANCH   1   9
BRANCH   5  22
ATOM     22  S   UNL     1       3.415   2.977  17.578  0.00  0.00    +0.000 S 
ATOM     23  O   UNL     1       3.879   1.606  17.598  0.00  0.00    +0.000 OA
ATOM     24  O   UNL     1       2.336   3.385  16.703  0.00  0.00    +0.000 OA
BRANCH  22  25
ATOM     25  N   UNL     1       4.762   3.991  17.290  0.00  0.00    +0.000 NA
ATOM     26  C   UNL     1       5.684   4.224  18.419  0.00  0.00    +0.000 C 
ATOM     27  C   UNL     1       6.113   5.689  18.488  0.00  0.00    +0.000 C 
ATOM     28  C   UNL     1       7.285   6.040  17.577  0.00  0.00    +0.000 C 
ATOM     29  C   UNL     1       6.994   5.858  16.094  0.00  0.00    +0.000 C 
ATOM     30  C   UNL     1       6.738   4.404  15.719  0.00  0.00    +0.000 C 
ATOM     31  C   UNL     1       5.293   3.963  15.906  0.00  0.00    +0.000 C 
ENDBRANCH  22  25
ENDBRANCH   5  22
TORSDOF 5
ENDMDL
MODEL 7
REMARK VINA RESULT:      -8.4      9.710     12.696
REMARK  Name = 
REMARK  5 active torsions:
REMARK  status: ('A' for Active; 'I' for Inactive)
REMARK    1  A    between atoms: C_2  and  C_20
REMARK    2  A    between atoms: N_3  and  C_4
REMARK    3  A    between atoms: C_8  and  S_9
REMARK    4  A    between atoms: S_9  and  N_12
REMARK    5  A    between atoms: N_23  and  C_24
REMARK                            x       y       z     vdW  Elec       q    Type
REMARK                         _______ _______ _______ _____ _____    ______ ____
ROOT
ATOM      1  C   UNL     1      -1.869  12.620  22.620  0.00  0.00    +0.000 A 
ATOM      2  C   UNL     1      -1.263  13.615  23.392  0.00  0.00    +0.000 A 
ATOM      3  C   UNL     1      -2.022  14.450  24.213  0.00  0.00    +0.000 A 
ATOM      4  C   UNL     1      -3.403  14.306  24.266  0.00  0.00    +0.000 A 
ATOM      5  C   UNL     1      -4.022  13.320  23.492  0.00  0.00    +0.000 A 
ATOM      6  C   UNL     1      -3.264  12.495  22.647  0.00  0.00    +0.000 A 
ENDROOT
BRANCH   1   9
ATOM      7  O   UNL     1      -0.216  10.325  23.406  0.00  0.00    +0.000 OA
ATOM      8  C   UNL     1      -0.344  10.684  22.239  0.00  0.00    +0.000 C 
ATOM      9  N   UNL     1      -1.135  11.737  21.802  0.00  0.00    +0.000 N 
ATOM     10  H   UNL     1      -1.276  11.823  20.805  0.00  0.00    +0.000 HD
BRANCH   8  11
ATOM     11  C   UNL     1       0.335   9.952  21.187  0.00  0.00    +0.000 A 
ATOM     12  C   UNL     1       0.402  10.316  19.826  0.00  0.00    +0.000 A 
ATOM     13  N   UNL     1       1.092   9.451  19.085  0.00  0.00    +0.000 NA
ATOM     14  N   UNL     1       1.457   8.476  19.953  0.00  0.00    +0.000 N 
ATOM     15  C   UNL     1       1.035   8.764  21.236  0.00  0.00    +0.000 A 
BRANCH  14  16
ATOM     16  C   UNL     1       2.173   7.331  19.513  0.00  0.00    +0.000 A 
ATOM     17  C   UNL     1       2.884   7.380  18.306  0.00  0.00    +0.000 A 
ATOM     18  C   UNL     1       3.579   6.257  17.855  0.00  0.00    +0.000 A 
ATOM     19  C   UNL     1       3.566   5.080  18.603  0.00  0.00    +0.000 A 
ATOM     20  C   UNL     1       2.862   5.026  19.805  0.00  0.00    +0.000 A 
ATOM     21  C   UNL     1       2.169   6.146  20.263  0.00  0.00    +0.000 A 
ENDBRANCH  14  16
ENDBRANCH   8  11
ENDBRANCH   1   9
BRANCH   5  22
ATOM     22  S   UNL     1      -5.806  13.206  23.485  0.00  0.00    +0.000 S 
ATOM     23  O   UNL     1      -6.163  11.990  24.186  0.00  0.00    +0.000 OA
ATOM     24  O   UNL     1      -6.312  14.491  23.917  0.00  0.00    +0.000 OA
BRANCH  22  25
ATOM     25  N   UNL     1      -6.190  12.999  21.831  0.00  0.00    +0.000 NA
ATOM     26  C   UNL     1      -7.231  12.006  21.500  0.00  0.00    +0.000 C 
ATOM     27  C   UNL     1      -6.838  11.181  20.276  0.00  0.00    +0.000 C 
ATOM     28  C   UNL     1      -7.174  11.841  18.943  0.00  0.00    +0.000 C 
ATOM     29  C   UNL     1      -6.439  13.152  18.698  0.00  0.00    +0.000 C 
ATOM     30  C   UNL     1      -6.833  14.240  19.688  0.00  0.00    +0.000 C 
ATOM     31  C   UNL     1      -6.040  14.210  20.988  0.00  0.00    +0.000 C 
ENDBRANCH  22  25
ENDBRANCH   5  22
TORSDOF 5
ENDMDL
MODEL 8
REMARK VINA RESULT:      -8.4      6.481      7.747
REMARK  Name = 
REMARK  5 active torsions:
REMARK  status: ('A' for Active; 'I' for Inactive)
REMARK    1  A    between atoms: C_2  and  C_20
REMARK    2  A    between atoms: N_3  and  C_4
REMARK    3  A    between atoms: C_8  and  S_9
REMARK    4  A    between atoms: S_9  and  N_12
REMARK    5  A    between atoms: N_23  and  C_24
REMARK                            x       y       z     vdW  Elec       q    Type
REMARK                         _______ _______ _______ _____ _____    ______ ____
ROOT
ATOM      1  C   UNL     1       1.997   5.002  20.799  0.00  0.00    +0.000 A 
ATOM      2  C   UNL     1       2.012   4.070  21.842  0.00  0.00    +0.000 A 
ATOM      3  C   UNL     1       2.432   2.757  21.625  0.00  0.00    +0.000 A 
ATOM      4  C   UNL     1       2.833   2.355  20.357  0.00  0.00    +0.000 A 
ATOM      5  C   UNL     1       2.813   3.275  19.304  0.00  0.00    +0.000 A 
ATOM      6  C   UNL     1       2.370   4.590  19.514  0.00  0.00    +0.000 A 
ENDROOT
BRANCH   1   9
ATOM      7  O   UNL     1       2.540   7.326  19.091  0.00  0.00    +0.000 OA
ATOM      8  C   UNL     1       1.927   7.410  20.151  0.00  0.00    +0.000 C 
ATOM      9  N   UNL     1       1.610   6.345  20.984  0.00  0.00    +0.000 N 
ATOM     10  H   UNL     1       0.967   6.529  21.741  0.00  0.00    +0.000 HD
BRANCH   8  11
ATOM     11  C   UNL     1       1.433   8.699  20.594  0.00  0.00    +0.000 A 
ATOM     12  C   UNL     1       1.178   9.083  21.927  0.00  0.00    +0.000 A 
ATOM     13  N   UNL     1       0.725  10.331  22.035  0.00  0.00    +0.000 NA
ATOM     14  N   UNL     1       0.638  10.773  20.758  0.00  0.00    +0.000 N 
ATOM     15  C   UNL     1       1.082   9.817  19.866  0.00  0.00    +0.000 A 
BRANCH  14  16
ATOM     16  C   UNL     1       0.132  12.067  20.461  0.00  0.00    +0.000 A 
ATOM     17  C   UNL     1      -0.370  12.869  21.495  0.00  0.00    +0.000 A 
ATOM     18  C   UNL     1      -0.884  14.135  21.213  0.00  0.00    +0.000 A 
ATOM     19  C   UNL     1      -0.904  14.607  19.902  0.00  0.00    +0.000 A 
ATOM     20  C   UNL     1      -0.405  13.814  18.869  0.00  0.00    +0.000 A 
ATOM     21  C   UNL     1       0.114  12.549  19.144  0.00  0.00    +0.000 A 
ENDBRANCH  14  16
ENDBRANCH   8  11
ENDBRANCH   1   9
BRANCH   5  22
ATOM     22  S   UNL     1       3.232   2.727  17.656  0.00  0.00    +0.000 S 
ATOM     23  O   UNL     1       3.523   1.310  17.734  0.00  0.00    +0.000 OA
ATOM     24  O   UNL     1       2.201   3.227  16.771  0.00  0.00    +0.000 OA
BRANCH  22  25
ATOM     25  N   UNL     1       4.690   3.553  17.314  0.00  0.00    +0.000 NA
ATOM     26  C   UNL     1       4.757   4.303  16.045  0.00  0.00    +0.000 C 
ATOM     27  C   UNL     1       6.108   4.108  15.359  0.00  0.00    +0.000 C 
ATOM     28  C   UNL     1       7.205   5.041  15.862  0.00  0.00    +0.000 C 
ATOM     29  C   UNL     1       7.558   4.847  17.330  0.00  0.00    +0.000 C 
ATOM     30  C   UNL     1       6.405   5.196  18.262  0.00  0.00    +0.000 C 
ATOM     31  C   UNL     1       5.431   4.050  18.498  0.00  0.00    +0.000 C 
ENDBRANCH  22  25
ENDBRANCH   5  22
TORSDOF 5
ENDMDL
MODEL 9
REMARK VINA RESULT:      -8.3      6.952     10.654
REMARK  Name = 
REMARK  5 active torsions:
REMARK  status: ('A' for Active; 'I' for Inactive)
REMARK    1  A    between atoms: C_2  and  C_20
REMARK    2  A    between atoms: N_3  and  C_4
REMARK    3  A    between atoms: C_8  and  S_9
REMARK    4  A    between atoms: S_9  and  N_12
REMARK    5  A    between atoms: N_23  and  C_24
REMARK                            x       y       z     vdW  Elec       q    Type
REMARK                         _______ _______ _______ _____ _____    ______ ____
ROOT
ATOM      1  C   UNL     1       0.256   9.647  21.219  0.00  0.00    +0.000 A 
ATOM      2  C   UNL     1      -0.030   9.660  22.588  0.00  0.00    +0.000 A 
ATOM      3  C   UNL     1      -0.913  10.596  23.128  0.00  0.00    +0.000 A 
ATOM      4  C   UNL     1      -1.516  11.540  22.305  0.00  0.00    +0.000 A 
ATOM      5  C   UNL     1      -1.231  11.543  20.936  0.00  0.00    +0.000 A 
ATOM      6  C   UNL     1      -0.325  10.619  20.394  0.00  0.00    +0.000 A 
ENDROOT
BRANCH   1   9
ATOM      7  O   UNL     1       1.217   9.502  18.449  0.00  0.00    +0.000 OA
ATOM      8  C   UNL     1       1.512   8.668  19.300  0.00  0.00    +0.000 C 
ATOM      9  N   UNL     1       1.117   8.699  20.630  0.00  0.00    +0.000 N 
ATOM     10  H   UNL     1       1.559   8.041  21.257  0.00  0.00    +0.000 HD
BRANCH   8  11
ATOM     11  C   UNL     1       2.377   7.559  18.946  0.00  0.00    +0.000 A 
ATOM     12  C   UNL     1       2.499   6.339  19.643  0.00  0.00    +0.000 A 
ATOM     13  N   UNL     1       3.376   5.504  19.088  0.00  0.00    +0.000 NA
ATOM     14  N   UNL     1       3.875   6.188  18.031  0.00  0.00    +0.000 N 
ATOM     15  C   UNL     1       3.273   7.424  17.905  0.00  0.00    +0.000 A 
BRANCH  14  16
ATOM     16  C   UNL     1       4.896   5.635  17.213  0.00  0.00    +0.000 A 
ATOM     17  C   UNL     1       4.669   4.423  16.546  0.00  0.00    +0.000 A 
ATOM     18  C   UNL     1       5.670   3.861  15.752  0.00  0.00    +0.000 A 
ATOM     19  C   UNL     1       6.901   4.501  15.622  0.00  0.00    +0.000 A 
ATOM     20  C   UNL     1       7.133   5.707  16.282  0.00  0.00    +0.000 A 
ATOM     21  C   UNL     1       6.136   6.276  17.074  0.00  0.00    +0.000 A 
ENDBRANCH  14  16
ENDBRANCH   8  11
ENDBRANCH   1   9
BRANCH   5  22
ATOM     22  S   UNL     1      -1.928  12.822  19.901  0.00  0.00    +0.000 S 
ATOM     23  O   UNL     1      -2.008  14.027  20.699  0.00  0.00    +0.000 OA
ATOM     24  O   UNL     1      -1.193  12.801  18.654  0.00  0.00    +0.000 OA
BRANCH  22  25
ATOM     25  N   UNL     1      -3.521  12.275  19.601  0.00  0.00    +0.000 NA
ATOM     26  C   UNL     1      -4.625  13.086  20.149  0.00  0.00    +0.000 C 
ATOM     27  C   UNL     1      -5.717  12.200  20.747  0.00  0.00    +0.000 C 
ATOM     28  C   UNL     1      -6.726  11.679  19.730  0.00  0.00    +0.000 C 
ATOM     29  C   UNL     1      -6.122  10.772  18.666  0.00  0.00    +0.000 C 
ATOM     30  C   UNL     1      -5.129  11.500  17.769  0.00  0.00    +0.000 C 
ATOM     31  C   UNL     1      -3.712  11.545  18.325  0.00  0.00    +0.000 C 
ENDBRANCH  22  25
ENDBRANCH   5  22
TORSDOF 5
ENDMDL
