MODEL 1
REMARK VINA RESULT:      -8.8      0.000      0.000
REMARK  Name = 
REMARK  4 active torsions:
REMARK  status: ('A' for Active; 'I' for Inactive)
REMARK    1  A    between atoms: C_2  and  C_16
REMARK    2  A    between atoms: N_3  and  C_4
REMARK    3  A    between atoms: C_9  and  N_10
REMARK    4  A    between atoms: C_11  and  C_13
REMARK                            x       y       z     vdW  Elec       q    Type
REMARK                         _______ _______ _______ _____ _____    ______ ____
ROOT
ATOM      1  O   UNL     1       4.411   6.089  16.432  0.00  0.00    +0.000 OA
ATOM      2  C   UNL     1       4.402   4.875  16.582  0.00  0.00    +0.000 C 
ATOM      3  N   UNL     1       5.237   3.965  15.960  0.00  0.00    +0.000 N 
ATOM      4  H   UNL     1       4.926   3.002  16.070  0.00  0.00    +0.000 HD
ENDROOT
BRANCH   2   5
ATOM      5  C   UNL     1       3.393   4.233  17.489  0.00  0.00    +0.000 A 
ATOM      6  C   UNL     1       2.041   4.360  17.214  0.00  0.00    +0.000 A 
ATOM      7  C   UNL     1       1.142   3.892  18.164  0.00  0.00    +0.000 A 
ATOM      8  C   UNL     1       1.622   3.374  19.372  0.00  0.00    +0.000 A 
ATOM      9  C   UNL     1       0.750   3.067  20.430  0.00  0.00    +0.000 A 
ATOM     10  C   UNL     1       1.257   2.624  21.650  0.00  0.00    +0.000 A 
ATOM     11  C   UNL     1       2.625   2.423  21.794  0.00  0.00    +0.000 A 
ATOM     12  C   UNL     1       3.487   2.702  20.729  0.00  0.00    +0.000 A 
ATOM     13  C   UNL     1       3.019   3.217  19.528  0.00  0.00    +0.000 A 
ATOM     14  N   UNL     1       3.896   3.598  18.584  0.00  0.00    +0.000 NA
ENDBRANCH   2   5
BRANCH   3  15
ATOM     15  C   UNL     1       6.050   4.258  14.841  0.00  0.00    +0.000 A 
ATOM     16  C   UNL     1       5.888   3.395  13.746  0.00  0.00    +0.000 A 
ATOM     17  C   UNL     1       6.569   3.612  12.553  0.00  0.00    +0.000 A 
ATOM     18  C   UNL     1       7.459   4.670  12.457  0.00  0.00    +0.000 A 
ATOM     19  C   UNL     1       7.672   5.509  13.555  0.00  0.00    +0.000 A 
ATOM     20  C   UNL     1       6.975   5.325  14.758  0.00  0.00    +0.000 A 
BRANCH  20  21
ATOM     21  N   UNL     1       7.256   6.112  15.900  0.00  0.00    +0.000 N 
ATOM     22  C   UNL     1       7.632   5.672  17.163  0.00  0.00    +0.000 C 
ATOM     23  O   UNL     1       7.853   4.505  17.485  0.00  0.00    +0.000 OA
ATOM     24  H   UNL     1       7.292   7.117  15.744  0.00  0.00    +0.000 HD
BRANCH  22  25
ATOM     25  C   UNL     1       7.763   6.800  18.187  0.00  0.00    +0.000 C 
ATOM     26  F   UNL     1       8.656   6.506  19.179  0.00  0.00    +0.000 F 
ATOM     27  F   UNL     1       8.206   7.961  17.624  0.00  0.00    +0.000 F 
ENDBRANCH  22  25
ENDBRANCH  20  21
ENDBRANCH   3  15
TORSDOF 4
ENDMDL
MODEL 2
REMARK VINA RESULT:      -8.8      5.208      6.386
REMARK  Name = 
REMARK  4 active torsions:
REMARK  status: ('A' for Active; 'I' for Inactive)
REMARK    1  A    between atoms: C_2  and  C_16
REMARK    2  A    between atoms: N_3  and  C_4
REMARK    3  A    between atoms: C_9  and  N_10
REMARK    4  A    between atoms: C_11  and  C_13
REMARK                            x       y       z     vdW  Elec       q    Type
REMARK                         _______ _______ _______ _____ _____    ______ ____
ROOT
ATOM      1  O   UNL     1       2.974   6.237  20.356  0.00  0.00    +0.000 OA
ATOM      2  C   UNL     1       2.497   6.915  19.456  0.00  0.00    +0.000 C 
ATOM      3  N   UNL     1       2.719   6.753  18.100  0.00  0.00    +0.000 N 
ATOM      4  H   UNL     1       2.391   7.543  17.549  0.00  0.00    +0.000 HD
ENDROOT
BRANCH   2   5
ATOM      5  C   UNL     1       1.600   8.074  19.777  0.00  0.00    +0.000 A 
ATOM      6  C   UNL     1       1.522   9.148  18.904  0.00  0.00    +0.000 A 
ATOM      7  C   UNL     1       0.810  10.267  19.318  0.00  0.00    +0.000 A 
ATOM      8  C   UNL     1       0.258  10.297  20.603  0.00  0.00    +0.000 A 
ATOM      9  C   UNL     1      -0.302  11.474  21.127  0.00  0.00    +0.000 A 
ATOM     10  C   UNL     1      -0.778  11.501  22.436  0.00  0.00    +0.000 A 
ATOM     11  C   UNL     1      -0.757  10.340  23.199  0.00  0.00    +0.000 A 
ATOM     12  C   UNL     1      -0.224   9.163  22.665  0.00  0.00    +0.000 A 
ATOM     13  C   UNL     1       0.327   9.125  21.391  0.00  0.00    +0.000 A 
ATOM     14  N   UNL     1       0.949   8.010  20.972  0.00  0.00    +0.000 NA
ENDBRANCH   2   5
BRANCH   3  15
ATOM     15  C   UNL     1       3.748   5.958  17.546  0.00  0.00    +0.000 A 
ATOM     16  C   UNL     1       4.633   6.641  16.695  0.00  0.00    +0.000 A 
ATOM     17  C   UNL     1       5.735   5.999  16.141  0.00  0.00    +0.000 A 
ATOM     18  C   UNL     1       5.940   4.651  16.394  0.00  0.00    +0.000 A 
ATOM     19  C   UNL     1       5.041   3.945  17.197  0.00  0.00    +0.000 A 
ATOM     20  C   UNL     1       3.937   4.578  17.789  0.00  0.00    +0.000 A 
BRANCH  20  21
ATOM     21  N   UNL     1       2.975   3.847  18.523  0.00  0.00    +0.000 N 
ATOM     22  C   UNL     1       1.635   3.652  18.209  0.00  0.00    +0.000 C 
ATOM     23  O   UNL     1       1.071   4.035  17.184  0.00  0.00    +0.000 OA
ATOM     24  H   UNL     1       3.333   3.314  19.312  0.00  0.00    +0.000 HD
BRANCH  22  25
ATOM     25  C   UNL     1       0.863   2.885  19.282  0.00  0.00    +0.000 C 
ATOM     26  F   UNL     1       1.518   1.758  19.695  0.00  0.00    +0.000 F 
ATOM     27  F   UNL     1       0.663   3.629  20.408  0.00  0.00    +0.000 F 
ENDBRANCH  22  25
ENDBRANCH  20  21
ENDBRANCH   3  15
TORSDOF 4
ENDMDL
MODEL 3
REMARK VINA RESULT:      -8.7      5.309      6.463
REMARK  Name = 
REMARK  4 active torsions:
REMARK  status: ('A' for Active; 'I' for Inactive)
REMARK    1  A    between atoms: C_2  and  C_16
REMARK    2  A    between atoms: N_3  and  C_4
REMARK    3  A    between atoms: C_9  and  N_10
REMARK    4  A    between atoms: C_11  and  C_13
REMARK                            x       y       z     vdW  Elec       q    Type
REMARK                         _______ _______ _______ _____ _____    ______ ____
ROOT
ATOM      1  O   UNL     1       2.046   8.316  17.178  0.00  0.00    +0.000 OA
ATOM      2  C   UNL     1       2.478   7.979  18.272  0.00  0.00    +0.000 C 
ATOM      3  N   UNL     1       3.510   7.089  18.508  0.00  0.00    +0.000 N 
ATOM      4  H   UNL     1       3.568   6.800  19.483  0.00  0.00    +0.000 HD
ENDROOT
BRANCH   2   5
ATOM      5  C   UNL     1       1.856   8.515  19.528  0.00  0.00    +0.000 A 
ATOM      6  C   UNL     1       1.715   7.691  20.633  0.00  0.00    +0.000 A 
ATOM      7  C   UNL     1       0.989   8.177  21.714  0.00  0.00    +0.000 A 
ATOM      8  C   UNL     1       0.382   9.435  21.627  0.00  0.00    +0.000 A 
ATOM      9  C   UNL     1      -0.512   9.882  22.614  0.00  0.00    +0.000 A 
ATOM     10  C   UNL     1      -1.161  11.105  22.470  0.00  0.00    +0.000 A 
ATOM     11  C   UNL     1      -0.870  11.913  21.377  0.00  0.00    +0.000 A 
ATOM     12  C   UNL     1       0.041  11.479  20.411  0.00  0.00    +0.000 A 
ATOM     13  C   UNL     1       0.646  10.231  20.489  0.00  0.00    +0.000 A 
ATOM     14  N   UNL     1       1.409   9.800  19.469  0.00  0.00    +0.000 NA
ENDBRANCH   2   5
BRANCH   3  15
ATOM     15  C   UNL     1       4.050   6.212  17.540  0.00  0.00    +0.000 A 
ATOM     16  C   UNL     1       4.785   6.834  16.519  0.00  0.00    +0.000 A 
ATOM     17  C   UNL     1       5.435   6.086  15.543  0.00  0.00    +0.000 A 
ATOM     18  C   UNL     1       5.316   4.705  15.549  0.00  0.00    +0.000 A 
ATOM     19  C   UNL     1       4.546   4.072  16.528  0.00  0.00    +0.000 A 
ATOM     20  C   UNL     1       3.905   4.805  17.538  0.00  0.00    +0.000 A 
BRANCH  20  21
ATOM     21  N   UNL     1       3.049   4.177  18.473  0.00  0.00    +0.000 N 
ATOM     22  C   UNL     1       1.690   3.915  18.338  0.00  0.00    +0.000 C 
ATOM     23  O   UNL     1       1.010   4.128  17.335  0.00  0.00    +0.000 OA
ATOM     24  H   UNL     1       3.505   3.777  19.289  0.00  0.00    +0.000 HD
BRANCH  22  25
ATOM     25  C   UNL     1       1.060   3.306  19.591  0.00  0.00    +0.000 C 
ATOM     26  F   UNL     1       0.456   4.243  20.382  0.00  0.00    +0.000 F 
ATOM     27  F   UNL     1       0.089   2.395  19.291  0.00  0.00    +0.000 F 
ENDBRANCH  22  25
ENDBRANCH  20  21
ENDBRANCH   3  15
TORSDOF 4
ENDMDL
MODEL 4
REMARK VINA RESULT:      -8.7      5.032      6.172
REMARK  Name = 
REMARK  4 active torsions:
REMARK  status: ('A' for Active; 'I' for Inactive)
REMARK    1  A    between atoms: C_2  and  C_16
REMARK    2  A    between atoms: N_3  and  C_4
REMARK    3  A    between atoms: C_9  and  N_10
REMARK    4  A    between atoms: C_11  and  C_13
REMARK                            x       y       z     vdW  Elec       q    Type
REMARK                         _______ _______ _______ _____ _____    ______ ____
ROOT
ATOM      1  O   UNL     1       3.005   8.718  16.866  0.00  0.00    +0.000 OA
ATOM      2  C   UNL     1       2.666   8.174  17.908  0.00  0.00    +0.000 C 
ATOM      3  N   UNL     1       3.151   6.977  18.404  0.00  0.00    +0.000 N 
ATOM      4  H   UNL     1       2.590   6.611  19.171  0.00  0.00    +0.000 HD
ENDROOT
BRANCH   2   5
ATOM      5  C   UNL     1       1.600   8.786  18.769  0.00  0.00    +0.000 A 
ATOM      6  C   UNL     1       0.775   9.770  18.248  0.00  0.00    +0.000 A 
ATOM      7  C   UNL     1      -0.085  10.422  19.123  0.00  0.00    +0.000 A 
ATOM      8  C   UNL     1      -0.046  10.114  20.487  0.00  0.00    +0.000 A 
ATOM      9  C   UNL     1      -0.757  10.877  21.427  0.00  0.00    +0.000 A 
ATOM     10  C   UNL     1      -0.644  10.598  22.787  0.00  0.00    +0.000 A 
ATOM     11  C   UNL     1       0.125   9.518  23.206  0.00  0.00    +0.000 A 
ATOM     12  C   UNL     1       0.810   8.743  22.265  0.00  0.00    +0.000 A 
ATOM     13  C   UNL     1       0.777   9.044  20.910  0.00  0.00    +0.000 A 
ATOM     14  N   UNL     1       1.558   8.355  20.060  0.00  0.00    +0.000 NA
ENDBRANCH   2   5
BRANCH   3  15
ATOM     15  C   UNL     1       3.913   6.049  17.658  0.00  0.00    +0.000 A 
ATOM     16  C   UNL     1       4.766   6.617  16.698  0.00  0.00    +0.000 A 
ATOM     17  C   UNL     1       5.627   5.825  15.945  0.00  0.00    +0.000 A 
ATOM     18  C   UNL     1       5.610   4.449  16.110  0.00  0.00    +0.000 A 
ATOM     19  C   UNL     1       4.731   3.864  17.024  0.00  0.00    +0.000 A 
ATOM     20  C   UNL     1       3.873   4.644  17.814  0.00  0.00    +0.000 A 
BRANCH  20  21
ATOM     21  N   UNL     1       2.916   4.051  18.671  0.00  0.00    +0.000 N 
ATOM     22  C   UNL     1       1.578   3.791  18.399  0.00  0.00    +0.000 C 
ATOM     23  O   UNL     1       1.012   3.975  17.322  0.00  0.00    +0.000 OA
ATOM     24  H   UNL     1       3.279   3.674  19.543  0.00  0.00    +0.000 HD
BRANCH  22  25
ATOM     25  C   UNL     1       0.812   3.225  19.594  0.00  0.00    +0.000 C 
ATOM     26  F   UNL     1       1.510   2.250  20.250  0.00  0.00    +0.000 F 
ATOM     27  F   UNL     1       0.540   4.178  20.533  0.00  0.00    +0.000 F 
ENDBRANCH  22  25
ENDBRANCH  20  21
ENDBRANCH   3  15
TORSDOF 4
ENDMDL
MODEL 5
REMARK VINA RESULT:      -8.7      5.238      6.288
REMARK  Name = 
REMARK  4 active torsions:
REMARK  status: ('A' for Active; 'I' for Inactive)
REMARK    1  A    between atoms: C_2  and  C_16
REMARK    2  A    between atoms: N_3  and  C_4
REMARK    3  A    between atoms: C_9  and  N_10
REMARK    4  A    between atoms: C_11  and  C_13
REMARK                            x       y       z     vdW  Elec       q    Type
REMARK                         _______ _______ _______ _____ _____    ______ ____
ROOT
ATOM      1  O   UNL     1       2.840   8.845  16.936  0.00  0.00    +0.000 OA
ATOM      2  C   UNL     1       2.496   8.286  17.968  0.00  0.00    +0.000 C 
ATOM      3  N   UNL     1       2.961   7.071  18.438  0.00  0.00    +0.000 N 
ATOM      4  H   UNL     1       2.398   6.699  19.199  0.00  0.00    +0.000 HD
ENDROOT
BRANCH   2   5
ATOM      5  C   UNL     1       1.444   8.899  18.846  0.00  0.00    +0.000 A 
ATOM      6  C   UNL     1       0.626   9.899  18.345  0.00  0.00    +0.000 A 
ATOM      7  C   UNL     1      -0.219  10.550  19.236  0.00  0.00    +0.000 A 
ATOM      8  C   UNL     1      -0.172  10.223  20.595  0.00  0.00    +0.000 A 
ATOM      9  C   UNL     1      -0.866  10.982  21.552  0.00  0.00    +0.000 A 
ATOM     10  C   UNL     1      -0.745  10.684  22.907  0.00  0.00    +0.000 A 
ATOM     11  C   UNL     1       0.015   9.589  23.305  0.00  0.00    +0.000 A 
ATOM     12  C   UNL     1       0.682   8.818  22.348  0.00  0.00    +0.000 A 
ATOM     13  C   UNL     1       0.641   9.138  20.997  0.00  0.00    +0.000 A 
ATOM     14  N   UNL     1       1.408   8.452  20.131  0.00  0.00    +0.000 NA
ENDBRANCH   2   5
BRANCH   3  15
ATOM     15  C   UNL     1       3.703   6.146  17.669  0.00  0.00    +0.000 A 
ATOM     16  C   UNL     1       4.714   6.709  16.874  0.00  0.00    +0.000 A 
ATOM     17  C   UNL     1       5.570   5.907  16.125  0.00  0.00    +0.000 A 
ATOM     18  C   UNL     1       5.392   4.532  16.126  0.00  0.00    +0.000 A 
ATOM     19  C   UNL     1       4.358   3.959  16.870  0.00  0.00    +0.000 A 
ATOM     20  C   UNL     1       3.501   4.746  17.654  0.00  0.00    +0.000 A 
BRANCH  20  21
ATOM     21  N   UNL     1       2.397   4.180  18.333  0.00  0.00    +0.000 N 
ATOM     22  C   UNL     1       2.421   3.321  19.426  0.00  0.00    +0.000 C 
ATOM     23  O   UNL     1       3.426   2.960  20.039  0.00  0.00    +0.000 OA
ATOM     24  H   UNL     1       1.483   4.528  18.056  0.00  0.00    +0.000 HD
BRANCH  22  25
ATOM     25  C   UNL     1       1.036   2.828  19.845  0.00  0.00    +0.000 C 
ATOM     26  F   UNL     1       0.245   3.834  20.326  0.00  0.00    +0.000 F 
ATOM     27  F   UNL     1       0.344   2.282  18.803  0.00  0.00    +0.000 F 
ENDBRANCH  22  25
ENDBRANCH  20  21
ENDBRANCH   3  15
TORSDOF 4
ENDMDL
MODEL 6
REMARK VINA RESULT:      -8.6      5.051      6.026
REMARK  Name = 
REMARK  4 active torsions:
REMARK  status: ('A' for Active; 'I' for Inactive)
REMARK    1  A    between atoms: C_2  and  C_16
REMARK    2  A    between atoms: N_3  and  C_4
REMARK    3  A    between atoms: C_9  and  N_10
REMARK    4  A    between atoms: C_11  and  C_13
REMARK                            x       y       z     vdW  Elec       q    Type
REMARK                         _______ _______ _______ _____ _____    ______ ____
ROOT
ATOM      1  O   UNL     1       3.309   6.007  20.047  0.00  0.00    +0.000 OA
ATOM      2  C   UNL     1       2.780   6.669  19.164  0.00  0.00    +0.000 C 
ATOM      3  N   UNL     1       2.941   6.497  17.802  0.00  0.00    +0.000 N 
ATOM      4  H   UNL     1       2.577   7.277  17.258  0.00  0.00    +0.000 HD
ENDROOT
BRANCH   2   5
ATOM      5  C   UNL     1       1.883   7.819  19.516  0.00  0.00    +0.000 A 
ATOM      6  C   UNL     1       1.753   8.885  18.640  0.00  0.00    +0.000 A 
ATOM      7  C   UNL     1       1.044   9.997  19.076  0.00  0.00    +0.000 A 
ATOM      8  C   UNL     1       0.548  10.031  20.383  0.00  0.00    +0.000 A 
ATOM      9  C   UNL     1      -0.005  11.204  20.923  0.00  0.00    +0.000 A 
ATOM     10  C   UNL     1      -0.424  11.235  22.251  0.00  0.00    +0.000 A 
ATOM     11  C   UNL     1      -0.354  10.080  23.021  0.00  0.00    +0.000 A 
ATOM     12  C   UNL     1       0.170   8.906  22.473  0.00  0.00    +0.000 A 
ATOM     13  C   UNL     1       0.666   8.865  21.176  0.00  0.00    +0.000 A 
ATOM     14  N   UNL     1       1.285   7.755  20.738  0.00  0.00    +0.000 NA
ENDBRANCH   2   5
BRANCH   3  15
ATOM     15  C   UNL     1       3.955   5.711  17.207  0.00  0.00    +0.000 A 
ATOM     16  C   UNL     1       4.938   6.435  16.514  0.00  0.00    +0.000 A 
ATOM     17  C   UNL     1       6.034   5.795  15.945  0.00  0.00    +0.000 A 
ATOM     18  C   UNL     1       6.136   4.415  16.023  0.00  0.00    +0.000 A 
ATOM     19  C   UNL     1       5.140   3.674  16.665  0.00  0.00    +0.000 A 
ATOM     20  C   UNL     1       4.040   4.301  17.269  0.00  0.00    +0.000 A 
BRANCH  20  21
ATOM     21  N   UNL     1       2.984   3.549  17.836  0.00  0.00    +0.000 N 
ATOM     22  C   UNL     1       3.033   2.725  18.954  0.00  0.00    +0.000 C 
ATOM     23  O   UNL     1       4.007   2.564  19.690  0.00  0.00    +0.000 OA
ATOM     24  H   UNL     1       2.062   3.719  17.444  0.00  0.00    +0.000 HD
BRANCH  22  25
ATOM     25  C   UNL     1       1.721   1.990  19.228  0.00  0.00    +0.000 C 
ATOM     26  F   UNL     1       1.257   2.200  20.497  0.00  0.00    +0.000 F 
ATOM     27  F   UNL     1       0.718   2.395  18.397  0.00  0.00    +0.000 F 
ENDBRANCH  22  25
ENDBRANCH  20  21
ENDBRANCH   3  15
TORSDOF 4
ENDMDL
MODEL 7
REMARK VINA RESULT:      -8.6      4.593      6.272
REMARK  Name = 
REMARK  4 active torsions:
REMARK  status: ('A' for Active; 'I' for Inactive)
REMARK    1  A    between atoms: C_2  and  C_16
REMARK    2  A    between atoms: N_3  and  C_4
REMARK    3  A    between atoms: C_9  and  N_10
REMARK    4  A    between atoms: C_11  and  C_13
REMARK                            x       y       z     vdW  Elec       q    Type
REMARK                         _______ _______ _______ _____ _____    ______ ____
ROOT
ATOM      1  O   UNL     1       2.825   6.535  17.621  0.00  0.00    +0.000 OA
ATOM      2  C   UNL     1       2.602   6.970  18.742  0.00  0.00    +0.000 C 
ATOM      3  N   UNL     1       2.904   6.346  19.939  0.00  0.00    +0.000 N 
ATOM      4  H   UNL     1       2.452   6.785  20.739  0.00  0.00    +0.000 HD
ENDROOT
BRANCH   2   5
ATOM      5  C   UNL     1       1.904   8.287  18.918  0.00  0.00    +0.000 A 
ATOM      6  C   UNL     1       2.039   9.272  17.952  0.00  0.00    +0.000 A 
ATOM      7  C   UNL     1       1.514  10.527  18.232  0.00  0.00    +0.000 A 
ATOM      8  C   UNL     1       0.932  10.769  19.481  0.00  0.00    +0.000 A 
ATOM      9  C   UNL     1       0.562  12.066  19.874  0.00  0.00    +0.000 A 
ATOM     10  C   UNL     1       0.053  12.294  21.150  0.00  0.00    +0.000 A 
ATOM     11  C   UNL     1      -0.148  11.222  22.011  0.00  0.00    +0.000 A 
ATOM     12  C   UNL     1       0.195   9.928  21.608  0.00  0.00    +0.000 A 
ATOM     13  C   UNL     1       0.774   9.680  20.370  0.00  0.00    +0.000 A 
ATOM     14  N   UNL     1       1.212   8.443  20.080  0.00  0.00    +0.000 NA
ENDBRANCH   2   5
BRANCH   3  15
ATOM     15  C   UNL     1       3.267   4.986  20.065  0.00  0.00    +0.000 A 
ATOM     16  C   UNL     1       2.452   4.231  20.924  0.00  0.00    +0.000 A 
ATOM     17  C   UNL     1       2.648   2.863  21.083  0.00  0.00    +0.000 A 
ATOM     18  C   UNL     1       3.694   2.242  20.418  0.00  0.00    +0.000 A 
ATOM     19  C   UNL     1       4.546   2.987  19.599  0.00  0.00    +0.000 A 
ATOM     20  C   UNL     1       4.350   4.363  19.403  0.00  0.00    +0.000 A 
BRANCH  20  21
ATOM     21  N   UNL     1       5.265   5.137  18.652  0.00  0.00    +0.000 N 
ATOM     22  C   UNL     1       6.545   5.533  19.020  0.00  0.00    +0.000 C 
ATOM     23  O   UNL     1       7.132   5.210  20.053  0.00  0.00    +0.000 OA
ATOM     24  H   UNL     1       4.993   5.332  17.692  0.00  0.00    +0.000 HD
BRANCH  22  25
ATOM     25  C   UNL     1       7.218   6.447  17.996  0.00  0.00    +0.000 C 
ATOM     26  F   UNL     1       6.354   7.362  17.462  0.00  0.00    +0.000 F 
ATOM     27  F   UNL     1       8.235   7.175  18.542  0.00  0.00    +0.000 F 
ENDBRANCH  22  25
ENDBRANCH  20  21
ENDBRANCH   3  15
TORSDOF 4
ENDMDL
MODEL 8
REMARK VINA RESULT:      -8.6      4.994      6.404
REMARK  Name = 
REMARK  4 active torsions:
REMARK  status: ('A' for Active; 'I' for Inactive)
REMARK    1  A    between atoms: C_2  and  C_16
REMARK    2  A    between atoms: N_3  and  C_4
REMARK    3  A    between atoms: C_9  and  N_10
REMARK    4  A    between atoms: C_11  and  C_13
REMARK                            x       y       z     vdW  Elec       q    Type
REMARK                         _______ _______ _______ _____ _____    ______ ____
ROOT
ATOM      1  O   UNL     1       3.223   5.743  20.231  0.00  0.00    +0.000 OA
ATOM      2  C   UNL     1       2.758   6.552  19.440  0.00  0.00    +0.000 C 
ATOM      3  N   UNL     1       2.896   6.526  18.064  0.00  0.00    +0.000 N 
ATOM      4  H   UNL     1       2.607   7.397  17.621  0.00  0.00    +0.000 HD
ENDROOT
BRANCH   2   5
ATOM      5  C   UNL     1       1.978   7.733  19.938  0.00  0.00    +0.000 A 
ATOM      6  C   UNL     1       1.485   7.737  21.233  0.00  0.00    +0.000 A 
ATOM      7  C   UNL     1       0.634   8.773  21.597  0.00  0.00    +0.000 A 
ATOM      8  C   UNL     1       0.260   9.726  20.644  0.00  0.00    +0.000 A 
ATOM      9  C   UNL     1      -0.741  10.674  20.915  0.00  0.00    +0.000 A 
ATOM     10  C   UNL     1      -1.150  11.565  19.926  0.00  0.00    +0.000 A 
ATOM     11  C   UNL     1      -0.517  11.555  18.688  0.00  0.00    +0.000 A 
ATOM     12  C   UNL     1       0.498  10.629  18.430  0.00  0.00    +0.000 A 
ATOM     13  C   UNL     1       0.874   9.680  19.371  0.00  0.00    +0.000 A 
ATOM     14  N   UNL     1       1.757   8.725  19.031  0.00  0.00    +0.000 NA
ENDBRANCH   2   5
BRANCH   3  15
ATOM     15  C   UNL     1       3.826   5.722  17.366  0.00  0.00    +0.000 A 
ATOM     16  C   UNL     1       4.697   6.422  16.517  0.00  0.00    +0.000 A 
ATOM     17  C   UNL     1       5.711   5.765  15.827  0.00  0.00    +0.000 A 
ATOM     18  C   UNL     1       5.835   4.390  15.944  0.00  0.00    +0.000 A 
ATOM     19  C   UNL     1       4.945   3.670  16.745  0.00  0.00    +0.000 A 
ATOM     20  C   UNL     1       3.932   4.316  17.471  0.00  0.00    +0.000 A 
BRANCH  20  21
ATOM     21  N   UNL     1       2.972   3.583  18.206  0.00  0.00    +0.000 N 
ATOM     22  C   UNL     1       1.595   3.557  18.017  0.00  0.00    +0.000 C 
ATOM     23  O   UNL     1       0.980   4.126  17.116  0.00  0.00    +0.000 OA
ATOM     24  H   UNL     1       3.346   2.917  18.878  0.00  0.00    +0.000 HD
BRANCH  22  25
ATOM     25  C   UNL     1       0.852   2.725  19.062  0.00  0.00    +0.000 C 
ATOM     26  F   UNL     1       1.582   1.654  19.495  0.00  0.00    +0.000 F 
ATOM     27  F   UNL     1       0.554   3.445  20.182  0.00  0.00    +0.000 F 
ENDBRANCH  22  25
ENDBRANCH  20  21
ENDBRANCH   3  15
TORSDOF 4
ENDMDL
MODEL 9
REMARK VINA RESULT:      -8.5      4.581      5.534
REMARK  Name = 
REMARK  4 active torsions:
REMARK  status: ('A' for Active; 'I' for Inactive)
REMARK    1  A    between atoms: C_2  and  C_16
REMARK    2  A    between atoms: N_3  and  C_4
REMARK    3  A    between atoms: C_9  and  N_10
REMARK    4  A    between atoms: C_11  and  C_13
REMARK                            x       y       z     vdW  Elec       q    Type
REMARK                         _______ _______ _______ _____ _____    ______ ____
ROOT
ATOM      1  O   UNL     1       3.102   8.052  17.033  0.00  0.00    +0.000 OA
ATOM      2  C   UNL     1       2.578   7.803  18.110  0.00  0.00    +0.000 C 
ATOM      3  N   UNL     1       2.655   6.608  18.802  0.00  0.00    +0.000 N 
ATOM      4  H   UNL     1       1.984   6.549  19.566  0.00  0.00    +0.000 HD
ENDROOT
BRANCH   2   5
ATOM      5  C   UNL     1       1.724   8.831  18.792  0.00  0.00    +0.000 A 
ATOM      6  C   UNL     1       1.637  10.111  18.269  0.00  0.00    +0.000 A 
ATOM      7  C   UNL     1       0.971  11.072  19.019  0.00  0.00    +0.000 A 
ATOM      8  C   UNL     1       0.474  10.739  20.283  0.00  0.00    +0.000 A 
ATOM      9  C   UNL     1      -0.034  11.721  21.149  0.00  0.00    +0.000 A 
ATOM     10  C   UNL     1      -0.455  11.376  22.431  0.00  0.00    +0.000 A 
ATOM     11  C   UNL     1      -0.431  10.044  22.828  0.00  0.00    +0.000 A 
ATOM     12  C   UNL     1       0.050   9.064  21.954  0.00  0.00    +0.000 A 
ATOM     13  C   UNL     1       0.546   9.388  20.698  0.00  0.00    +0.000 A 
ATOM     14  N   UNL     1       1.123   8.434  19.947  0.00  0.00    +0.000 NA
ENDBRANCH   2   5
BRANCH   3  15
ATOM     15  C   UNL     1       3.118   5.391  18.252  0.00  0.00    +0.000 A 
ATOM     16  C   UNL     1       2.135   4.404  18.081  0.00  0.00    +0.000 A 
ATOM     17  C   UNL     1       2.436   3.186  17.480  0.00  0.00    +0.000 A 
ATOM     18  C   UNL     1       3.738   2.922  17.087  0.00  0.00    +0.000 A 
ATOM     19  C   UNL     1       4.740   3.873  17.296  0.00  0.00    +0.000 A 
ATOM     20  C   UNL     1       4.454   5.119  17.875  0.00  0.00    +0.000 A 
BRANCH  20  21
ATOM     21  N   UNL     1       5.480   6.045  18.174  0.00  0.00    +0.000 N 
ATOM     22  C   UNL     1       6.336   6.682  17.284  0.00  0.00    +0.000 C 
ATOM     23  O   UNL     1       6.296   6.595  16.057  0.00  0.00    +0.000 OA
ATOM     24  H   UNL     1       5.520   6.361  19.140  0.00  0.00    +0.000 HD
BRANCH  22  25
ATOM     25  C   UNL     1       7.391   7.551  17.968  0.00  0.00    +0.000 C 
ATOM     26  F   UNL     1       8.284   6.816  18.697  0.00  0.00    +0.000 F 
ATOM     27  F   UNL     1       8.140   8.258  17.072  0.00  0.00    +0.000 F 
ENDBRANCH  22  25
ENDBRANCH  20  21
ENDBRANCH   3  15
TORSDOF 4
ENDMDL
