MODEL 1
REMARK VINA RESULT:      -8.4      0.000      0.000
REMARK  Name = 
REMARK  4 active torsions:
REMARK  status: ('A' for Active; 'I' for Inactive)
REMARK    1  A    between atoms: N_7  and  C_8
REMARK    2  A    between atoms: C_11  and  C_12
REMARK    3  A    between atoms: C_12  and  N_13
REMARK    4  A    between atoms: N_13  and  C_14
REMARK                            x       y       z     vdW  Elec       q    Type
REMARK                         _______ _______ _______ _____ _____    ______ ____
ROOT
ATOM      1  C   UNL     1       2.819   5.849  19.138  0.00  0.00    +0.000 A 
ATOM      2  C   UNL     1       2.805   6.958  18.286  0.00  0.00    +0.000 A 
ATOM      3  C   UNL     1       2.179   8.145  18.675  0.00  0.00    +0.000 A 
ATOM      4  C   UNL     1       1.531   8.242  19.917  0.00  0.00    +0.000 A 
ATOM      5  C   UNL     1       1.556   7.128  20.775  0.00  0.00    +0.000 A 
ATOM      6  C   UNL     1       2.190   5.942  20.379  0.00  0.00    +0.000 A 
ATOM      7  F   UNL     1       2.185   4.890  21.213  0.00  0.00    +0.000 F 
ENDROOT
BRANCH   1  14
ATOM      8  O   UNL     1       5.664   5.467  19.682  0.00  0.00    +0.000 OA
ATOM      9  S   UNL     1       5.038   4.324  19.059  0.00  0.00    +0.000 S 
ATOM     10  O   UNL     1       5.053   3.006  19.662  0.00  0.00    +0.000 OA
ATOM     11  C   UNL     1       5.613   4.153  17.389  0.00  0.00    +0.000 C 
ATOM     12  C   UNL     1       4.386   4.004  16.499  0.00  0.00    +0.000 C 
ATOM     13  C   UNL     1       3.098   4.120  17.317  0.00  0.00    +0.000 C 
ATOM     14  N   UNL     1       3.437   4.664  18.634  0.00  0.00    +0.000 N 
ENDBRANCH   1  14
BRANCH   4  15
ATOM     15  C   UNL     1       0.787   9.510  20.283  0.00  0.00    +0.000 C 
BRANCH  15  16
ATOM     16  N   UNL     1       0.402  10.253  19.083  0.00  0.00    +0.000 N 
ATOM     17  H   UNL     1       0.343   9.644  18.273  0.00  0.00    +0.000 HD
BRANCH  16  18
ATOM     18  C   UNL     1      -0.834  10.940  19.217  0.00  0.00    +0.000 A 
ATOM     19  N   UNL     1      -1.006  11.740  20.285  0.00  0.00    +0.000 NA
ATOM     20  C   UNL     1      -2.177  12.376  20.388  0.00  0.00    +0.000 A 
ATOM     21  N   UNL     1      -3.191  12.308  19.521  0.00  0.00    +0.000 NA
ATOM     22  C   UNL     1      -3.014  11.529  18.456  0.00  0.00    +0.000 A 
ATOM     23  C   UNL     1      -4.045  11.450  17.527  0.00  0.00    +0.000 A 
ATOM     24  C   UNL     1      -3.949  10.660  16.382  0.00  0.00    +0.000 A 
ATOM     25  C   UNL     1      -2.794   9.925  16.151  0.00  0.00    +0.000 A 
ATOM     26  C   UNL     1      -1.740   9.991  17.065  0.00  0.00    +0.000 A 
ATOM     27  C   UNL     1      -1.836  10.793  18.231  0.00  0.00    +0.000 A 
ENDBRANCH  16  18
ENDBRANCH  15  16
ENDBRANCH   4  15
TORSDOF 4
ENDMDL
MODEL 2
REMARK VINA RESULT:      -8.3      1.579      1.775
REMARK  Name = 
REMARK  4 active torsions:
REMARK  status: ('A' for Active; 'I' for Inactive)
REMARK    1  A    between atoms: N_7  and  C_8
REMARK    2  A    between atoms: C_11  and  C_12
REMARK    3  A    between atoms: C_12  and  N_13
REMARK    4  A    between atoms: N_13  and  C_14
REMARK                            x       y       z     vdW  Elec       q    Type
REMARK                         _______ _______ _______ _____ _____    ______ ____
ROOT
ATOM      1  C   UNL     1       2.645   5.944  19.132  0.00  0.00    +0.000 A 
ATOM      2  C   UNL     1       2.559   7.031  18.257  0.00  0.00    +0.000 A 
ATOM      3  C   UNL     1       1.990   8.237  18.676  0.00  0.00    +0.000 A 
ATOM      4  C   UNL     1       1.472   8.374  19.973  0.00  0.00    +0.000 A 
ATOM      5  C   UNL     1       1.570   7.282  20.854  0.00  0.00    +0.000 A 
ATOM      6  C   UNL     1       2.145   6.077  20.428  0.00  0.00    +0.000 A 
ATOM      7  F   UNL     1       2.211   5.047  21.285  0.00  0.00    +0.000 F 
ENDROOT
BRANCH   1  14
ATOM      8  O   UNL     1       0.836   3.679  18.763  0.00  0.00    +0.000 OA
ATOM      9  S   UNL     1       2.156   3.456  18.222  0.00  0.00    +0.000 S 
ATOM     10  O   UNL     1       2.376   3.120  16.829  0.00  0.00    +0.000 OA
ATOM     11  C   UNL     1       3.020   2.256  19.204  0.00  0.00    +0.000 C 
ATOM     12  C   UNL     1       4.387   2.841  19.537  0.00  0.00    +0.000 C 
ATOM     13  C   UNL     1       4.524   4.262  18.985  0.00  0.00    +0.000 C 
ATOM     14  N   UNL     1       3.194   4.737  18.600  0.00  0.00    +0.000 N 
ENDBRANCH   1  14
BRANCH   4  15
ATOM     15  C   UNL     1       0.784   9.662  20.380  0.00  0.00    +0.000 C 
BRANCH  15  16
ATOM     16  N   UNL     1       0.438  10.461  19.203  0.00  0.00    +0.000 N 
ATOM     17  H   UNL     1       0.457   9.901  18.356  0.00  0.00    +0.000 HD
BRANCH  16  18
ATOM     18  C   UNL     1      -0.835  11.083  19.299  0.00  0.00    +0.000 A 
ATOM     19  N   UNL     1      -1.072  11.893  20.346  0.00  0.00    +0.000 NA
ATOM     20  C   UNL     1      -2.277  12.467  20.413  0.00  0.00    +0.000 A 
ATOM     21  N   UNL     1      -3.269  12.327  19.528  0.00  0.00    +0.000 NA
ATOM     22  C   UNL     1      -3.029  11.537  18.484  0.00  0.00    +0.000 A 
ATOM     23  C   UNL     1      -4.035  11.383  17.537  0.00  0.00    +0.000 A 
ATOM     24  C   UNL     1      -3.874  10.576  16.412  0.00  0.00    +0.000 A 
ATOM     25  C   UNL     1      -2.677   9.899  16.219  0.00  0.00    +0.000 A 
ATOM     26  C   UNL     1      -1.646  10.042  17.151  0.00  0.00    +0.000 A 
ATOM     27  C   UNL     1      -1.809  10.861  18.298  0.00  0.00    +0.000 A 
ENDBRANCH  16  18
ENDBRANCH  15  16
ENDBRANCH   4  15
TORSDOF 4
ENDMDL
MODEL 3
REMARK VINA RESULT:      -8.3      2.593      3.714
REMARK  Name = 
REMARK  4 active torsions:
REMARK  status: ('A' for Active; 'I' for Inactive)
REMARK    1  A    between atoms: N_7  and  C_8
REMARK    2  A    between atoms: C_11  and  C_12
REMARK    3  A    between atoms: C_12  and  N_13
REMARK    4  A    between atoms: N_13  and  C_14
REMARK                            x       y       z     vdW  Elec       q    Type
REMARK                         _______ _______ _______ _____ _____    ______ ____
ROOT
ATOM      1  C   UNL     1       4.636   4.869  17.974  0.00  0.00    +0.000 A 
ATOM      2  C   UNL     1       3.924   5.969  17.485  0.00  0.00    +0.000 A 
ATOM      3  C   UNL     1       2.925   6.568  18.257  0.00  0.00    +0.000 A 
ATOM      4  C   UNL     1       2.598   6.064  19.526  0.00  0.00    +0.000 A 
ATOM      5  C   UNL     1       3.324   4.964  20.018  0.00  0.00    +0.000 A 
ATOM      6  C   UNL     1       4.327   4.371  19.240  0.00  0.00    +0.000 A 
ATOM      7  F   UNL     1       4.993   3.314  19.730  0.00  0.00    +0.000 F 
ENDROOT
BRANCH   1  14
ATOM      8  O   UNL     1       7.056   6.410  17.417  0.00  0.00    +0.000 OA
ATOM      9  S   UNL     1       7.085   5.074  16.869  0.00  0.00    +0.000 S 
ATOM     10  O   UNL     1       8.128   4.123  17.199  0.00  0.00    +0.000 OA
ATOM     11  C   UNL     1       6.962   5.141  15.100  0.00  0.00    +0.000 C 
ATOM     12  C   UNL     1       5.865   4.170  14.684  0.00  0.00    +0.000 C 
ATOM     13  C   UNL     1       5.204   3.531  15.908  0.00  0.00    +0.000 C 
ATOM     14  N   UNL     1       5.602   4.291  17.094  0.00  0.00    +0.000 N 
ENDBRANCH   1  14
BRANCH   4  15
ATOM     15  C   UNL     1       1.455   6.677  20.310  0.00  0.00    +0.000 C 
BRANCH  15  16
ATOM     16  N   UNL     1       1.852   7.958  20.894  0.00  0.00    +0.000 N 
ATOM     17  H   UNL     1       2.840   8.142  20.748  0.00  0.00    +0.000 HD
BRANCH  16  18
ATOM     18  C   UNL     1       1.113   9.061  20.390  0.00  0.00    +0.000 A 
ATOM     19  N   UNL     1       1.244   9.375  19.089  0.00  0.00    +0.000 NA
ATOM     20  C   UNL     1       0.537  10.416  18.639  0.00  0.00    +0.000 A 
ATOM     21  N   UNL     1      -0.303  11.169  19.354  0.00  0.00    +0.000 NA
ATOM     22  C   UNL     1      -0.444  10.848  20.638  0.00  0.00    +0.000 A 
ATOM     23  C   UNL     1      -1.324  11.602  21.406  0.00  0.00    +0.000 A 
ATOM     24  C   UNL     1      -1.536  11.340  22.760  0.00  0.00    +0.000 A 
ATOM     25  C   UNL     1      -0.853  10.297  23.371  0.00  0.00    +0.000 A 
ATOM     26  C   UNL     1       0.032   9.518  22.621  0.00  0.00    +0.000 A 
ATOM     27  C   UNL     1       0.250   9.785  21.245  0.00  0.00    +0.000 A 
ENDBRANCH  16  18
ENDBRANCH  15  16
ENDBRANCH   4  15
TORSDOF 4
ENDMDL
MODEL 4
REMARK VINA RESULT:      -8.3      1.986      2.416
REMARK  Name = 
REMARK  4 active torsions:
REMARK  status: ('A' for Active; 'I' for Inactive)
REMARK    1  A    between atoms: N_7  and  C_8
REMARK    2  A    between atoms: C_11  and  C_12
REMARK    3  A    between atoms: C_12  and  N_13
REMARK    4  A    between atoms: N_13  and  C_14
REMARK                            x       y       z     vdW  Elec       q    Type
REMARK                         _______ _______ _______ _____ _____    ______ ____
ROOT
ATOM      1  C   UNL     1       4.412   5.699  17.882  0.00  0.00    +0.000 A 
ATOM      2  C   UNL     1       3.868   5.433  19.142  0.00  0.00    +0.000 A 
ATOM      3  C   UNL     1       2.921   6.295  19.703  0.00  0.00    +0.000 A 
ATOM      4  C   UNL     1       2.516   7.456  19.026  0.00  0.00    +0.000 A 
ATOM      5  C   UNL     1       3.059   7.714  17.754  0.00  0.00    +0.000 A 
ATOM      6  C   UNL     1       4.004   6.844  17.196  0.00  0.00    +0.000 A 
ATOM      7  F   UNL     1       4.516   7.124  15.987  0.00  0.00    +0.000 F 
ENDROOT
BRANCH   1  14
ATOM      8  O   UNL     1       7.133   6.719  17.573  0.00  0.00    +0.000 OA
ATOM      9  S   UNL     1       7.026   5.293  17.370  0.00  0.00    +0.000 S 
ATOM     10  O   UNL     1       7.793   4.339  18.146  0.00  0.00    +0.000 OA
ATOM     11  C   UNL     1       7.268   4.904  15.655  0.00  0.00    +0.000 C 
ATOM     12  C   UNL     1       6.116   4.004  15.226  0.00  0.00    +0.000 C 
ATOM     13  C   UNL     1       5.122   3.801  16.373  0.00  0.00    +0.000 C 
ATOM     14  N   UNL     1       5.411   4.792  17.412  0.00  0.00    +0.000 N 
ENDBRANCH   1  14
BRANCH   4  15
ATOM     15  C   UNL     1       1.552   8.419  19.689  0.00  0.00    +0.000 C 
BRANCH  15  16
ATOM     16  N   UNL     1       1.361   9.613  18.866  0.00  0.00    +0.000 N 
ATOM     17  H   UNL     1       1.133   9.370  17.906  0.00  0.00    +0.000 HD
BRANCH  16  18
ATOM     18  C   UNL     1       0.351  10.482  19.358  0.00  0.00    +0.000 A 
ATOM     19  N   UNL     1       0.617  11.210  20.458  0.00  0.00    +0.000 NA
ATOM     20  C   UNL     1      -0.349  12.020  20.901  0.00  0.00    +0.000 A 
ATOM     21  N   UNL     1      -1.552  12.192  20.347  0.00  0.00    +0.000 NA
ATOM     22  C   UNL     1      -1.809  11.484  19.249  0.00  0.00    +0.000 A 
ATOM     23  C   UNL     1      -3.046  11.653  18.639  0.00  0.00    +0.000 A 
ATOM     24  C   UNL     1      -3.404  10.953  17.487  0.00  0.00    +0.000 A 
ATOM     25  C   UNL     1      -2.506  10.058  16.922  0.00  0.00    +0.000 A 
ATOM     26  C   UNL     1      -1.252   9.874  17.511  0.00  0.00    +0.000 A 
ATOM     27  C   UNL     1      -0.887  10.583  18.684  0.00  0.00    +0.000 A 
ENDBRANCH  16  18
ENDBRANCH  15  16
ENDBRANCH   4  15
TORSDOF 4
ENDMDL
MODEL 5
REMARK VINA RESULT:      -8.2      7.153     10.034
REMARK  Name = 
REMARK  4 active torsions:
REMARK  status: ('A' for Active; 'I' for Inactive)
REMARK    1  A    between atoms: N_7  and  C_8
REMARK    2  A    between atoms: C_11  and  C_12
REMARK    3  A    between atoms: C_12  and  N_13
REMARK    4  A    between atoms: N_13  and  C_14
REMARK                            x       y       z     vdW  Elec       q    Type
REMARK                         _______ _______ _______ _____ _____    ______ ____
ROOT
ATOM      1  C   UNL     1       9.365  12.046  18.697  0.00  0.00    +0.000 A 
ATOM      2  C   UNL     1       8.496  11.719  17.652  0.00  0.00    +0.000 A 
ATOM      3  C   UNL     1       8.053  10.404  17.480  0.00  0.00    +0.000 A 
ATOM      4  C   UNL     1       8.490   9.382  18.337  0.00  0.00    +0.000 A 
ATOM      5  C   UNL     1       9.356   9.717  19.393  0.00  0.00    +0.000 A 
ATOM      6  C   UNL     1       9.792  11.038  19.562  0.00  0.00    +0.000 A 
ATOM      7  F   UNL     1      10.631  11.325  20.570  0.00  0.00    +0.000 F 
ENDROOT
BRANCH   1  14
ATOM      8  O   UNL     1      12.038  12.654  17.686  0.00  0.00    +0.000 OA
ATOM      9  S   UNL     1      11.277  13.828  18.045  0.00  0.00    +0.000 S 
ATOM     10  O   UNL     1      11.006  14.895  17.102  0.00  0.00    +0.000 OA
ATOM     11  C   UNL     1      11.958  14.568  19.507  0.00  0.00    +0.000 C 
ATOM     12  C   UNL     1      10.807  14.798  20.479  0.00  0.00    +0.000 C 
ATOM     13  C   UNL     1       9.493  14.259  19.908  0.00  0.00    +0.000 C 
ATOM     14  N   UNL     1       9.805  13.403  18.762  0.00  0.00    +0.000 N 
ENDBRANCH   1  14
BRANCH   4  15
ATOM     15  C   UNL     1       8.064   7.950  18.083  0.00  0.00    +0.000 C 
BRANCH  15  16
ATOM     16  N   UNL     1       6.984   7.896  17.097  0.00  0.00    +0.000 N 
ATOM     17  H   UNL     1       7.248   8.357  16.232  0.00  0.00    +0.000 HD
BRANCH  16  18
ATOM     18  C   UNL     1       6.566   6.574  16.790  0.00  0.00    +0.000 A 
ATOM     19  N   UNL     1       7.437   5.757  16.171  0.00  0.00    +0.000 NA
ATOM     20  C   UNL     1       7.021   4.518  15.894  0.00  0.00    +0.000 A 
ATOM     21  N   UNL     1       5.824   4.003  16.189  0.00  0.00    +0.000 NA
ATOM     22  C   UNL     1       4.967   4.806  16.816  0.00  0.00    +0.000 A 
ATOM     23  C   UNL     1       3.719   4.294  17.152  0.00  0.00    +0.000 A 
ATOM     24  C   UNL     1       2.758   5.061  17.809  0.00  0.00    +0.000 A 
ATOM     25  C   UNL     1       3.044   6.378  18.145  0.00  0.00    +0.000 A 
ATOM     26  C   UNL     1       4.294   6.916  17.826  0.00  0.00    +0.000 A 
ATOM     27  C   UNL     1       5.271   6.138  17.155  0.00  0.00    +0.000 A 
ENDBRANCH  16  18
ENDBRANCH  15  16
ENDBRANCH   4  15
TORSDOF 4
ENDMDL
MODEL 6
REMARK VINA RESULT:      -8.2      2.717      3.934
REMARK  Name = 
REMARK  4 active torsions:
REMARK  status: ('A' for Active; 'I' for Inactive)
REMARK    1  A    between atoms: N_7  and  C_8
REMARK    2  A    between atoms: C_11  and  C_12
REMARK    3  A    between atoms: C_12  and  N_13
REMARK    4  A    between atoms: N_13  and  C_14
REMARK                            x       y       z     vdW  Elec       q    Type
REMARK                         _______ _______ _______ _____ _____    ______ ____
ROOT
ATOM      1  C   UNL     1       4.638   4.889  17.942  0.00  0.00    +0.000 A 
ATOM      2  C   UNL     1       4.280   4.283  19.151  0.00  0.00    +0.000 A 
ATOM      3  C   UNL     1       3.261   4.823  19.942  0.00  0.00    +0.000 A 
ATOM      4  C   UNL     1       2.595   5.995  19.553  0.00  0.00    +0.000 A 
ATOM      5  C   UNL     1       2.951   6.595  18.332  0.00  0.00    +0.000 A 
ATOM      6  C   UNL     1       3.970   6.046  17.542  0.00  0.00    +0.000 A 
ATOM      7  F   UNL     1       4.298   6.650  16.389  0.00  0.00    +0.000 F 
ENDROOT
BRANCH   1  14
ATOM      8  O   UNL     1       7.133   6.400  17.776  0.00  0.00    +0.000 OA
ATOM      9  S   UNL     1       7.233   5.062  17.241  0.00  0.00    +0.000 S 
ATOM     10  O   UNL     1       8.199   4.100  17.732  0.00  0.00    +0.000 OA
ATOM     11  C   UNL     1       7.394   5.125  15.474  0.00  0.00    +0.000 C 
ATOM     12  C   UNL     1       6.365   4.165  14.890  0.00  0.00    +0.000 C 
ATOM     13  C   UNL     1       5.510   3.538  15.994  0.00  0.00    +0.000 C 
ATOM     14  N   UNL     1       5.724   4.297  17.228  0.00  0.00    +0.000 N 
ENDBRANCH   1  14
BRANCH   4  15
ATOM     15  C   UNL     1       1.552   6.609  20.466  0.00  0.00    +0.000 C 
BRANCH  15  16
ATOM     16  N   UNL     1       1.986   7.922  20.943  0.00  0.00    +0.000 N 
ATOM     17  H   UNL     1       2.964   8.090  20.728  0.00  0.00    +0.000 HD
BRANCH  16  18
ATOM     18  C   UNL     1       1.222   8.995  20.413  0.00  0.00    +0.000 A 
ATOM     19  N   UNL     1       1.337   9.274  19.102  0.00  0.00    +0.000 NA
ATOM     20  C   UNL     1       0.607  10.288  18.628  0.00  0.00    +0.000 A 
ATOM     21  N   UNL     1      -0.243  11.044  19.328  0.00  0.00    +0.000 NA
ATOM     22  C   UNL     1      -0.369  10.759  20.622  0.00  0.00    +0.000 A 
ATOM     23  C   UNL     1      -1.258  11.517  21.374  0.00  0.00    +0.000 A 
ATOM     24  C   UNL     1      -1.454  11.290  22.736  0.00  0.00    +0.000 A 
ATOM     25  C   UNL     1      -0.747  10.279  23.372  0.00  0.00    +0.000 A 
ATOM     26  C   UNL     1       0.148   9.496  22.638  0.00  0.00    +0.000 A 
ATOM     27  C   UNL     1       0.351   9.727  21.253  0.00  0.00    +0.000 A 
ENDBRANCH  16  18
ENDBRANCH  15  16
ENDBRANCH   4  15
TORSDOF 4
ENDMDL
MODEL 7
REMARK VINA RESULT:      -8.2      1.062      1.425
REMARK  Name = 
REMARK  4 active torsions:
REMARK  status: ('A' for Active; 'I' for Inactive)
REMARK    1  A    between atoms: N_7  and  C_8
REMARK    2  A    between atoms: C_11  and  C_12
REMARK    3  A    between atoms: C_12  and  N_13
REMARK    4  A    between atoms: N_13  and  C_14
REMARK                            x       y       z     vdW  Elec       q    Type
REMARK                         _______ _______ _______ _____ _____    ______ ____
ROOT
ATOM      1  C   UNL     1       2.818   5.845  19.022  0.00  0.00    +0.000 A 
ATOM      2  C   UNL     1       2.135   5.737  20.237  0.00  0.00    +0.000 A 
ATOM      3  C   UNL     1       1.477   6.843  20.783  0.00  0.00    +0.000 A 
ATOM      4  C   UNL     1       1.510   8.088  20.137  0.00  0.00    +0.000 A 
ATOM      5  C   UNL     1       2.189   8.190  18.910  0.00  0.00    +0.000 A 
ATOM      6  C   UNL     1       2.843   7.076  18.366  0.00  0.00    +0.000 A 
ATOM      7  F   UNL     1       3.496   7.207  17.201  0.00  0.00    +0.000 F 
ENDROOT
BRANCH   1  14
ATOM      8  O   UNL     1       5.667   5.623  19.631  0.00  0.00    +0.000 OA
ATOM      9  S   UNL     1       5.111   4.431  19.033  0.00  0.00    +0.000 S 
ATOM     10  O   UNL     1       5.180   3.136  19.679  0.00  0.00    +0.000 OA
ATOM     11  C   UNL     1       5.727   4.237  17.380  0.00  0.00    +0.000 C 
ATOM     12  C   UNL     1       4.527   3.998  16.473  0.00  0.00    +0.000 C 
ATOM     13  C   UNL     1       3.218   4.075  17.264  0.00  0.00    +0.000 C 
ATOM     14  N   UNL     1       3.504   4.676  18.568  0.00  0.00    +0.000 N 
ENDBRANCH   1  14
BRANCH   4  15
ATOM     15  C   UNL     1       0.861   9.293  20.788  0.00  0.00    +0.000 C 
BRANCH  15  16
ATOM     16  N   UNL     1       0.807  10.422  19.858  0.00  0.00    +0.000 N 
ATOM     17  H   UNL     1       1.009  10.128  18.907  0.00  0.00    +0.000 HD
BRANCH  16  18
ATOM     18  C   UNL     1      -0.443  11.096  19.862  0.00  0.00    +0.000 A 
ATOM     19  N   UNL     1      -0.704  11.949  20.869  0.00  0.00    +0.000 NA
ATOM     20  C   UNL     1      -1.886  12.572  20.849  0.00  0.00    +0.000 A 
ATOM     21  N   UNL     1      -2.831  12.443  19.914  0.00  0.00    +0.000 NA
ATOM     22  C   UNL     1      -2.566  11.612  18.909  0.00  0.00    +0.000 A 
ATOM     23  C   UNL     1      -3.522  11.469  17.910  0.00  0.00    +0.000 A 
ATOM     24  C   UNL     1      -3.332  10.620  16.820  0.00  0.00    +0.000 A 
ATOM     25  C   UNL     1      -2.155   9.891  16.716  0.00  0.00    +0.000 A 
ATOM     26  C   UNL     1      -1.173  10.021  17.702  0.00  0.00    +0.000 A 
ATOM     27  C   UNL     1      -1.366  10.882  18.813  0.00  0.00    +0.000 A 
ENDBRANCH  16  18
ENDBRANCH  15  16
ENDBRANCH   4  15
TORSDOF 4
ENDMDL
MODEL 8
REMARK VINA RESULT:      -8.2      1.354      1.676
REMARK  Name = 
REMARK  4 active torsions:
REMARK  status: ('A' for Active; 'I' for Inactive)
REMARK    1  A    between atoms: N_7  and  C_8
REMARK    2  A    between atoms: C_11  and  C_12
REMARK    3  A    between atoms: C_12  and  N_13
REMARK    4  A    between atoms: N_13  and  C_14
REMARK                            x       y       z     vdW  Elec       q    Type
REMARK                         _______ _______ _______ _____ _____    ______ ____
ROOT
ATOM      1  C   UNL     1       2.535   5.124  19.173  0.00  0.00    +0.000 A 
ATOM      2  C   UNL     1       2.845   5.608  17.898  0.00  0.00    +0.000 A 
ATOM      3  C   UNL     1       2.770   6.975  17.620  0.00  0.00    +0.000 A 
ATOM      4  C   UNL     1       2.359   7.887  18.605  0.00  0.00    +0.000 A 
ATOM      5  C   UNL     1       2.059   7.397  19.888  0.00  0.00    +0.000 A 
ATOM      6  C   UNL     1       2.140   6.026  20.161  0.00  0.00    +0.000 A 
ATOM      7  F   UNL     1       1.833   5.586  21.391  0.00  0.00    +0.000 F 
ENDROOT
BRANCH   1  14
ATOM      8  O   UNL     1       5.174   3.874  19.299  0.00  0.00    +0.000 OA
ATOM      9  S   UNL     1       4.090   2.963  19.587  0.00  0.00    +0.000 S 
ATOM     10  O   UNL     1       4.010   2.220  20.828  0.00  0.00    +0.000 OA
ATOM     11  C   UNL     1       3.904   1.802  18.257  0.00  0.00    +0.000 C 
ATOM     12  C   UNL     1       2.431   1.791  17.867  0.00  0.00    +0.000 C 
ATOM     13  C   UNL     1       1.639   2.813  18.686  0.00  0.00    +0.000 C 
ATOM     14  N   UNL     1       2.590   3.707  19.349  0.00  0.00    +0.000 N 
ENDBRANCH   1  14
BRANCH   4  15
ATOM     15  C   UNL     1       2.205   9.355  18.258  0.00  0.00    +0.000 C 
BRANCH  15  16
ATOM     16  N   UNL     1       0.904   9.609  17.638  0.00  0.00    +0.000 N 
ATOM     17  H   UNL     1       0.418   8.742  17.427  0.00  0.00    +0.000 HD
BRANCH  16  18
ATOM     18  C   UNL     1       0.049  10.418  18.433  0.00  0.00    +0.000 A 
ATOM     19  N   UNL     1       0.574  11.039  19.504  0.00  0.00    +0.000 NA
ATOM     20  C   UNL     1      -0.250  11.795  20.235  0.00  0.00    +0.000 A 
ATOM     21  N   UNL     1      -1.547  12.009  19.995  0.00  0.00    +0.000 NA
ATOM     22  C   UNL     1      -2.063  11.407  18.926  0.00  0.00    +0.000 A 
ATOM     23  C   UNL     1      -3.406  11.622  18.639  0.00  0.00    +0.000 A 
ATOM     24  C   UNL     1      -4.032  11.033  17.541  0.00  0.00    +0.000 A 
ATOM     25  C   UNL     1      -3.302  10.204  16.700  0.00  0.00    +0.000 A 
ATOM     26  C   UNL     1      -1.948   9.975  16.960  0.00  0.00    +0.000 A 
ATOM     27  C   UNL     1      -1.311  10.572  18.078  0.00  0.00    +0.000 A 
ENDBRANCH  16  18
ENDBRANCH  15  16
ENDBRANCH   4  15
TORSDOF 4
ENDMDL
MODEL 9
REMARK VINA RESULT:      -8.2      7.055     10.035
REMARK  Name = 
REMARK  4 active torsions:
REMARK  status: ('A' for Active; 'I' for Inactive)
REMARK    1  A    between atoms: N_7  and  C_8
REMARK    2  A    between atoms: C_11  and  C_12
REMARK    3  A    between atoms: C_12  and  N_13
REMARK    4  A    between atoms: N_13  and  C_14
REMARK                            x       y       z     vdW  Elec       q    Type
REMARK                         _______ _______ _______ _____ _____    ______ ____
ROOT
ATOM      1  C   UNL     1       9.140  12.003  18.598  0.00  0.00    +0.000 A 
ATOM      2  C   UNL     1       9.678  10.975  19.379  0.00  0.00    +0.000 A 
ATOM      3  C   UNL     1       9.309   9.646  19.154  0.00  0.00    +0.000 A 
ATOM      4  C   UNL     1       8.375   9.317  18.159  0.00  0.00    +0.000 A 
ATOM      5  C   UNL     1       7.845  10.353  17.370  0.00  0.00    +0.000 A 
ATOM      6  C   UNL     1       8.222  11.683  17.598  0.00  0.00    +0.000 A 
ATOM      7  F   UNL     1       7.688  12.653  16.838  0.00  0.00    +0.000 F 
ENDROOT
BRANCH   1  14
ATOM      8  O   UNL     1      11.365  13.174  17.109  0.00  0.00    +0.000 OA
ATOM      9  S   UNL     1      10.710  14.108  17.995  0.00  0.00    +0.000 S 
ATOM     10  O   UNL     1      10.133  15.351  17.522  0.00  0.00    +0.000 OA
ATOM     11  C   UNL     1      11.774  14.498  19.360  0.00  0.00    +0.000 C 
ATOM     12  C   UNL     1      10.961  14.318  20.636  0.00  0.00    +0.000 C 
ATOM     13  C   UNL     1       9.554  13.803  20.322  0.00  0.00    +0.000 C 
ATOM     14  N   UNL     1       9.535  13.334  18.935  0.00  0.00    +0.000 N 
ENDBRANCH   1  14
BRANCH   4  15
ATOM     15  C   UNL     1       7.927   7.880  17.989  0.00  0.00    +0.000 C 
BRANCH  15  16
ATOM     16  N   UNL     1       6.842   7.785  17.012  0.00  0.00    +0.000 N 
ATOM     17  H   UNL     1       7.074   8.271  16.151  0.00  0.00    +0.000 HD
BRANCH  16  18
ATOM     18  C   UNL     1       6.489   6.448  16.689  0.00  0.00    +0.000 A 
ATOM     19  N   UNL     1       7.390   5.689  16.039  0.00  0.00    +0.000 NA
ATOM     20  C   UNL     1       7.035   4.435  15.748  0.00  0.00    +0.000 A 
ATOM     21  N   UNL     1       5.872   3.852  16.055  0.00  0.00    +0.000 NA
ATOM     22  C   UNL     1       4.987   4.597  16.712  0.00  0.00    +0.000 A 
ATOM     23  C   UNL     1       3.774   4.014  17.060  0.00  0.00    +0.000 A 
ATOM     24  C   UNL     1       2.786   4.718  17.749  0.00  0.00    +0.000 A 
ATOM     25  C   UNL     1       3.008   6.042  18.102  0.00  0.00    +0.000 A 
ATOM     26  C   UNL     1       4.221   6.651  17.771  0.00  0.00    +0.000 A 
ATOM     27  C   UNL     1       5.226   5.937  17.069  0.00  0.00    +0.000 A 
ENDBRANCH  16  18
ENDBRANCH  15  16
ENDBRANCH   4  15
TORSDOF 4
ENDMDL
