MODEL 1
REMARK VINA RESULT:      -8.6      0.000      0.000
REMARK  Name = 
REMARK  8 active torsions:
REMARK  status: ('A' for Active; 'I' for Inactive)
REMARK    1  A    between atoms: C_2  and  C_11
REMARK    2  A    between atoms: N_3  and  C_4
REMARK    3  A    between atoms: C_4  and  C_5
REMARK    4  A    between atoms: N_14  and  C_15
REMARK    5  A    between atoms: C_15  and  C_16
REMARK    6  A    between atoms: C_16  and  O_17
REMARK    7  A    between atoms: C_16  and  C_18
REMARK    8  A    between atoms: C_18  and  N_19
REMARK                            x       y       z     vdW  Elec       q    Type
REMARK                         _______ _______ _______ _____ _____    ______ ____
ROOT
ATOM      1  C   UNL     1       1.132   9.155  19.452  0.00  0.00    +0.000 C 
ENDROOT
BRANCH   1   5
ATOM      2  C   UNL     1      -1.178  12.740  19.980  0.00  0.00    +0.000 C 
ATOM      3  C   UNL     1      -1.455  11.797  18.804  0.00  0.00    +0.000 C 
ATOM      4  C   UNL     1      -0.809  10.445  19.038  0.00  0.00    +0.000 C 
ATOM      5  N   UNL     1       0.655  10.533  19.186  0.00  0.00    +0.000 NA
ATOM      6  C   UNL     1       1.028  11.476  20.252  0.00  0.00    +0.000 C 
ATOM      7  C   UNL     1       0.338  12.844  20.147  0.00  0.00    +0.000 C 
BRANCH   2   9
ATOM      8  O   UNL     1      -1.285  11.704  22.178  0.00  0.00    +0.000 OA
ATOM      9  C   UNL     1      -1.864  12.316  21.283  0.00  0.00    +0.000 C 
ATOM     10  N   UNL     1      -3.161  12.642  21.512  0.00  0.00    +0.000 N 
ATOM     11  H   UNL     1      -3.512  12.308  22.405  0.00  0.00    +0.000 HD
BRANCH  10  12
ATOM     12  C   UNL     1      -4.129  13.332  20.664  0.00  0.00    +0.000 C 
BRANCH  12  13
ATOM     13  C   UNL     1      -5.069  12.396  19.929  0.00  0.00    +0.000 A 
ATOM     14  C   UNL     1      -6.195  11.904  20.609  0.00  0.00    +0.000 A 
ATOM     15  C   UNL     1      -7.112  11.064  19.965  0.00  0.00    +0.000 A 
ATOM     16  C   UNL     1      -6.929  10.725  18.624  0.00  0.00    +0.000 A 
ATOM     17  C   UNL     1      -5.814  11.205  17.936  0.00  0.00    +0.000 A 
ATOM     18  C   UNL     1      -4.895  12.035  18.580  0.00  0.00    +0.000 A 
ENDBRANCH  12  13
ENDBRANCH  10  12
ENDBRANCH   2   9
ENDBRANCH   1   5
BRANCH   1  19
ATOM     19  C   UNL     1       1.757   8.291  18.339  0.00  0.00    +0.000 C 
BRANCH  19  20
ATOM     20  O   UNL     1       2.340   9.082  17.299  0.00  0.00    +0.000 OA
ATOM     21  H   UNL     1       1.631   9.561  16.839  0.00  0.00    +0.000 HD
ENDBRANCH  19  20
BRANCH  19  22
ATOM     22  C   UNL     1       2.842   7.454  19.047  0.00  0.00    +0.000 C 
BRANCH  22  23
ATOM     23  N   UNL     1       3.006   6.115  18.524  0.00  0.00    +0.000 N 
ATOM     24  C   UNL     1       3.818   5.801  17.458  0.00  0.00    +0.000 A 
ATOM     25  C   UNL     1       4.535   6.581  16.548  0.00  0.00    +0.000 A 
ATOM     26  C   UNL     1       5.674   5.988  16.005  0.00  0.00    +0.000 A 
ATOM     27  C   UNL     1       6.029   4.682  16.344  0.00  0.00    +0.000 A 
ATOM     28  C   UNL     1       5.128   3.851  17.021  0.00  0.00    +0.000 A 
ATOM     29  C   UNL     1       3.946   4.419  17.520  0.00  0.00    +0.000 A 
ATOM     30  C   UNL     1       2.734   3.970  18.114  0.00  0.00    +0.000 A 
ATOM     31  C   UNL     1       1.928   2.817  18.067  0.00  0.00    +0.000 A 
ATOM     32  C   UNL     1       0.917   2.664  19.023  0.00  0.00    +0.000 A 
ATOM     33  C   UNL     1       0.815   3.558  20.088  0.00  0.00    +0.000 A 
ATOM     34  C   UNL     1       1.553   4.743  20.103  0.00  0.00    +0.000 A 
ATOM     35  C   UNL     1       2.388   4.983  19.004  0.00  0.00    +0.000 A 
ENDBRANCH  22  23
ENDBRANCH  19  22
ENDBRANCH   1  19
TORSDOF 8
ENDMDL
MODEL 2
REMARK VINA RESULT:      -8.4      1.160      3.272
REMARK  Name = 
REMARK  8 active torsions:
REMARK  status: ('A' for Active; 'I' for Inactive)
REMARK    1  A    between atoms: C_2  and  C_11
REMARK    2  A    between atoms: N_3  and  C_4
REMARK    3  A    between atoms: C_4  and  C_5
REMARK    4  A    between atoms: N_14  and  C_15
REMARK    5  A    between atoms: C_15  and  C_16
REMARK    6  A    between atoms: C_16  and  O_17
REMARK    7  A    between atoms: C_16  and  C_18
REMARK    8  A    between atoms: C_18  and  N_19
REMARK                            x       y       z     vdW  Elec       q    Type
REMARK                         _______ _______ _______ _____ _____    ______ ____
ROOT
ATOM      1  C   UNL     1       1.209   9.318  19.201  0.00  0.00    +0.000 C 
ENDROOT
BRANCH   1   5
ATOM      2  C   UNL     1      -1.520  12.629  19.442  0.00  0.00    +0.000 C 
ATOM      3  C   UNL     1      -1.913  11.343  18.705  0.00  0.00    +0.000 C 
ATOM      4  C   UNL     1      -0.982  10.206  19.078  0.00  0.00    +0.000 C 
ATOM      5  N   UNL     1       0.424  10.488  18.739  0.00  0.00    +0.000 NA
ATOM      6  C   UNL     1       0.879  11.748  19.346  0.00  0.00    +0.000 C 
ATOM      7  C   UNL     1      -0.062  12.936  19.099  0.00  0.00    +0.000 C 
BRANCH   2   9
ATOM      8  O   UNL     1      -0.830  12.399  21.763  0.00  0.00    +0.000 OA
ATOM      9  C   UNL     1      -1.744  12.562  20.956  0.00  0.00    +0.000 C 
ATOM     10  N   UNL     1      -2.988  12.720  21.472  0.00  0.00    +0.000 N 
ATOM     11  H   UNL     1      -3.018  12.654  22.486  0.00  0.00    +0.000 HD
BRANCH  10  12
ATOM     12  C   UNL     1      -4.275  12.904  20.807  0.00  0.00    +0.000 C 
BRANCH  12  13
ATOM     13  C   UNL     1      -5.467  12.720  21.727  0.00  0.00    +0.000 A 
ATOM     14  C   UNL     1      -5.327  13.059  23.082  0.00  0.00    +0.000 A 
ATOM     15  C   UNL     1      -6.407  12.941  23.966  0.00  0.00    +0.000 A 
ATOM     16  C   UNL     1      -7.648  12.506  23.502  0.00  0.00    +0.000 A 
ATOM     17  C   UNL     1      -7.801  12.165  22.157  0.00  0.00    +0.000 A 
ATOM     18  C   UNL     1      -6.723  12.274  21.278  0.00  0.00    +0.000 A 
ENDBRANCH  12  13
ENDBRANCH  10  12
ENDBRANCH   2   9
ENDBRANCH   1   5
BRANCH   1  19
ATOM     19  C   UNL     1       1.825   8.316  18.204  0.00  0.00    +0.000 C 
BRANCH  19  20
ATOM     20  O   UNL     1       2.489   8.970  17.118  0.00  0.00    +0.000 OA
ATOM     21  H   UNL     1       3.261   9.443  17.467  0.00  0.00    +0.000 HD
ENDBRANCH  19  20
BRANCH  19  22
ATOM     22  C   UNL     1       2.835   7.498  19.034  0.00  0.00    +0.000 C 
BRANCH  22  23
ATOM     23  N   UNL     1       3.062   6.154  18.552  0.00  0.00    +0.000 N 
ATOM     24  C   UNL     1       2.487   5.032  19.103  0.00  0.00    +0.000 A 
ATOM     25  C   UNL     1       1.720   4.826  20.253  0.00  0.00    +0.000 A 
ATOM     26  C   UNL     1       0.833   3.752  20.205  0.00  0.00    +0.000 A 
ATOM     27  C   UNL     1       0.763   2.932  19.078  0.00  0.00    +0.000 A 
ATOM     28  C   UNL     1       1.747   3.001  18.085  0.00  0.00    +0.000 A 
ATOM     29  C   UNL     1       2.688   4.040  18.152  0.00  0.00    +0.000 A 
ATOM     30  C   UNL     1       3.890   4.414  17.489  0.00  0.00    +0.000 A 
ATOM     31  C   UNL     1       4.949   3.761  16.830  0.00  0.00    +0.000 A 
ATOM     32  C   UNL     1       5.842   4.527  16.072  0.00  0.00    +0.000 A 
ATOM     33  C   UNL     1       5.596   5.881  15.851  0.00  0.00    +0.000 A 
ATOM     34  C   UNL     1       4.599   6.554  16.560  0.00  0.00    +0.000 A 
ATOM     35  C   UNL     1       3.871   5.805  17.493  0.00  0.00    +0.000 A 
ENDBRANCH  22  23
ENDBRANCH  19  22
ENDBRANCH   1  19
TORSDOF 8
ENDMDL
MODEL 3
REMARK VINA RESULT:      -8.4      1.908      3.610
REMARK  Name = 
REMARK  8 active torsions:
REMARK  status: ('A' for Active; 'I' for Inactive)
REMARK    1  A    between atoms: C_2  and  C_11
REMARK    2  A    between atoms: N_3  and  C_4
REMARK    3  A    between atoms: C_4  and  C_5
REMARK    4  A    between atoms: N_14  and  C_15
REMARK    5  A    between atoms: C_15  and  C_16
REMARK    6  A    between atoms: C_16  and  O_17
REMARK    7  A    between atoms: C_16  and  C_18
REMARK    8  A    between atoms: C_18  and  N_19
REMARK                            x       y       z     vdW  Elec       q    Type
REMARK                         _______ _______ _______ _____ _____    ______ ____
ROOT
ATOM      1  C   UNL     1       1.246   9.194  19.335  0.00  0.00    +0.000 C 
ENDROOT
BRANCH   1   5
ATOM      2  C   UNL     1      -0.775  12.961  19.776  0.00  0.00    +0.000 C 
ATOM      3  C   UNL     1      -1.570  11.667  19.565  0.00  0.00    +0.000 C 
ATOM      4  C   UNL     1      -0.697  10.455  19.826  0.00  0.00    +0.000 C 
ATOM      5  N   UNL     1       0.473  10.394  18.933  0.00  0.00    +0.000 NA
ATOM      6  C   UNL     1       1.269  11.630  19.010  0.00  0.00    +0.000 C 
ATOM      7  C   UNL     1       0.443  12.915  18.855  0.00  0.00    +0.000 C 
BRANCH   2   9
ATOM      8  O   UNL     1       0.690  12.817  21.712  0.00  0.00    +0.000 OA
ATOM      9  C   UNL     1      -0.375  13.205  21.235  0.00  0.00    +0.000 C 
ATOM     10  N   UNL     1      -1.190  13.907  22.060  0.00  0.00    +0.000 N 
ATOM     11  H   UNL     1      -0.825  14.005  23.004  0.00  0.00    +0.000 HD
BRANCH  10  12
ATOM     12  C   UNL     1      -2.512  14.480  21.826  0.00  0.00    +0.000 C 
BRANCH  12  13
ATOM     13  C   UNL     1      -3.613  13.819  22.634  0.00  0.00    +0.000 A 
ATOM     14  C   UNL     1      -3.252  13.014  23.727  0.00  0.00    +0.000 A 
ATOM     15  C   UNL     1      -4.231  12.409  24.526  0.00  0.00    +0.000 A 
ATOM     16  C   UNL     1      -5.584  12.621  24.259  0.00  0.00    +0.000 A 
ATOM     17  C   UNL     1      -5.956  13.418  23.175  0.00  0.00    +0.000 A 
ATOM     18  C   UNL     1      -4.982  14.014  22.374  0.00  0.00    +0.000 A 
ENDBRANCH  12  13
ENDBRANCH  10  12
ENDBRANCH   2   9
ENDBRANCH   1   5
BRANCH   1  19
ATOM     19  C   UNL     1       1.834   8.227  18.288  0.00  0.00    +0.000 C 
BRANCH  19  20
ATOM     20  O   UNL     1       2.432   8.918  17.186  0.00  0.00    +0.000 OA
ATOM     21  H   UNL     1       3.117   8.349  16.800  0.00  0.00    +0.000 HD
ENDBRANCH  19  20
BRANCH  19  22
ATOM     22  C   UNL     1       2.899   7.414  19.052  0.00  0.00    +0.000 C 
BRANCH  22  23
ATOM     23  N   UNL     1       3.100   6.070  18.558  0.00  0.00    +0.000 N 
ATOM     24  C   UNL     1       2.516   4.953  19.111  0.00  0.00    +0.000 A 
ATOM     25  C   UNL     1       1.763   4.751  20.270  0.00  0.00    +0.000 A 
ATOM     26  C   UNL     1       0.859   3.691  20.229  0.00  0.00    +0.000 A 
ATOM     27  C   UNL     1       0.761   2.879  19.098  0.00  0.00    +0.000 A 
ATOM     28  C   UNL     1       1.732   2.940  18.091  0.00  0.00    +0.000 A 
ATOM     29  C   UNL     1       2.688   3.965  18.150  0.00  0.00    +0.000 A 
ATOM     30  C   UNL     1       3.886   4.324  17.473  0.00  0.00    +0.000 A 
ATOM     31  C   UNL     1       4.925   3.661  16.794  0.00  0.00    +0.000 A 
ATOM     32  C   UNL     1       5.819   4.418  16.027  0.00  0.00    +0.000 A 
ATOM     33  C   UNL     1       5.589   5.776  15.818  0.00  0.00    +0.000 A 
ATOM     34  C   UNL     1       4.613   6.460  16.546  0.00  0.00    +0.000 A 
ATOM     35  C   UNL     1       3.888   5.716  17.486  0.00  0.00    +0.000 A 
ENDBRANCH  22  23
ENDBRANCH  19  22
ENDBRANCH   1  19
TORSDOF 8
ENDMDL
MODEL 4
REMARK VINA RESULT:      -8.4      0.688      1.252
REMARK  Name = 
REMARK  8 active torsions:
REMARK  status: ('A' for Active; 'I' for Inactive)
REMARK    1  A    between atoms: C_2  and  C_11
REMARK    2  A    between atoms: N_3  and  C_4
REMARK    3  A    between atoms: C_4  and  C_5
REMARK    4  A    between atoms: N_14  and  C_15
REMARK    5  A    between atoms: C_15  and  C_16
REMARK    6  A    between atoms: C_16  and  O_17
REMARK    7  A    between atoms: C_16  and  C_18
REMARK    8  A    between atoms: C_18  and  N_19
REMARK                            x       y       z     vdW  Elec       q    Type
REMARK                         _______ _______ _______ _____ _____    ______ ____
ROOT
ATOM      1  C   UNL     1       1.099   9.063  19.836  0.00  0.00    +0.000 C 
ENDROOT
BRANCH   1   5
ATOM      2  C   UNL     1      -1.066  12.697  20.593  0.00  0.00    +0.000 C 
ATOM      3  C   UNL     1      -1.375  11.846  19.355  0.00  0.00    +0.000 C 
ATOM      4  C   UNL     1      -0.785  10.457  19.501  0.00  0.00    +0.000 C 
ATOM      5  N   UNL     1       0.679  10.475  19.660  0.00  0.00    +0.000 NA
ATOM      6  C   UNL     1       1.084  11.329  20.787  0.00  0.00    +0.000 C 
ATOM      7  C   UNL     1       0.451  12.728  20.771  0.00  0.00    +0.000 C 
BRANCH   2   9
ATOM      8  O   UNL     1      -1.210  11.580  22.749  0.00  0.00    +0.000 OA
ATOM      9  C   UNL     1      -1.777  12.216  21.862  0.00  0.00    +0.000 C 
ATOM     10  N   UNL     1      -3.083  12.517  22.072  0.00  0.00    +0.000 N 
ATOM     11  H   UNL     1      -3.450  12.146  22.943  0.00  0.00    +0.000 HD
BRANCH  10  12
ATOM     12  C   UNL     1      -4.041  13.225  21.227  0.00  0.00    +0.000 C 
BRANCH  12  13
ATOM     13  C   UNL     1      -5.417  12.587  21.203  0.00  0.00    +0.000 A 
ATOM     14  C   UNL     1      -5.800  11.860  20.064  0.00  0.00    +0.000 A 
ATOM     15  C   UNL     1      -7.046  11.224  20.005  0.00  0.00    +0.000 A 
ATOM     16  C   UNL     1      -7.916  11.284  21.093  0.00  0.00    +0.000 A 
ATOM     17  C   UNL     1      -7.549  12.005  22.231  0.00  0.00    +0.000 A 
ATOM     18  C   UNL     1      -6.312  12.646  22.287  0.00  0.00    +0.000 A 
ENDBRANCH  12  13
ENDBRANCH  10  12
ENDBRANCH   2   9
ENDBRANCH   1   5
BRANCH   1  19
ATOM     19  C   UNL     1       1.632   8.229  18.654  0.00  0.00    +0.000 C 
BRANCH  19  20
ATOM     20  O   UNL     1       2.101   9.048  17.578  0.00  0.00    +0.000 OA
ATOM     21  H   UNL     1       1.401   9.111  16.908  0.00  0.00    +0.000 HD
ENDBRANCH  19  20
BRANCH  19  22
ATOM     22  C   UNL     1       2.793   7.402  19.242  0.00  0.00    +0.000 C 
BRANCH  22  23
ATOM     23  N   UNL     1       2.962   6.094  18.649  0.00  0.00    +0.000 N 
ATOM     24  C   UNL     1       3.753   5.844  17.552  0.00  0.00    +0.000 A 
ATOM     25  C   UNL     1       4.441   6.678  16.668  0.00  0.00    +0.000 A 
ATOM     26  C   UNL     1       5.575   6.128  16.071  0.00  0.00    +0.000 A 
ATOM     27  C   UNL     1       5.953   4.811  16.336  0.00  0.00    +0.000 A 
ATOM     28  C   UNL     1       5.076   3.935  16.989  0.00  0.00    +0.000 A 
ATOM     29  C   UNL     1       3.899   4.463  17.541  0.00  0.00    +0.000 A 
ATOM     30  C   UNL     1       2.705   3.969  18.137  0.00  0.00    +0.000 A 
ATOM     31  C   UNL     1       1.912   2.810  18.048  0.00  0.00    +0.000 A 
ATOM     32  C   UNL     1       0.924   2.596  19.016  0.00  0.00    +0.000 A 
ATOM     33  C   UNL     1       0.834   3.433  20.127  0.00  0.00    +0.000 A 
ATOM     34  C   UNL     1       1.558   4.625  20.186  0.00  0.00    +0.000 A 
ATOM     35  C   UNL     1       2.367   4.931  19.084  0.00  0.00    +0.000 A 
ENDBRANCH  22  23
ENDBRANCH  19  22
ENDBRANCH   1  19
TORSDOF 8
ENDMDL
MODEL 5
REMARK VINA RESULT:      -8.3      2.016      4.130
REMARK  Name = 
REMARK  8 active torsions:
REMARK  status: ('A' for Active; 'I' for Inactive)
REMARK    1  A    between atoms: C_2  and  C_11
REMARK    2  A    between atoms: N_3  and  C_4
REMARK    3  A    between atoms: C_4  and  C_5
REMARK    4  A    between atoms: N_14  and  C_15
REMARK    5  A    between atoms: C_15  and  C_16
REMARK    6  A    between atoms: C_16  and  O_17
REMARK    7  A    between atoms: C_16  and  C_18
REMARK    8  A    between atoms: C_18  and  N_19
REMARK                            x       y       z     vdW  Elec       q    Type
REMARK                         _______ _______ _______ _____ _____    ______ ____
ROOT
ATOM      1  C   UNL     1       1.323   9.000  19.839  0.00  0.00    +0.000 C 
ENDROOT
BRANCH   1   5
ATOM      2  C   UNL     1      -1.051  12.306  21.215  0.00  0.00    +0.000 C 
ATOM      3  C   UNL     1      -1.561  11.389  20.097  0.00  0.00    +0.000 C 
ATOM      4  C   UNL     1      -0.760  10.102  20.055  0.00  0.00    +0.000 C 
ATOM      5  N   UNL     1       0.674  10.332  19.806  0.00  0.00    +0.000 NA
ATOM      6  C   UNL     1       1.244  11.263  20.792  0.00  0.00    +0.000 C 
ATOM      7  C   UNL     1       0.437  12.557  20.972  0.00  0.00    +0.000 C 
BRANCH   2   9
ATOM      8  O   UNL     1      -0.487  11.096  23.249  0.00  0.00    +0.000 OA
ATOM      9  C   UNL     1      -1.312  11.761  22.624  0.00  0.00    +0.000 C 
ATOM     10  N   UNL     1      -2.479  12.032  23.258  0.00  0.00    +0.000 N 
ATOM     11  H   UNL     1      -2.543  11.618  24.184  0.00  0.00    +0.000 HD
BRANCH  10  12
ATOM     12  C   UNL     1      -3.660  12.759  22.802  0.00  0.00    +0.000 C 
BRANCH  12  13
ATOM     13  C   UNL     1      -3.911  14.049  23.561  0.00  0.00    +0.000 A 
ATOM     14  C   UNL     1      -2.899  14.540  24.401  0.00  0.00    +0.000 A 
ATOM     15  C   UNL     1      -3.067  15.744  25.097  0.00  0.00    +0.000 A 
ATOM     16  C   UNL     1      -4.239  16.485  24.944  0.00  0.00    +0.000 A 
ATOM     17  C   UNL     1      -5.254  16.006  24.113  0.00  0.00    +0.000 A 
ATOM     18  C   UNL     1      -5.090  14.803  23.426  0.00  0.00    +0.000 A 
ENDBRANCH  12  13
ENDBRANCH  10  12
ENDBRANCH   2   9
ENDBRANCH   1   5
BRANCH   1  19
ATOM     19  C   UNL     1       1.806   8.308  18.548  0.00  0.00    +0.000 C 
BRANCH  19  20
ATOM     20  O   UNL     1       2.050   9.241  17.490  0.00  0.00    +0.000 OA
ATOM     21  H   UNL     1       1.556   8.954  16.705  0.00  0.00    +0.000 HD
ENDBRANCH  19  20
BRANCH  19  22
ATOM     22  C   UNL     1       3.115   7.595  18.945  0.00  0.00    +0.000 C 
BRANCH  22  23
ATOM     23  N   UNL     1       3.231   6.236  18.463  0.00  0.00    +0.000 N 
ATOM     24  C   UNL     1       2.637   5.153  19.069  0.00  0.00    +0.000 A 
ATOM     25  C   UNL     1       1.949   4.999  20.275  0.00  0.00    +0.000 A 
ATOM     26  C   UNL     1       1.002   3.976  20.308  0.00  0.00    +0.000 A 
ATOM     27  C   UNL     1       0.802   3.153  19.198  0.00  0.00    +0.000 A 
ATOM     28  C   UNL     1       1.712   3.159  18.133  0.00  0.00    +0.000 A 
ATOM     29  C   UNL     1       2.710   4.144  18.117  0.00  0.00    +0.000 A 
ATOM     30  C   UNL     1       3.879   4.444  17.362  0.00  0.00    +0.000 A 
ATOM     31  C   UNL     1       4.846   3.728  16.634  0.00  0.00    +0.000 A 
ATOM     32  C   UNL     1       5.721   4.437  15.801  0.00  0.00    +0.000 A 
ATOM     33  C   UNL     1       5.534   5.800  15.583  0.00  0.00    +0.000 A 
ATOM     34  C   UNL     1       4.632   6.534  16.357  0.00  0.00    +0.000 A 
ATOM     35  C   UNL     1       3.937   5.834  17.351  0.00  0.00    +0.000 A 
ENDBRANCH  22  23
ENDBRANCH  19  22
ENDBRANCH   1  19
TORSDOF 8
ENDMDL
MODEL 6
REMARK VINA RESULT:      -8.3      2.153      9.600
REMARK  Name = 
REMARK  8 active torsions:
REMARK  status: ('A' for Active; 'I' for Inactive)
REMARK    1  A    between atoms: C_2  and  C_11
REMARK    2  A    between atoms: N_3  and  C_4
REMARK    3  A    between atoms: C_4  and  C_5
REMARK    4  A    between atoms: N_14  and  C_15
REMARK    5  A    between atoms: C_15  and  C_16
REMARK    6  A    between atoms: C_16  and  O_17
REMARK    7  A    between atoms: C_16  and  C_18
REMARK    8  A    between atoms: C_18  and  N_19
REMARK                            x       y       z     vdW  Elec       q    Type
REMARK                         _______ _______ _______ _____ _____    ______ ____
ROOT
ATOM      1  C   UNL     1       2.471   7.980  17.862  0.00  0.00    +0.000 C 
ENDROOT
BRANCH   1   5
ATOM      2  C   UNL     1       5.561   4.994  17.900  0.00  0.00    +0.000 C 
ATOM      3  C   UNL     1       4.770   5.317  19.173  0.00  0.00    +0.000 C 
ATOM      4  C   UNL     1       3.509   6.089  18.837  0.00  0.00    +0.000 C 
ATOM      5  N   UNL     1       3.788   7.369  18.164  0.00  0.00    +0.000 NA
ATOM      6  C   UNL     1       4.609   7.172  16.959  0.00  0.00    +0.000 C 
ATOM      7  C   UNL     1       5.861   6.313  17.189  0.00  0.00    +0.000 C 
BRANCH   2   9
ATOM      8  O   UNL     1       4.673   4.209  15.776  0.00  0.00    +0.000 OA
ATOM      9  C   UNL     1       4.854   3.998  16.974  0.00  0.00    +0.000 C 
ATOM     10  N   UNL     1       4.426   2.804  17.452  0.00  0.00    +0.000 N 
ATOM     11  H   UNL     1       3.970   2.226  16.751  0.00  0.00    +0.000 HD
BRANCH  10  12
ATOM     12  C   UNL     1       4.462   2.255  18.804  0.00  0.00    +0.000 C 
BRANCH  12  13
ATOM     13  C   UNL     1       3.205   2.536  19.608  0.00  0.00    +0.000 A 
ATOM     14  C   UNL     1       1.988   2.675  18.922  0.00  0.00    +0.000 A 
ATOM     15  C   UNL     1       0.794   2.900  19.620  0.00  0.00    +0.000 A 
ATOM     16  C   UNL     1       0.798   2.966  21.013  0.00  0.00    +0.000 A 
ATOM     17  C   UNL     1       2.002   2.831  21.707  0.00  0.00    +0.000 A 
ATOM     18  C   UNL     1       3.193   2.615  21.012  0.00  0.00    +0.000 A 
ENDBRANCH  12  13
ENDBRANCH  10  12
ENDBRANCH   2   9
ENDBRANCH   1   5
BRANCH   1  19
ATOM     19  C   UNL     1       2.123   9.410  18.319  0.00  0.00    +0.000 C 
BRANCH  19  20
ATOM     20  O   UNL     1       2.023  10.323  17.221  0.00  0.00    +0.000 OA
ATOM     21  H   UNL     1       1.126  10.268  16.854  0.00  0.00    +0.000 HD
ENDBRANCH  19  20
BRANCH  19  22
ATOM     22  C   UNL     1       0.761   9.280  19.032  0.00  0.00    +0.000 C 
BRANCH  22  23
ATOM     23  N   UNL     1      -0.065  10.465  18.973  0.00  0.00    +0.000 N 
ATOM     24  C   UNL     1      -1.184  10.583  18.180  0.00  0.00    +0.000 A 
ATOM     25  C   UNL     1      -1.734   9.769  17.187  0.00  0.00    +0.000 A 
ATOM     26  C   UNL     1      -3.114   9.865  17.018  0.00  0.00    +0.000 A 
ATOM     27  C   UNL     1      -3.867  10.754  17.787  0.00  0.00    +0.000 A 
ATOM     28  C   UNL     1      -3.239  11.745  18.551  0.00  0.00    +0.000 A 
ATOM     29  C   UNL     1      -1.842  11.700  18.680  0.00  0.00    +0.000 A 
ATOM     30  C   UNL     1      -0.808  12.524  19.204  0.00  0.00    +0.000 A 
ATOM     31  C   UNL     1      -0.586  13.900  19.398  0.00  0.00    +0.000 A 
ATOM     32  C   UNL     1       0.489  14.301  20.202  0.00  0.00    +0.000 A 
ATOM     33  C   UNL     1       1.223  13.356  20.916  0.00  0.00    +0.000 A 
ATOM     34  C   UNL     1       1.064  11.990  20.672  0.00  0.00    +0.000 A 
ATOM     35  C   UNL     1       0.141  11.626  19.684  0.00  0.00    +0.000 A 
ENDBRANCH  22  23
ENDBRANCH  19  22
ENDBRANCH   1  19
TORSDOF 8
ENDMDL
MODEL 7
REMARK VINA RESULT:      -8.3      1.364      3.304
REMARK  Name = 
REMARK  8 active torsions:
REMARK  status: ('A' for Active; 'I' for Inactive)
REMARK    1  A    between atoms: C_2  and  C_11
REMARK    2  A    between atoms: N_3  and  C_4
REMARK    3  A    between atoms: C_4  and  C_5
REMARK    4  A    between atoms: N_14  and  C_15
REMARK    5  A    between atoms: C_15  and  C_16
REMARK    6  A    between atoms: C_16  and  O_17
REMARK    7  A    between atoms: C_16  and  C_18
REMARK    8  A    between atoms: C_18  and  N_19
REMARK                            x       y       z     vdW  Elec       q    Type
REMARK                         _______ _______ _______ _____ _____    ______ ____
ROOT
ATOM      1  C   UNL     1       0.394   9.166  18.860  0.00  0.00    +0.000 C 
ENDROOT
BRANCH   1   5
ATOM      2  C   UNL     1      -0.819  12.480  21.313  0.00  0.00    +0.000 C 
ATOM      3  C   UNL     1      -1.544  12.174  19.997  0.00  0.00    +0.000 C 
ATOM      4  C   UNL     1      -1.214  10.774  19.518  0.00  0.00    +0.000 C 
ATOM      5  N   UNL     1       0.226  10.580  19.274  0.00  0.00    +0.000 NA
ATOM      6  C   UNL     1       1.020  10.919  20.465  0.00  0.00    +0.000 C 
ATOM      7  C   UNL     1       0.678  12.285  21.077  0.00  0.00    +0.000 C 
BRANCH   2   9
ATOM      8  O   UNL     1      -0.795  10.589  22.843  0.00  0.00    +0.000 OA
ATOM      9  C   UNL     1      -1.319  11.647  22.498  0.00  0.00    +0.000 C 
ATOM     10  N   UNL     1      -2.364  12.079  23.247  0.00  0.00    +0.000 N 
ATOM     11  H   UNL     1      -2.610  11.447  24.003  0.00  0.00    +0.000 HD
BRANCH  10  12
ATOM     12  C   UNL     1      -3.211  13.259  23.101  0.00  0.00    +0.000 C 
BRANCH  12  13
ATOM     13  C   UNL     1      -4.669  12.931  22.833  0.00  0.00    +0.000 A 
ATOM     14  C   UNL     1      -5.572  12.963  23.908  0.00  0.00    +0.000 A 
ATOM     15  C   UNL     1      -6.933  12.702  23.709  0.00  0.00    +0.000 A 
ATOM     16  C   UNL     1      -7.414  12.429  22.429  0.00  0.00    +0.000 A 
ATOM     17  C   UNL     1      -6.527  12.393  21.351  0.00  0.00    +0.000 A 
ATOM     18  C   UNL     1      -5.170  12.644  21.551  0.00  0.00    +0.000 A 
ENDBRANCH  12  13
ENDBRANCH  10  12
ENDBRANCH   2   9
ENDBRANCH   1   5
BRANCH   1  19
ATOM     19  C   UNL     1       1.583   8.720  17.985  0.00  0.00    +0.000 C 
BRANCH  19  20
ATOM     20  O   UNL     1       2.249   9.827  17.368  0.00  0.00    +0.000 OA
ATOM     21  H   UNL     1       2.537  10.441  18.062  0.00  0.00    +0.000 HD
ENDBRANCH  19  20
BRANCH  19  22
ATOM     22  C   UNL     1       2.538   7.992  18.952  0.00  0.00    +0.000 C 
BRANCH  22  23
ATOM     23  N   UNL     1       2.873   6.640  18.563  0.00  0.00    +0.000 N 
ATOM     24  C   UNL     1       2.422   5.518  19.220  0.00  0.00    +0.000 A 
ATOM     25  C   UNL     1       1.715   5.334  20.410  0.00  0.00    +0.000 A 
ATOM     26  C   UNL     1       0.929   4.184  20.478  0.00  0.00    +0.000 A 
ATOM     27  C   UNL     1       0.899   3.276  19.419  0.00  0.00    +0.000 A 
ATOM     28  C   UNL     1       1.842   3.355  18.386  0.00  0.00    +0.000 A 
ATOM     29  C   UNL     1       2.683   4.476  18.338  0.00  0.00    +0.000 A 
ATOM     30  C   UNL     1       3.825   4.903  17.604  0.00  0.00    +0.000 A 
ATOM     31  C   UNL     1       4.917   4.299  16.955  0.00  0.00    +0.000 A 
ATOM     32  C   UNL     1       5.712   5.080  16.107  0.00  0.00    +0.000 A 
ATOM     33  C   UNL     1       5.334   6.384  15.795  0.00  0.00    +0.000 A 
ATOM     34  C   UNL     1       4.302   7.019  16.489  0.00  0.00    +0.000 A 
ATOM     35  C   UNL     1       3.677   6.283  17.504  0.00  0.00    +0.000 A 
ENDBRANCH  22  23
ENDBRANCH  19  22
ENDBRANCH   1  19
TORSDOF 8
ENDMDL
MODEL 8
REMARK VINA RESULT:      -8.3      2.081      3.746
REMARK  Name = 
REMARK  8 active torsions:
REMARK  status: ('A' for Active; 'I' for Inactive)
REMARK    1  A    between atoms: C_2  and  C_11
REMARK    2  A    between atoms: N_3  and  C_4
REMARK    3  A    between atoms: C_4  and  C_5
REMARK    4  A    between atoms: N_14  and  C_15
REMARK    5  A    between atoms: C_15  and  C_16
REMARK    6  A    between atoms: C_16  and  O_17
REMARK    7  A    between atoms: C_16  and  C_18
REMARK    8  A    between atoms: C_18  and  N_19
REMARK                            x       y       z     vdW  Elec       q    Type
REMARK                         _______ _______ _______ _____ _____    ______ ____
ROOT
ATOM      1  C   UNL     1       1.518   9.308  17.850  0.00  0.00    +0.000 C 
ENDROOT
BRANCH   1   5
ATOM      2  C   UNL     1      -0.744  11.852  20.472  0.00  0.00    +0.000 C 
ATOM      3  C   UNL     1      -1.395  11.233  19.229  0.00  0.00    +0.000 C 
ATOM      4  C   UNL     1      -0.549  10.094  18.694  0.00  0.00    +0.000 C 
ATOM      5  N   UNL     1       0.805  10.526  18.305  0.00  0.00    +0.000 NA
ATOM      6  C   UNL     1       1.491  11.200  19.418  0.00  0.00    +0.000 C 
ATOM      7  C   UNL     1       0.662  12.307  20.085  0.00  0.00    +0.000 C 
BRANCH   2   9
ATOM      8  O   UNL     1      -0.297   9.764  21.637  0.00  0.00    +0.000 OA
ATOM      9  C   UNL     1      -0.724  10.916  21.686  0.00  0.00    +0.000 C 
ATOM     10  N   UNL     1      -1.157  11.352  22.895  0.00  0.00    +0.000 N 
ATOM     11  H   UNL     1      -1.100  10.647  23.624  0.00  0.00    +0.000 HD
BRANCH  10  12
ATOM     12  C   UNL     1      -1.737  12.632  23.289  0.00  0.00    +0.000 C 
BRANCH  12  13
ATOM     13  C   UNL     1      -3.251  12.669  23.193  0.00  0.00    +0.000 A 
ATOM     14  C   UNL     1      -4.001  12.551  24.375  0.00  0.00    +0.000 A 
ATOM     15  C   UNL     1      -5.400  12.613  24.345  0.00  0.00    +0.000 A 
ATOM     16  C   UNL     1      -6.067  12.818  23.137  0.00  0.00    +0.000 A 
ATOM     17  C   UNL     1      -5.334  12.936  21.955  0.00  0.00    +0.000 A 
ATOM     18  C   UNL     1      -3.941  12.865  21.983  0.00  0.00    +0.000 A 
ENDBRANCH  12  13
ENDBRANCH  10  12
ENDBRANCH   2   9
ENDBRANCH   1   5
BRANCH   1  19
ATOM     19  C   UNL     1       2.232   8.374  18.847  0.00  0.00    +0.000 C 
BRANCH  19  20
ATOM     20  O   UNL     1       1.509   8.234  20.075  0.00  0.00    +0.000 OA
ATOM     21  H   UNL     1       1.926   7.534  20.602  0.00  0.00    +0.000 HD
ENDBRANCH  19  20
BRANCH  19  22
ATOM     22  C   UNL     1       2.324   7.015  18.123  0.00  0.00    +0.000 C 
BRANCH  22  23
ATOM     23  N   UNL     1       3.380   6.149  18.600  0.00  0.00    +0.000 N 
ATOM     24  C   UNL     1       3.205   5.185  19.566  0.00  0.00    +0.000 A 
ATOM     25  C   UNL     1       2.136   4.866  20.407  0.00  0.00    +0.000 A 
ATOM     26  C   UNL     1       2.059   3.534  20.813  0.00  0.00    +0.000 A 
ATOM     27  C   UNL     1       3.025   2.609  20.413  0.00  0.00    +0.000 A 
ATOM     28  C   UNL     1       4.220   3.037  19.822  0.00  0.00    +0.000 A 
ATOM     29  C   UNL     1       4.339   4.388  19.464  0.00  0.00    +0.000 A 
ATOM     30  C   UNL     1       5.356   5.266  18.997  0.00  0.00    +0.000 A 
ATOM     31  C   UNL     1       6.755   5.375  19.110  0.00  0.00    +0.000 A 
ATOM     32  C   UNL     1       7.430   6.266  18.266  0.00  0.00    +0.000 A 
ATOM     33  C   UNL     1       6.748   6.911  17.236  0.00  0.00    +0.000 A 
ATOM     34  C   UNL     1       5.355   6.873  17.163  0.00  0.00    +0.000 A 
ATOM     35  C   UNL     1       4.687   6.162  18.169  0.00  0.00    +0.000 A 
ENDBRANCH  22  23
ENDBRANCH  19  22
ENDBRANCH   1  19
TORSDOF 8
ENDMDL
MODEL 9
REMARK VINA RESULT:      -8.3      1.988      3.687
REMARK  Name = 
REMARK  8 active torsions:
REMARK  status: ('A' for Active; 'I' for Inactive)
REMARK    1  A    between atoms: C_2  and  C_11
REMARK    2  A    between atoms: N_3  and  C_4
REMARK    3  A    between atoms: C_4  and  C_5
REMARK    4  A    between atoms: N_14  and  C_15
REMARK    5  A    between atoms: C_15  and  C_16
REMARK    6  A    between atoms: C_16  and  O_17
REMARK    7  A    between atoms: C_16  and  C_18
REMARK    8  A    between atoms: C_18  and  N_19
REMARK                            x       y       z     vdW  Elec       q    Type
REMARK                         _______ _______ _______ _____ _____    ______ ____
ROOT
ATOM      1  C   UNL     1       1.301   9.151  18.741  0.00  0.00    +0.000 C 
ENDROOT
BRANCH   1   5
ATOM      2  C   UNL     1      -0.948  12.331  20.556  0.00  0.00    +0.000 C 
ATOM      3  C   UNL     1       0.341  12.628  19.781  0.00  0.00    +0.000 C 
ATOM      4  C   UNL     1       0.734  11.442  18.922  0.00  0.00    +0.000 C 
ATOM      5  N   UNL     1       0.975  10.223  19.712  0.00  0.00    +0.000 NA
ATOM      6  C   UNL     1      -0.187   9.891  20.551  0.00  0.00    +0.000 C 
ATOM      7  C   UNL     1      -0.715  11.068  21.384  0.00  0.00    +0.000 C 
BRANCH   2   9
ATOM      8  O   UNL     1      -2.258  11.409  18.725  0.00  0.00    +0.000 OA
ATOM      9  C   UNL     1      -2.187  12.203  19.662  0.00  0.00    +0.000 C 
ATOM     10  N   UNL     1      -3.288  12.957  19.904  0.00  0.00    +0.000 N 
ATOM     11  H   UNL     1      -4.045  12.790  19.248  0.00  0.00    +0.000 HD
BRANCH  10  12
ATOM     12  C   UNL     1      -3.526  13.994  20.903  0.00  0.00    +0.000 C 
BRANCH  12  13
ATOM     13  C   UNL     1      -4.156  13.474  22.182  0.00  0.00    +0.000 A 
ATOM     14  C   UNL     1      -5.557  13.440  22.273  0.00  0.00    +0.000 A 
ATOM     15  C   UNL     1      -6.189  12.937  23.418  0.00  0.00    +0.000 A 
ATOM     16  C   UNL     1      -5.429  12.439  24.476  0.00  0.00    +0.000 A 
ATOM     17  C   UNL     1      -4.036  12.468  24.398  0.00  0.00    +0.000 A 
ATOM     18  C   UNL     1      -3.406  12.977  23.262  0.00  0.00    +0.000 A 
ENDBRANCH  12  13
ENDBRANCH  10  12
ENDBRANCH   2   9
ENDBRANCH   1   5
BRANCH   1  19
ATOM     19  C   UNL     1       2.393   8.104  19.034  0.00  0.00    +0.000 C 
BRANCH  19  20
ATOM     20  O   UNL     1       2.166   7.411  20.265  0.00  0.00    +0.000 OA
ATOM     21  H   UNL     1       2.922   7.567  20.853  0.00  0.00    +0.000 HD
ENDBRANCH  19  20
BRANCH  19  22
ATOM     22  C   UNL     1       2.330   7.121  17.847  0.00  0.00    +0.000 C 
BRANCH  22  23
ATOM     23  N   UNL     1       3.249   6.007  17.938  0.00  0.00    +0.000 N 
ATOM     24  C   UNL     1       2.881   4.737  18.321  0.00  0.00    +0.000 A 
ATOM     25  C   UNL     1       1.693   4.206  18.831  0.00  0.00    +0.000 A 
ATOM     26  C   UNL     1       1.464   2.858  18.555  0.00  0.00    +0.000 A 
ATOM     27  C   UNL     1       2.398   2.107  17.841  0.00  0.00    +0.000 A 
ATOM     28  C   UNL     1       3.688   2.603  17.613  0.00  0.00    +0.000 A 
ATOM     29  C   UNL     1       3.954   3.940  17.943  0.00  0.00    +0.000 A 
ATOM     30  C   UNL     1       5.086   4.798  18.021  0.00  0.00    +0.000 A 
ATOM     31  C   UNL     1       6.463   4.666  18.277  0.00  0.00    +0.000 A 
ATOM     32  C   UNL     1       7.305   5.751  18.005  0.00  0.00    +0.000 A 
ATOM     33  C   UNL     1       6.810   6.877  17.351  0.00  0.00    +0.000 A 
ATOM     34  C   UNL     1       5.438   7.054  17.164  0.00  0.00    +0.000 A 
ATOM     35  C   UNL     1       4.597   6.051  17.664  0.00  0.00    +0.000 A 
ENDBRANCH  22  23
ENDBRANCH  19  22
ENDBRANCH   1  19
TORSDOF 8
ENDMDL
