MODEL 1
REMARK VINA RESULT:      -7.9      0.000      0.000
REMARK  Name = 
REMARK  6 active torsions:
REMARK  status: ('A' for Active; 'I' for Inactive)
REMARK    1  A    between atoms: C_2  and  C_19
REMARK    2  A    between atoms: N_3  and  C_4
REMARK    3  A    between atoms: C_8  and  C_9
REMARK    4  A    between atoms: C_9  and  O_10
REMARK    5  A    between atoms: O_10  and  C_11
REMARK    6  A    between atoms: C_23  and  C_25
REMARK                            x       y       z     vdW  Elec       q    Type
REMARK                         _______ _______ _______ _____ _____    ______ ____
ROOT
ATOM      1  O   UNL     1       1.141  11.481  18.321  0.00  0.00    +0.000 OA
ATOM      2  C   UNL     1       0.979  10.373  18.834  0.00  0.00    +0.000 C 
ATOM      3  N   UNL     1       1.946   9.426  18.615  0.00  0.00    +0.000 N 
ATOM      4  H   UNL     1       2.633   9.757  17.946  0.00  0.00    +0.000 HD
ENDROOT
BRANCH   2   5
ATOM      5  C   UNL     1      -0.266  10.049  19.653  0.00  0.00    +0.000 C 
ATOM      6  C   UNL     1      -1.564  10.486  18.944  0.00  0.00    +0.000 C 
ATOM      7  C   UNL     1      -1.865  11.977  19.095  0.00  0.00    +0.000 C 
ATOM      8  N   UNL     1      -1.779  12.381  20.486  0.00  0.00    +0.000 N 
ATOM      9  C   UNL     1      -2.887  12.971  21.080  0.00  0.00    +0.000 C 
ATOM     10  O   UNL     1      -3.933  13.192  20.478  0.00  0.00    +0.000 OA
ATOM     11  C   UNL     1      -0.501  12.084  21.128  0.00  0.00    +0.000 C 
ATOM     12  C   UNL     1      -0.235  10.592  21.085  0.00  0.00    +0.000 C 
BRANCH   9  13
ATOM     13  C   UNL     1      -2.808  13.290  22.537  0.00  0.00    +0.000 C 
ATOM     14  C   UNL     1      -3.272  12.244  23.525  0.00  0.00    +0.000 C 
ATOM     15  C   UNL     1      -4.048  13.519  23.363  0.00  0.00    +0.000 C 
ENDBRANCH   9  13
ENDBRANCH   2   5
BRANCH   3  16
ATOM     16  C   UNL     1       2.107   8.098  19.071  0.00  0.00    +0.000 A 
ATOM     17  C   UNL     1       1.738   7.619  20.331  0.00  0.00    +0.000 A 
ATOM     18  C   UNL     1       1.731   6.266  20.639  0.00  0.00    +0.000 A 
ATOM     19  C   UNL     1       2.228   5.360  19.726  0.00  0.00    +0.000 A 
ATOM     20  C   UNL     1       2.755   5.817  18.513  0.00  0.00    +0.000 A 
ATOM     21  C   UNL     1       2.657   7.176  18.171  0.00  0.00    +0.000 A 
BRANCH  20  22
ATOM     22  C   UNL     1       3.389   4.825  17.585  0.00  0.00    +0.000 C 
BRANCH  22  23
ATOM     23  O   UNL     1       4.393   5.498  16.839  0.00  0.00    +0.000 OA
BRANCH  23  24
ATOM     24  C   UNL     1       5.562   5.758  17.502  0.00  0.00    +0.000 A 
ATOM     25  C   UNL     1       6.102   4.977  18.528  0.00  0.00    +0.000 A 
ATOM     26  C   UNL     1       7.309   5.352  19.129  0.00  0.00    +0.000 A 
ATOM     27  C   UNL     1       7.971   6.503  18.708  0.00  0.00    +0.000 A 
ATOM     28  C   UNL     1       7.420   7.265  17.687  0.00  0.00    +0.000 A 
ATOM     29  F   UNL     1       8.053   8.379  17.274  0.00  0.00    +0.000 F 
ATOM     30  C   UNL     1       6.225   6.904  17.080  0.00  0.00    +0.000 A 
ENDBRANCH  23  24
ENDBRANCH  22  23
ENDBRANCH  20  22
ENDBRANCH   3  16
TORSDOF 6
ENDMDL
MODEL 2
REMARK VINA RESULT:      -7.8      2.889      3.386
REMARK  Name = 
REMARK  6 active torsions:
REMARK  status: ('A' for Active; 'I' for Inactive)
REMARK    1  A    between atoms: C_2  and  C_19
REMARK    2  A    between atoms: N_3  and  C_4
REMARK    3  A    between atoms: C_8  and  C_9
REMARK    4  A    between atoms: C_9  and  O_10
REMARK    5  A    between atoms: O_10  and  C_11
REMARK    6  A    between atoms: C_23  and  C_25
REMARK                            x       y       z     vdW  Elec       q    Type
REMARK                         _______ _______ _______ _____ _____    ______ ____
ROOT
ATOM      1  O   UNL     1       2.367  10.816  17.659  0.00  0.00    +0.000 OA
ATOM      2  C   UNL     1       2.137   9.658  18.010  0.00  0.00    +0.000 C 
ATOM      3  N   UNL     1       3.019   8.687  17.608  0.00  0.00    +0.000 N 
ATOM      4  H   UNL     1       3.704   9.064  16.963  0.00  0.00    +0.000 HD
ENDROOT
BRANCH   2   5
ATOM      5  C   UNL     1       0.901   9.305  18.831  0.00  0.00    +0.000 C 
ATOM      6  C   UNL     1      -0.378   9.965  18.278  0.00  0.00    +0.000 C 
ATOM      7  C   UNL     1      -0.534  11.428  18.691  0.00  0.00    +0.000 C 
ATOM      8  N   UNL     1      -0.354  11.580  20.124  0.00  0.00    +0.000 N 
ATOM      9  C   UNL     1      -1.378  12.151  20.868  0.00  0.00    +0.000 C 
ATOM     10  O   UNL     1      -2.423  12.559  20.370  0.00  0.00    +0.000 OA
ATOM     11  C   UNL     1       0.916  11.071  20.636  0.00  0.00    +0.000 C 
ATOM     12  C   UNL     1       1.040   9.591  20.330  0.00  0.00    +0.000 C 
BRANCH   9  13
ATOM     13  C   UNL     1      -1.212  12.209  22.351  0.00  0.00    +0.000 C 
ATOM     14  C   UNL     1      -1.417  10.939  23.145  0.00  0.00    +0.000 C 
ATOM     15  C   UNL     1      -2.388  12.076  23.283  0.00  0.00    +0.000 C 
ENDBRANCH   9  13
ENDBRANCH   2   5
BRANCH   3  16
ATOM     16  C   UNL     1       3.091   7.298  17.855  0.00  0.00    +0.000 A 
ATOM     17  C   UNL     1       2.289   6.587  18.753  0.00  0.00    +0.000 A 
ATOM     18  C   UNL     1       2.270   5.200  18.795  0.00  0.00    +0.000 A 
ATOM     19  C   UNL     1       3.160   4.485  18.023  0.00  0.00    +0.000 A 
ATOM     20  C   UNL     1       4.089   5.166  17.227  0.00  0.00    +0.000 A 
ATOM     21  C   UNL     1       4.026   6.565  17.113  0.00  0.00    +0.000 A 
BRANCH  20  22
ATOM     22  C   UNL     1       5.119   4.371  16.481  0.00  0.00    +0.000 C 
BRANCH  22  23
ATOM     23  O   UNL     1       5.988   5.281  15.825  0.00  0.00    +0.000 OA
BRANCH  23  24
ATOM     24  C   UNL     1       6.397   4.922  14.569  0.00  0.00    +0.000 A 
ATOM     25  C   UNL     1       7.509   5.443  13.899  0.00  0.00    +0.000 A 
ATOM     26  C   UNL     1       7.822   4.994  12.612  0.00  0.00    +0.000 A 
ATOM     27  C   UNL     1       7.026   4.031  11.996  0.00  0.00    +0.000 A 
ATOM     28  C   UNL     1       5.928   3.525  12.676  0.00  0.00    +0.000 A 
ATOM     29  F   UNL     1       5.153   2.595  12.087  0.00  0.00    +0.000 F 
ATOM     30  C   UNL     1       5.606   3.959  13.954  0.00  0.00    +0.000 A 
ENDBRANCH  23  24
ENDBRANCH  22  23
ENDBRANCH  20  22
ENDBRANCH   3  16
TORSDOF 6
ENDMDL
MODEL 3
REMARK VINA RESULT:      -7.7      4.010      5.471
REMARK  Name = 
REMARK  6 active torsions:
REMARK  status: ('A' for Active; 'I' for Inactive)
REMARK    1  A    between atoms: C_2  and  C_19
REMARK    2  A    between atoms: N_3  and  C_4
REMARK    3  A    between atoms: C_8  and  C_9
REMARK    4  A    between atoms: C_9  and  O_10
REMARK    5  A    between atoms: O_10  and  C_11
REMARK    6  A    between atoms: C_23  and  C_25
REMARK                            x       y       z     vdW  Elec       q    Type
REMARK                         _______ _______ _______ _____ _____    ______ ____
ROOT
ATOM      1  O   UNL     1      -0.939  12.895  18.146  0.00  0.00    +0.000 OA
ATOM      2  C   UNL     1      -0.171  12.261  18.871  0.00  0.00    +0.000 C 
ATOM      3  N   UNL     1      -0.267  10.893  18.853  0.00  0.00    +0.000 N 
ATOM      4  H   UNL     1      -1.064  10.592  18.302  0.00  0.00    +0.000 HD
ENDROOT
BRANCH   2   5
ATOM      5  C   UNL     1       0.828  12.966  19.782  0.00  0.00    +0.000 C 
ATOM      6  C   UNL     1       0.435  14.431  20.060  0.00  0.00    +0.000 C 
ATOM      7  C   UNL     1       0.811  15.385  18.926  0.00  0.00    +0.000 C 
ATOM      8  N   UNL     1       2.198  15.201  18.538  0.00  0.00    +0.000 N 
ATOM      9  C   UNL     1       3.056  16.291  18.592  0.00  0.00    +0.000 C 
ATOM     10  O   UNL     1       2.695  17.414  18.928  0.00  0.00    +0.000 OA
ATOM     11  C   UNL     1       2.545  13.836  18.150  0.00  0.00    +0.000 C 
ATOM     12  C   UNL     1       2.281  12.888  19.303  0.00  0.00    +0.000 C 
BRANCH   9  13
ATOM     13  C   UNL     1       4.498  16.058  18.280  0.00  0.00    +0.000 C 
ATOM     14  C   UNL     1       5.405  15.592  19.397  0.00  0.00    +0.000 C 
ATOM     15  C   UNL     1       5.578  16.965  18.812  0.00  0.00    +0.000 C 
ENDBRANCH   9  13
ENDBRANCH   2   5
BRANCH   3  16
ATOM     16  C   UNL     1       0.462   9.873  19.505  0.00  0.00    +0.000 A 
ATOM     17  C   UNL     1       0.395   9.568  20.868  0.00  0.00    +0.000 A 
ATOM     18  C   UNL     1       0.975   8.427  21.404  0.00  0.00    +0.000 A 
ATOM     19  C   UNL     1       1.759   7.624  20.602  0.00  0.00    +0.000 A 
ATOM     20  C   UNL     1       1.980   7.982  19.267  0.00  0.00    +0.000 A 
ATOM     21  C   UNL     1       1.300   9.080  18.712  0.00  0.00    +0.000 A 
BRANCH  20  22
ATOM     22  C   UNL     1       2.923   7.155  18.446  0.00  0.00    +0.000 C 
BRANCH  22  23
ATOM     23  O   UNL     1       2.160   6.197  17.729  0.00  0.00    +0.000 OA
BRANCH  23  24
ATOM     24  C   UNL     1       2.505   4.886  17.921  0.00  0.00    +0.000 A 
ATOM     25  C   UNL     1       3.810   4.384  17.925  0.00  0.00    +0.000 A 
ATOM     26  C   UNL     1       4.032   3.018  18.131  0.00  0.00    +0.000 A 
ATOM     27  C   UNL     1       2.955   2.159  18.332  0.00  0.00    +0.000 A 
ATOM     28  C   UNL     1       1.667   2.675  18.326  0.00  0.00    +0.000 A 
ATOM     29  F   UNL     1       0.620   1.850  18.518  0.00  0.00    +0.000 F 
ATOM     30  C   UNL     1       1.432   4.027  18.124  0.00  0.00    +0.000 A 
ENDBRANCH  23  24
ENDBRANCH  22  23
ENDBRANCH  20  22
ENDBRANCH   3  16
TORSDOF 6
ENDMDL
MODEL 4
REMARK VINA RESULT:      -7.7      3.161      4.351
REMARK  Name = 
REMARK  6 active torsions:
REMARK  status: ('A' for Active; 'I' for Inactive)
REMARK    1  A    between atoms: C_2  and  C_19
REMARK    2  A    between atoms: N_3  and  C_4
REMARK    3  A    between atoms: C_8  and  C_9
REMARK    4  A    between atoms: C_9  and  O_10
REMARK    5  A    between atoms: O_10  and  C_11
REMARK    6  A    between atoms: C_23  and  C_25
REMARK                            x       y       z     vdW  Elec       q    Type
REMARK                         _______ _______ _______ _____ _____    ______ ____
ROOT
ATOM      1  O   UNL     1       0.111  13.724  22.384  0.00  0.00    +0.000 OA
ATOM      2  C   UNL     1      -0.115  12.695  21.745  0.00  0.00    +0.000 C 
ATOM      3  N   UNL     1       0.910  12.177  20.995  0.00  0.00    +0.000 N 
ATOM      4  H   UNL     1       1.709  12.802  20.991  0.00  0.00    +0.000 HD
ENDROOT
BRANCH   2   5
ATOM      5  C   UNL     1      -1.491  12.037  21.755  0.00  0.00    +0.000 C 
ATOM      6  C   UNL     1      -2.398  12.558  20.622  0.00  0.00    +0.000 C 
ATOM      7  C   UNL     1      -3.051  13.904  20.938  0.00  0.00    +0.000 C 
ATOM      8  N   UNL     1      -3.682  13.875  22.245  0.00  0.00    +0.000 N 
ATOM      9  C   UNL     1      -5.037  14.164  22.337  0.00  0.00    +0.000 C 
ATOM     10  O   UNL     1      -5.726  14.469  21.369  0.00  0.00    +0.000 OA
ATOM     11  C   UNL     1      -2.793  13.506  23.343  0.00  0.00    +0.000 C 
ATOM     12  C   UNL     1      -2.219  12.124  23.100  0.00  0.00    +0.000 C 
BRANCH   9  13
ATOM     13  C   UNL     1      -5.687  14.036  23.676  0.00  0.00    +0.000 C 
ATOM     14  C   UNL     1      -6.373  12.732  24.016  0.00  0.00    +0.000 C 
ATOM     15  C   UNL     1      -7.185  13.981  23.825  0.00  0.00    +0.000 C 
ENDBRANCH   9  13
ENDBRANCH   2   5
BRANCH   3  16
ATOM     16  C   UNL     1       1.019  11.019  20.193  0.00  0.00    +0.000 A 
ATOM     17  C   UNL     1       1.032  10.995  18.795  0.00  0.00    +0.000 A 
ATOM     18  C   UNL     1       1.350   9.852  18.074  0.00  0.00    +0.000 A 
ATOM     19  C   UNL     1       1.533   8.659  18.740  0.00  0.00    +0.000 A 
ATOM     20  C   UNL     1       1.372   8.609  20.129  0.00  0.00    +0.000 A 
ATOM     21  C   UNL     1       1.156   9.793  20.855  0.00  0.00    +0.000 A 
BRANCH  20  22
ATOM     22  C   UNL     1       1.467   7.281  20.818  0.00  0.00    +0.000 C 
BRANCH  22  23
ATOM     23  O   UNL     1       2.414   6.488  20.119  0.00  0.00    +0.000 OA
BRANCH  23  24
ATOM     24  C   UNL     1       1.987   5.250  19.722  0.00  0.00    +0.000 A 
ATOM     25  C   UNL     1       1.202   4.379  20.485  0.00  0.00    +0.000 A 
ATOM     26  C   UNL     1       0.831   3.135  19.965  0.00  0.00    +0.000 A 
ATOM     27  C   UNL     1       1.244   2.762  18.688  0.00  0.00    +0.000 A 
ATOM     28  C   UNL     1       2.021   3.638  17.944  0.00  0.00    +0.000 A 
ATOM     29  F   UNL     1       2.425   3.284  16.710  0.00  0.00    +0.000 F 
ATOM     30  C   UNL     1       2.395   4.876  18.447  0.00  0.00    +0.000 A 
ENDBRANCH  23  24
ENDBRANCH  22  23
ENDBRANCH  20  22
ENDBRANCH   3  16
TORSDOF 6
ENDMDL
MODEL 5
REMARK VINA RESULT:      -7.5      2.041      2.325
REMARK  Name = 
REMARK  6 active torsions:
REMARK  status: ('A' for Active; 'I' for Inactive)
REMARK    1  A    between atoms: C_2  and  C_19
REMARK    2  A    between atoms: N_3  and  C_4
REMARK    3  A    between atoms: C_8  and  C_9
REMARK    4  A    between atoms: C_9  and  O_10
REMARK    5  A    between atoms: O_10  and  C_11
REMARK    6  A    between atoms: C_23  and  C_25
REMARK                            x       y       z     vdW  Elec       q    Type
REMARK                         _______ _______ _______ _____ _____    ______ ____
ROOT
ATOM      1  O   UNL     1       1.927  10.298  17.524  0.00  0.00    +0.000 OA
ATOM      2  C   UNL     1       1.671   9.418  18.348  0.00  0.00    +0.000 C 
ATOM      3  N   UNL     1       2.459   8.297  18.343  0.00  0.00    +0.000 N 
ATOM      4  H   UNL     1       3.100   8.306  17.557  0.00  0.00    +0.000 HD
ENDROOT
BRANCH   2   5
ATOM      5  C   UNL     1       0.501   9.553  19.317  0.00  0.00    +0.000 C 
ATOM      6  C   UNL     1      -0.697  10.295  18.691  0.00  0.00    +0.000 C 
ATOM      7  C   UNL     1      -0.536  11.815  18.691  0.00  0.00    +0.000 C 
ATOM      8  N   UNL     1      -0.160  12.292  20.010  0.00  0.00    +0.000 N 
ATOM      9  C   UNL     1      -0.967  13.234  20.634  0.00  0.00    +0.000 C 
ATOM     10  O   UNL     1      -1.973  13.705  20.114  0.00  0.00    +0.000 OA
ATOM     11  C   UNL     1       1.051  11.683  20.555  0.00  0.00    +0.000 C 
ATOM     12  C   UNL     1       0.870  10.181  20.665  0.00  0.00    +0.000 C 
BRANCH   9  13
ATOM     13  C   UNL     1      -0.614  13.639  22.028  0.00  0.00    +0.000 C 
ATOM     14  C   UNL     1      -1.280  12.913  23.174  0.00  0.00    +0.000 C 
ATOM     15  C   UNL     1      -1.598  14.357  22.914  0.00  0.00    +0.000 C 
ENDBRANCH   9  13
ENDBRANCH   2   5
BRANCH   3  16
ATOM     16  C   UNL     1       2.482   7.139  19.153  0.00  0.00    +0.000 A 
ATOM     17  C   UNL     1       1.694   6.922  20.287  0.00  0.00    +0.000 A 
ATOM     18  C   UNL     1       1.615   5.686  20.912  0.00  0.00    +0.000 A 
ATOM     19  C   UNL     1       2.436   4.660  20.493  0.00  0.00    +0.000 A 
ATOM     20  C   UNL     1       3.354   4.885  19.462  0.00  0.00    +0.000 A 
ATOM     21  C   UNL     1       3.348   6.107  18.768  0.00  0.00    +0.000 A 
BRANCH  20  22
ATOM     22  C   UNL     1       4.312   3.790  19.098  0.00  0.00    +0.000 C 
BRANCH  22  23
ATOM     23  O   UNL     1       4.203   3.553  17.703  0.00  0.00    +0.000 OA
BRANCH  23  24
ATOM     24  C   UNL     1       5.238   4.010  16.933  0.00  0.00    +0.000 A 
ATOM     25  C   UNL     1       6.404   4.611  17.416  0.00  0.00    +0.000 A 
ATOM     26  C   UNL     1       7.391   5.038  16.522  0.00  0.00    +0.000 A 
ATOM     27  C   UNL     1       7.213   4.867  15.151  0.00  0.00    +0.000 A 
ATOM     28  C   UNL     1       6.050   4.268  14.689  0.00  0.00    +0.000 A 
ATOM     29  F   UNL     1       5.870   4.100  13.366  0.00  0.00    +0.000 F 
ATOM     30  C   UNL     1       5.063   3.838  15.565  0.00  0.00    +0.000 A 
ENDBRANCH  23  24
ENDBRANCH  22  23
ENDBRANCH  20  22
ENDBRANCH   3  16
TORSDOF 6
ENDMDL
MODEL 6
REMARK VINA RESULT:      -7.4      3.186      4.357
REMARK  Name = 
REMARK  6 active torsions:
REMARK  status: ('A' for Active; 'I' for Inactive)
REMARK    1  A    between atoms: C_2  and  C_19
REMARK    2  A    between atoms: N_3  and  C_4
REMARK    3  A    between atoms: C_8  and  C_9
REMARK    4  A    between atoms: C_9  and  O_10
REMARK    5  A    between atoms: O_10  and  C_11
REMARK    6  A    between atoms: C_23  and  C_25
REMARK                            x       y       z     vdW  Elec       q    Type
REMARK                         _______ _______ _______ _____ _____    ______ ____
ROOT
ATOM      1  O   UNL     1      -0.966  10.653  23.470  0.00  0.00    +0.000 OA
ATOM      2  C   UNL     1      -0.596  10.708  22.296  0.00  0.00    +0.000 C 
ATOM      3  N   UNL     1       0.033   9.606  21.778  0.00  0.00    +0.000 N 
ATOM      4  H   UNL     1       0.206   8.914  22.500  0.00  0.00    +0.000 HD
ENDROOT
BRANCH   2   5
ATOM      5  C   UNL     1      -0.797  11.965  21.456  0.00  0.00    +0.000 C 
ATOM      6  C   UNL     1      -0.213  13.222  22.132  0.00  0.00    +0.000 C 
ATOM      7  C   UNL     1      -1.122  13.810  23.209  0.00  0.00    +0.000 C 
ATOM      8  N   UNL     1      -2.475  13.975  22.707  0.00  0.00    +0.000 N 
ATOM      9  C   UNL     1      -3.049  15.239  22.741  0.00  0.00    +0.000 C 
ATOM     10  O   UNL     1      -2.479  16.223  23.200  0.00  0.00    +0.000 OA
ATOM     11  C   UNL     1      -3.082  12.755  22.182  0.00  0.00    +0.000 C 
ATOM     12  C   UNL     1      -2.249  12.215  21.036  0.00  0.00    +0.000 C 
BRANCH   9  13
ATOM     13  C   UNL     1      -4.403  15.404  22.132  0.00  0.00    +0.000 C 
ATOM     14  C   UNL     1      -4.490  15.869  20.696  0.00  0.00    +0.000 C 
ATOM     15  C   UNL     1      -4.960  16.765  21.806  0.00  0.00    +0.000 C 
ENDBRANCH   9  13
ENDBRANCH   2   5
BRANCH   3  16
ATOM     16  C   UNL     1       0.539   9.307  20.493  0.00  0.00    +0.000 A 
ATOM     17  C   UNL     1       0.234   9.998  19.316  0.00  0.00    +0.000 A 
ATOM     18  C   UNL     1       0.922   9.786  18.130  0.00  0.00    +0.000 A 
ATOM     19  C   UNL     1       1.852   8.771  18.057  0.00  0.00    +0.000 A 
ATOM     20  C   UNL     1       2.073   7.952  19.170  0.00  0.00    +0.000 A 
ATOM     21  C   UNL     1       1.448   8.246  20.395  0.00  0.00    +0.000 A 
BRANCH  20  22
ATOM     22  C   UNL     1       3.006   6.787  19.034  0.00  0.00    +0.000 C 
BRANCH  22  23
ATOM     23  O   UNL     1       2.659   6.079  17.854  0.00  0.00    +0.000 OA
BRANCH  23  24
ATOM     24  C   UNL     1       2.718   4.714  17.932  0.00  0.00    +0.000 A 
ATOM     25  C   UNL     1       3.863   3.938  17.722  0.00  0.00    +0.000 A 
ATOM     26  C   UNL     1       3.792   2.545  17.829  0.00  0.00    +0.000 A 
ATOM     27  C   UNL     1       2.583   1.930  18.143  0.00  0.00    +0.000 A 
ATOM     28  C   UNL     1       1.457   2.715  18.349  0.00  0.00    +0.000 A 
ATOM     29  F   UNL     1       0.284   2.128  18.650  0.00  0.00    +0.000 F 
ATOM     30  C   UNL     1       1.513   4.098  18.247  0.00  0.00    +0.000 A 
ENDBRANCH  23  24
ENDBRANCH  22  23
ENDBRANCH  20  22
ENDBRANCH   3  16
TORSDOF 6
ENDMDL
MODEL 7
REMARK VINA RESULT:      -7.3      3.740     10.399
REMARK  Name = 
REMARK  6 active torsions:
REMARK  status: ('A' for Active; 'I' for Inactive)
REMARK    1  A    between atoms: C_2  and  C_19
REMARK    2  A    between atoms: N_3  and  C_4
REMARK    3  A    between atoms: C_8  and  C_9
REMARK    4  A    between atoms: C_9  and  O_10
REMARK    5  A    between atoms: O_10  and  C_11
REMARK    6  A    between atoms: C_23  and  C_25
REMARK                            x       y       z     vdW  Elec       q    Type
REMARK                         _______ _______ _______ _____ _____    ______ ____
ROOT
ATOM      1  O   UNL     1       2.399   4.510  20.818  0.00  0.00    +0.000 OA
ATOM      2  C   UNL     1       2.129   5.584  20.278  0.00  0.00    +0.000 C 
ATOM      3  N   UNL     1       1.654   6.593  21.076  0.00  0.00    +0.000 N 
ATOM      4  H   UNL     1       1.484   6.260  22.020  0.00  0.00    +0.000 HD
ENDROOT
BRANCH   2   5
ATOM      5  C   UNL     1       2.284   5.779  18.774  0.00  0.00    +0.000 C 
ATOM      6  C   UNL     1       2.118   4.461  17.991  0.00  0.00    +0.000 C 
ATOM      7  C   UNL     1       3.373   3.590  17.997  0.00  0.00    +0.000 C 
ATOM      8  N   UNL     1       4.540   4.366  17.618  0.00  0.00    +0.000 N 
ATOM      9  C   UNL     1       5.293   3.951  16.528  0.00  0.00    +0.000 C 
ATOM     10  O   UNL     1       5.037   2.941  15.881  0.00  0.00    +0.000 OA
ATOM     11  C   UNL     1       4.776   5.550  18.441  0.00  0.00    +0.000 C 
ATOM     12  C   UNL     1       3.582   6.481  18.361  0.00  0.00    +0.000 C 
BRANCH   9  13
ATOM     13  C   UNL     1       6.432   4.817  16.099  0.00  0.00    +0.000 C 
ATOM     14  C   UNL     1       6.144   5.960  15.152  0.00  0.00    +0.000 C 
ATOM     15  C   UNL     1       6.957   4.787  14.687  0.00  0.00    +0.000 C 
ENDBRANCH   9  13
ENDBRANCH   2   5
BRANCH   3  16
ATOM     16  C   UNL     1       1.292   7.933  20.813  0.00  0.00    +0.000 A 
ATOM     17  C   UNL     1       1.512   8.615  19.611  0.00  0.00    +0.000 A 
ATOM     18  C   UNL     1       0.949   9.856  19.348  0.00  0.00    +0.000 A 
ATOM     19  C   UNL     1       0.256  10.511  20.343  0.00  0.00    +0.000 A 
ATOM     20  C   UNL     1       0.149   9.931  21.611  0.00  0.00    +0.000 A 
ATOM     21  C   UNL     1       0.631   8.629  21.832  0.00  0.00    +0.000 A 
BRANCH  20  22
ATOM     22  C   UNL     1      -0.513  10.711  22.707  0.00  0.00    +0.000 C 
BRANCH  22  23
ATOM     23  O   UNL     1      -0.929  11.958  22.172  0.00  0.00    +0.000 OA
BRANCH  23  24
ATOM     24  C   UNL     1      -1.737  12.717  22.974  0.00  0.00    +0.000 A 
ATOM     25  C   UNL     1      -1.526  14.061  23.300  0.00  0.00    +0.000 A 
ATOM     26  C   UNL     1      -2.428  14.727  24.135  0.00  0.00    +0.000 A 
ATOM     27  C   UNL     1      -3.535  14.054  24.645  0.00  0.00    +0.000 A 
ATOM     28  C   UNL     1      -3.731  12.721  24.311  0.00  0.00    +0.000 A 
ATOM     29  F   UNL     1      -4.798  12.064  24.801  0.00  0.00    +0.000 F 
ATOM     30  C   UNL     1      -2.845  12.048  23.482  0.00  0.00    +0.000 A 
ENDBRANCH  23  24
ENDBRANCH  22  23
ENDBRANCH  20  22
ENDBRANCH   3  16
TORSDOF 6
ENDMDL
MODEL 8
REMARK VINA RESULT:      -7.3      3.335      4.687
REMARK  Name = 
REMARK  6 active torsions:
REMARK  status: ('A' for Active; 'I' for Inactive)
REMARK    1  A    between atoms: C_2  and  C_19
REMARK    2  A    between atoms: N_3  and  C_4
REMARK    3  A    between atoms: C_8  and  C_9
REMARK    4  A    between atoms: C_9  and  O_10
REMARK    5  A    between atoms: O_10  and  C_11
REMARK    6  A    between atoms: C_23  and  C_25
REMARK                            x       y       z     vdW  Elec       q    Type
REMARK                         _______ _______ _______ _____ _____    ______ ____
ROOT
ATOM      1  O   UNL     1      -0.517  10.782  23.465  0.00  0.00    +0.000 OA
ATOM      2  C   UNL     1      -0.406  10.788  22.238  0.00  0.00    +0.000 C 
ATOM      3  N   UNL     1       0.341   9.791  21.665  0.00  0.00    +0.000 N 
ATOM      4  H   UNL     1       0.803   9.230  22.373  0.00  0.00    +0.000 HD
ENDROOT
BRANCH   2   5
ATOM      5  C   UNL     1      -1.044  11.880  21.386  0.00  0.00    +0.000 C 
ATOM      6  C   UNL     1      -0.099  13.079  21.165  0.00  0.00    +0.000 C 
ATOM      7  C   UNL     1      -0.056  14.043  22.350  0.00  0.00    +0.000 C 
ATOM      8  N   UNL     1      -1.398  14.408  22.766  0.00  0.00    +0.000 N 
ATOM      9  C   UNL     1      -1.748  15.752  22.784  0.00  0.00    +0.000 C 
ATOM     10  O   UNL     1      -0.970  16.653  22.490  0.00  0.00    +0.000 OA
ATOM     11  C   UNL     1      -2.260  13.277  23.101  0.00  0.00    +0.000 C 
ATOM     12  C   UNL     1      -2.404  12.363  21.899  0.00  0.00    +0.000 C 
BRANCH   9  13
ATOM     13  C   UNL     1      -3.162  16.098  23.122  0.00  0.00    +0.000 C 
ATOM     14  C   UNL     1      -3.889  17.082  22.235  0.00  0.00    +0.000 C 
ATOM     15  C   UNL     1      -3.537  17.460  23.645  0.00  0.00    +0.000 C 
ENDBRANCH   9  13
ENDBRANCH   2   5
BRANCH   3  16
ATOM     16  C   UNL     1       0.639   9.469  20.321  0.00  0.00    +0.000 A 
ATOM     17  C   UNL     1       0.091  10.089  19.194  0.00  0.00    +0.000 A 
ATOM     18  C   UNL     1       0.579   9.869  17.914  0.00  0.00    +0.000 A 
ATOM     19  C   UNL     1       1.549   8.911  17.713  0.00  0.00    +0.000 A 
ATOM     20  C   UNL     1       2.011   8.155  18.797  0.00  0.00    +0.000 A 
ATOM     21  C   UNL     1       1.587   8.462  20.101  0.00  0.00    +0.000 A 
BRANCH  20  22
ATOM     22  C   UNL     1       2.984   7.044  18.537  0.00  0.00    +0.000 C 
BRANCH  22  23
ATOM     23  O   UNL     1       3.001   6.197  19.676  0.00  0.00    +0.000 OA
BRANCH  23  24
ATOM     24  C   UNL     1       2.315   5.019  19.560  0.00  0.00    +0.000 A 
ATOM     25  C   UNL     1       1.903   4.436  18.357  0.00  0.00    +0.000 A 
ATOM     26  C   UNL     1       1.203   3.224  18.372  0.00  0.00    +0.000 A 
ATOM     27  C   UNL     1       0.914   2.600  19.583  0.00  0.00    +0.000 A 
ATOM     28  C   UNL     1       1.331   3.192  20.766  0.00  0.00    +0.000 A 
ATOM     29  F   UNL     1       1.054   2.596  21.941  0.00  0.00    +0.000 F 
ATOM     30  C   UNL     1       2.027   4.393  20.767  0.00  0.00    +0.000 A 
ENDBRANCH  23  24
ENDBRANCH  22  23
ENDBRANCH  20  22
ENDBRANCH   3  16
TORSDOF 6
ENDMDL
MODEL 9
REMARK VINA RESULT:      -7.3      1.502      1.840
REMARK  Name = 
REMARK  6 active torsions:
REMARK  status: ('A' for Active; 'I' for Inactive)
REMARK    1  A    between atoms: C_2  and  C_19
REMARK    2  A    between atoms: N_3  and  C_4
REMARK    3  A    between atoms: C_8  and  C_9
REMARK    4  A    between atoms: C_9  and  O_10
REMARK    5  A    between atoms: O_10  and  C_11
REMARK    6  A    between atoms: C_23  and  C_25
REMARK                            x       y       z     vdW  Elec       q    Type
REMARK                         _______ _______ _______ _____ _____    ______ ____
ROOT
ATOM      1  O   UNL     1       1.915  10.186  17.498  0.00  0.00    +0.000 OA
ATOM      2  C   UNL     1       1.755   9.355  18.394  0.00  0.00    +0.000 C 
ATOM      3  N   UNL     1       2.360   8.135  18.241  0.00  0.00    +0.000 N 
ATOM      4  H   UNL     1       2.783   8.051  17.322  0.00  0.00    +0.000 HD
ENDROOT
BRANCH   2   5
ATOM      5  C   UNL     1       0.889   9.656  19.612  0.00  0.00    +0.000 C 
ATOM      6  C   UNL     1      -0.612   9.442  19.331  0.00  0.00    +0.000 C 
ATOM      7  C   UNL     1      -1.264  10.611  18.594  0.00  0.00    +0.000 C 
ATOM      8  N   UNL     1      -0.951  11.870  19.245  0.00  0.00    +0.000 N 
ATOM      9  C   UNL     1      -1.996  12.675  19.679  0.00  0.00    +0.000 C 
ATOM     10  O   UNL     1      -3.177  12.387  19.515  0.00  0.00    +0.000 OA
ATOM     11  C   UNL     1       0.478  12.137  19.398  0.00  0.00    +0.000 C 
ATOM     12  C   UNL     1       1.123  11.041  20.223  0.00  0.00    +0.000 C 
BRANCH   9  13
ATOM     13  C   UNL     1      -1.650  13.918  20.432  0.00  0.00    +0.000 C 
ATOM     14  C   UNL     1      -1.696  13.876  21.942  0.00  0.00    +0.000 C 
ATOM     15  C   UNL     1      -2.695  14.701  21.184  0.00  0.00    +0.000 C 
ENDBRANCH   9  13
ENDBRANCH   2   5
BRANCH   3  16
ATOM     16  C   UNL     1       2.427   6.989  19.065  0.00  0.00    +0.000 A 
ATOM     17  C   UNL     1       1.830   6.854  20.323  0.00  0.00    +0.000 A 
ATOM     18  C   UNL     1       1.759   5.637  20.985  0.00  0.00    +0.000 A 
ATOM     19  C   UNL     1       2.408   4.540  20.460  0.00  0.00    +0.000 A 
ATOM     20  C   UNL     1       3.151   4.673  19.281  0.00  0.00    +0.000 A 
ATOM     21  C   UNL     1       3.126   5.883  18.567  0.00  0.00    +0.000 A 
BRANCH  20  22
ATOM     22  C   UNL     1       3.939   3.495  18.789  0.00  0.00    +0.000 C 
BRANCH  22  23
ATOM     23  O   UNL     1       5.301   3.702  19.131  0.00  0.00    +0.000 OA
BRANCH  23  24
ATOM     24  C   UNL     1       6.006   4.541  18.311  0.00  0.00    +0.000 A 
ATOM     25  C   UNL     1       5.995   4.506  16.913  0.00  0.00    +0.000 A 
ATOM     26  C   UNL     1       6.765   5.420  16.186  0.00  0.00    +0.000 A 
ATOM     27  C   UNL     1       7.544   6.363  16.852  0.00  0.00    +0.000 A 
ATOM     28  C   UNL     1       7.543   6.383  18.240  0.00  0.00    +0.000 A 
ATOM     29  F   UNL     1       8.294   7.290  18.892  0.00  0.00    +0.000 F 
ATOM     30  C   UNL     1       6.783   5.483  18.974  0.00  0.00    +0.000 A 
ENDBRANCH  23  24
ENDBRANCH  22  23
ENDBRANCH  20  22
ENDBRANCH   3  16
TORSDOF 6
ENDMDL
