MODEL 1
REMARK VINA RESULT:      -9.4      0.000      0.000
REMARK  Name = 
REMARK  4 active torsions:
REMARK  status: ('A' for Active; 'I' for Inactive)
REMARK    1  A    between atoms: N_7  and  C_8
REMARK    2  A    between atoms: C_12  and  C_13
REMARK    3  A    between atoms: C_13  and  N_14
REMARK    4  A    between atoms: N_14  and  C_15
REMARK                            x       y       z     vdW  Elec       q    Type
REMARK                         _______ _______ _______ _____ _____    ______ ____
ROOT
ATOM      1  C   UNL     1       1.807   5.723  20.223  0.00  0.00    +0.000 C 
ENDROOT
BRANCH   1   6
ATOM      2  C   UNL     1       4.746   5.079  17.840  0.00  0.00    +0.000 A 
ATOM      3  C   UNL     1       4.265   4.018  17.077  0.00  0.00    +0.000 A 
ATOM      4  C   UNL     1       2.990   3.506  17.324  0.00  0.00    +0.000 A 
ATOM      5  C   UNL     1       2.198   4.050  18.339  0.00  0.00    +0.000 A 
ATOM      6  C   UNL     1       2.673   5.108  19.130  0.00  0.00    +0.000 A 
ATOM      7  C   UNL     1       3.960   5.623  18.861  0.00  0.00    +0.000 A 
BRANCH   2  14
ATOM      8  O   UNL     1       6.941   4.955  19.881  0.00  0.00    +0.000 OA
ATOM      9  S   UNL     1       7.363   5.210  18.521  0.00  0.00    +0.000 S 
ATOM     10  O   UNL     1       8.222   4.311  17.784  0.00  0.00    +0.000 OA
ATOM     11  C   UNL     1       8.058   6.847  18.413  0.00  0.00    +0.000 C 
ATOM     12  C   UNL     1       7.283   7.604  17.332  0.00  0.00    +0.000 C 
ATOM     13  C   UNL     1       6.307   6.666  16.618  0.00  0.00    +0.000 C 
ATOM     14  N   UNL     1       6.041   5.578  17.551  0.00  0.00    +0.000 N 
ENDBRANCH   2  14
ENDBRANCH   1   6
BRANCH   1  15
ATOM     15  N   UNL     1       2.318   7.063  20.445  0.00  0.00    +0.000 N 
ATOM     16  H   UNL     1       3.308   7.087  20.217  0.00  0.00    +0.000 HD
BRANCH  15  17
ATOM     17  C   UNL     1       1.707   8.192  19.869  0.00  0.00    +0.000 A 
ATOM     18  N   UNL     1       1.832   8.457  18.562  0.00  0.00    +0.000 NA
ATOM     19  C   UNL     1       1.241   9.585  18.132  0.00  0.00    +0.000 A 
ATOM     20  N   UNL     1       0.553  10.470  18.876  0.00  0.00    +0.000 NA
ATOM     21  C   UNL     1       0.419  10.183  20.172  0.00  0.00    +0.000 A 
ATOM     22  C   UNL     1      -0.272  11.061  21.005  0.00  0.00    +0.000 A 
ATOM     23  C   UNL     1      -0.431  10.787  22.363  0.00  0.00    +0.000 A 
ATOM     24  F   UNL     1      -1.072  11.667  23.144  0.00  0.00    +0.000 F 
ATOM     25  C   UNL     1       0.080   9.621  22.905  0.00  0.00    +0.000 A 
ATOM     26  F   UNL     1      -0.071   9.347  24.208  0.00  0.00    +0.000 F 
ATOM     27  C   UNL     1       0.762   8.732  22.102  0.00  0.00    +0.000 A 
ATOM     28  C   UNL     1       0.965   9.019  20.731  0.00  0.00    +0.000 A 
ENDBRANCH  15  17
ENDBRANCH   1  15
TORSDOF 4
ENDMDL
MODEL 2
REMARK VINA RESULT:      -8.9      5.034      8.437
REMARK  Name = 
REMARK  4 active torsions:
REMARK  status: ('A' for Active; 'I' for Inactive)
REMARK    1  A    between atoms: N_7  and  C_8
REMARK    2  A    between atoms: C_12  and  C_13
REMARK    3  A    between atoms: C_13  and  N_14
REMARK    4  A    between atoms: N_14  and  C_15
REMARK                            x       y       z     vdW  Elec       q    Type
REMARK                         _______ _______ _______ _____ _____    ______ ____
ROOT
ATOM      1  C   UNL     1       2.824   5.734  19.714  0.00  0.00    +0.000 C 
ENDROOT
BRANCH   1   6
ATOM      2  C   UNL     1       1.296   9.229  20.143  0.00  0.00    +0.000 A 
ATOM      3  C   UNL     1       1.228   9.673  18.824  0.00  0.00    +0.000 A 
ATOM      4  C   UNL     1       1.671   8.847  17.790  0.00  0.00    +0.000 A 
ATOM      5  C   UNL     1       2.190   7.580  18.073  0.00  0.00    +0.000 A 
ATOM      6  C   UNL     1       2.283   7.123  19.397  0.00  0.00    +0.000 A 
ATOM      7  C   UNL     1       1.820   7.965  20.432  0.00  0.00    +0.000 A 
BRANCH   2  14
ATOM      8  O   UNL     1      -0.820   8.334  22.072  0.00  0.00    +0.000 OA
ATOM      9  S   UNL     1      -0.081   9.517  22.456  0.00  0.00    +0.000 S 
ATOM     10  O   UNL     1       0.743   9.578  23.643  0.00  0.00    +0.000 OA
ATOM     11  C   UNL     1      -1.177  10.921  22.475  0.00  0.00    +0.000 C 
ATOM     12  C   UNL     1      -0.582  11.981  21.545  0.00  0.00    +0.000 C 
ATOM     13  C   UNL     1       0.801  11.546  21.055  0.00  0.00    +0.000 C 
ATOM     14  N   UNL     1       0.827  10.093  21.164  0.00  0.00    +0.000 N 
ENDBRANCH   2  14
ENDBRANCH   1   6
BRANCH   1  15
ATOM     15  N   UNL     1       3.532   5.290  18.527  0.00  0.00    +0.000 N 
ATOM     16  H   UNL     1       3.200   5.815  17.722  0.00  0.00    +0.000 HD
BRANCH  15  17
ATOM     17  C   UNL     1       4.937   5.250  18.478  0.00  0.00    +0.000 A 
ATOM     18  N   UNL     1       5.676   5.461  19.575  0.00  0.00    +0.000 NA
ATOM     19  C   UNL     1       7.009   5.442  19.398  0.00  0.00    +0.000 A 
ATOM     20  N   UNL     1       7.667   5.244  18.243  0.00  0.00    +0.000 NA
ATOM     21  C   UNL     1       6.920   5.015  17.162  0.00  0.00    +0.000 A 
ATOM     22  C   UNL     1       7.534   4.812  15.927  0.00  0.00    +0.000 A 
ATOM     23  C   UNL     1       6.780   4.568  14.781  0.00  0.00    +0.000 A 
ATOM     24  F   UNL     1       7.399   4.410  13.604  0.00  0.00    +0.000 F 
ATOM     25  C   UNL     1       5.400   4.501  14.854  0.00  0.00    +0.000 A 
ATOM     26  F   UNL     1       4.666   4.262  13.758  0.00  0.00    +0.000 F 
ATOM     27  C   UNL     1       4.767   4.691  16.064  0.00  0.00    +0.000 A 
ATOM     28  C   UNL     1       5.519   4.980  17.226  0.00  0.00    +0.000 A 
ENDBRANCH  15  17
ENDBRANCH   1  15
TORSDOF 4
ENDMDL
MODEL 3
REMARK VINA RESULT:      -8.7      2.986      3.989
REMARK  Name = 
REMARK  4 active torsions:
REMARK  status: ('A' for Active; 'I' for Inactive)
REMARK    1  A    between atoms: N_7  and  C_8
REMARK    2  A    between atoms: C_12  and  C_13
REMARK    3  A    between atoms: C_13  and  N_14
REMARK    4  A    between atoms: N_14  and  C_15
REMARK                            x       y       z     vdW  Elec       q    Type
REMARK                         _______ _______ _______ _____ _____    ______ ____
ROOT
ATOM      1  C   UNL     1       2.391   8.956  17.700  0.00  0.00    +0.000 C 
ENDROOT
BRANCH   1   6
ATOM      2  C   UNL     1       4.400   5.685  17.732  0.00  0.00    +0.000 A 
ATOM      3  C   UNL     1       3.977   5.104  18.926  0.00  0.00    +0.000 A 
ATOM      4  C   UNL     1       3.040   5.761  19.724  0.00  0.00    +0.000 A 
ATOM      5  C   UNL     1       2.531   7.004  19.335  0.00  0.00    +0.000 A 
ATOM      6  C   UNL     1       2.959   7.613  18.145  0.00  0.00    +0.000 A 
ATOM      7  C   UNL     1       3.898   6.931  17.341  0.00  0.00    +0.000 A 
BRANCH   2  14
ATOM      8  O   UNL     1       6.968   6.978  16.873  0.00  0.00    +0.000 OA
ATOM      9  S   UNL     1       6.917   5.538  16.747  0.00  0.00    +0.000 S 
ATOM     10  O   UNL     1       7.799   4.655  17.478  0.00  0.00    +0.000 OA
ATOM     11  C   UNL     1       6.996   5.090  15.025  0.00  0.00    +0.000 C 
ATOM     12  C   UNL     1       5.766   4.232  14.718  0.00  0.00    +0.000 C 
ATOM     13  C   UNL     1       4.995   3.924  16.002  0.00  0.00    +0.000 C 
ATOM     14  N   UNL     1       5.345   4.981  16.943  0.00  0.00    +0.000 N 
ENDBRANCH   2  14
ENDBRANCH   1   6
BRANCH   1  15
ATOM     15  N   UNL     1       0.977   8.930  18.025  0.00  0.00    +0.000 N 
ATOM     16  H   UNL     1       0.758   8.060  18.503  0.00  0.00    +0.000 HD
BRANCH  15  17
ATOM     17  C   UNL     1       0.361   9.983  18.725  0.00  0.00    +0.000 A 
ATOM     18  N   UNL     1       0.966  10.573  19.765  0.00  0.00    +0.000 NA
ATOM     19  C   UNL     1       0.264  11.537  20.384  0.00  0.00    +0.000 A 
ATOM     20  N   UNL     1      -0.974  11.959  20.074  0.00  0.00    +0.000 NA
ATOM     21  C   UNL     1      -1.558  11.378  19.025  0.00  0.00    +0.000 A 
ATOM     22  C   UNL     1      -2.847  11.757  18.653  0.00  0.00    +0.000 A 
ATOM     23  C   UNL     1      -3.481  11.170  17.559  0.00  0.00    +0.000 A 
ATOM     24  F   UNL     1      -4.732  11.532  17.247  0.00  0.00    +0.000 F 
ATOM     25  C   UNL     1      -2.828  10.209  16.806  0.00  0.00    +0.000 A 
ATOM     26  F   UNL     1      -3.428   9.642  15.750  0.00  0.00    +0.000 F 
ATOM     27  C   UNL     1      -1.551   9.820  17.148  0.00  0.00    +0.000 A 
ATOM     28  C   UNL     1      -0.913  10.380  18.280  0.00  0.00    +0.000 A 
ENDBRANCH  15  17
ENDBRANCH   1  15
TORSDOF 4
ENDMDL
MODEL 4
REMARK VINA RESULT:      -8.7      3.427      4.904
REMARK  Name = 
REMARK  4 active torsions:
REMARK  status: ('A' for Active; 'I' for Inactive)
REMARK    1  A    between atoms: N_7  and  C_8
REMARK    2  A    between atoms: C_12  and  C_13
REMARK    3  A    between atoms: C_13  and  N_14
REMARK    4  A    between atoms: N_14  and  C_15
REMARK                            x       y       z     vdW  Elec       q    Type
REMARK                         _______ _______ _______ _____ _____    ______ ____
ROOT
ATOM      1  C   UNL     1       2.227   9.181  17.893  0.00  0.00    +0.000 C 
ENDROOT
BRANCH   1   6
ATOM      2  C   UNL     1       3.218   5.521  18.493  0.00  0.00    +0.000 A 
ATOM      3  C   UNL     1       4.383   5.415  17.736  0.00  0.00    +0.000 A 
ATOM      4  C   UNL     1       4.857   6.522  17.031  0.00  0.00    +0.000 A 
ATOM      5  C   UNL     1       4.163   7.735  17.076  0.00  0.00    +0.000 A 
ATOM      6  C   UNL     1       2.977   7.855  17.818  0.00  0.00    +0.000 A 
ATOM      7  C   UNL     1       2.516   6.730  18.535  0.00  0.00    +0.000 A 
BRANCH   2  14
ATOM      8  O   UNL     1       1.854   3.255  17.076  0.00  0.00    +0.000 OA
ATOM      9  S   UNL     1       2.337   2.962  18.408  0.00  0.00    +0.000 S 
ATOM     10  O   UNL     1       3.352   1.967  18.673  0.00  0.00    +0.000 OA
ATOM     11  C   UNL     1       0.954   2.637  19.483  0.00  0.00    +0.000 C 
ATOM     12  C   UNL     1       1.053   3.606  20.663  0.00  0.00    +0.000 C 
ATOM     13  C   UNL     1       2.363   4.392  20.601  0.00  0.00    +0.000 C 
ATOM     14  N   UNL     1       2.775   4.376  19.202  0.00  0.00    +0.000 N 
ENDBRANCH   2  14
ENDBRANCH   1   6
BRANCH   1  15
ATOM     15  N   UNL     1       1.108   8.967  18.791  0.00  0.00    +0.000 N 
ATOM     16  H   UNL     1       1.398   8.360  19.553  0.00  0.00    +0.000 HD
BRANCH  15  17
ATOM     17  C   UNL     1       0.383  10.042  19.338  0.00  0.00    +0.000 A 
ATOM     18  N   UNL     1       0.818  10.688  20.428  0.00  0.00    +0.000 NA
ATOM     19  C   UNL     1       0.021  11.669  20.886  0.00  0.00    +0.000 A 
ATOM     20  N   UNL     1      -1.158  12.057  20.371  0.00  0.00    +0.000 NA
ATOM     21  C   UNL     1      -1.570  11.420  19.274  0.00  0.00    +0.000 A 
ATOM     22  C   UNL     1      -2.789  11.762  18.692  0.00  0.00    +0.000 A 
ATOM     23  C   UNL     1      -3.244  11.115  17.544  0.00  0.00    +0.000 A 
ATOM     24  F   UNL     1      -4.435  11.443  17.028  0.00  0.00    +0.000 F 
ATOM     25  C   UNL     1      -2.477  10.130  16.946  0.00  0.00    +0.000 A 
ATOM     26  F   UNL     1      -2.903   9.506  15.840  0.00  0.00    +0.000 F 
ATOM     27  C   UNL     1      -1.263   9.777  17.498  0.00  0.00    +0.000 A 
ATOM     28  C   UNL     1      -0.810  10.398  18.685  0.00  0.00    +0.000 A 
ENDBRANCH  15  17
ENDBRANCH   1  15
TORSDOF 4
ENDMDL
MODEL 5
REMARK VINA RESULT:      -8.6      1.781      1.956
REMARK  Name = 
REMARK  4 active torsions:
REMARK  status: ('A' for Active; 'I' for Inactive)
REMARK    1  A    between atoms: N_7  and  C_8
REMARK    2  A    between atoms: C_12  and  C_13
REMARK    3  A    between atoms: C_13  and  N_14
REMARK    4  A    between atoms: N_14  and  C_15
REMARK                            x       y       z     vdW  Elec       q    Type
REMARK                         _______ _______ _______ _____ _____    ______ ____
ROOT
ATOM      1  C   UNL     1       1.432   6.062  20.849  0.00  0.00    +0.000 C 
ENDROOT
BRANCH   1   6
ATOM      2  C   UNL     1       4.500   4.656  19.019  0.00  0.00    +0.000 A 
ATOM      3  C   UNL     1       4.404   3.296  19.307  0.00  0.00    +0.000 A 
ATOM      4  C   UNL     1       3.348   2.825  20.089  0.00  0.00    +0.000 A 
ATOM      5  C   UNL     1       2.392   3.713  20.591  0.00  0.00    +0.000 A 
ATOM      6  C   UNL     1       2.483   5.089  20.326  0.00  0.00    +0.000 A 
ATOM      7  C   UNL     1       3.550   5.550  19.524  0.00  0.00    +0.000 A 
BRANCH   2  14
ATOM      8  O   UNL     1       4.479   4.237  16.048  0.00  0.00    +0.000 OA
ATOM      9  S   UNL     1       5.446   5.194  16.540  0.00  0.00    +0.000 S 
ATOM     10  O   UNL     1       5.420   6.594  16.177  0.00  0.00    +0.000 OA
ATOM     11  C   UNL     1       7.092   4.580  16.245  0.00  0.00    +0.000 C 
ATOM     12  C   UNL     1       7.819   4.550  17.592  0.00  0.00    +0.000 C 
ATOM     13  C   UNL     1       6.958   5.196  18.678  0.00  0.00    +0.000 C 
ATOM     14  N   UNL     1       5.580   5.094  18.212  0.00  0.00    +0.000 N 
ENDBRANCH   2  14
ENDBRANCH   1   6
BRANCH   1  15
ATOM     15  N   UNL     1       2.042   7.378  20.819  0.00  0.00    +0.000 N 
ATOM     16  H   UNL     1       3.039   7.283  20.645  0.00  0.00    +0.000 HD
BRANCH  15  17
ATOM     17  C   UNL     1       1.548   8.403  19.993  0.00  0.00    +0.000 A 
ATOM     18  N   UNL     1       1.889   8.477  18.700  0.00  0.00    +0.000 NA
ATOM     19  C   UNL     1       1.391   9.524  18.019  0.00  0.00    +0.000 A 
ATOM     20  N   UNL     1       0.601  10.499  18.503  0.00  0.00    +0.000 NA
ATOM     21  C   UNL     1       0.251  10.402  19.786  0.00  0.00    +0.000 A 
ATOM     22  C   UNL     1      -0.557  11.383  20.358  0.00  0.00    +0.000 A 
ATOM     23  C   UNL     1      -0.940  11.307  21.696  0.00  0.00    +0.000 A 
ATOM     24  F   UNL     1      -1.690  12.283  22.225  0.00  0.00    +0.000 F 
ATOM     25  C   UNL     1      -0.540  10.239  22.479  0.00  0.00    +0.000 A 
ATOM     26  F   UNL     1      -0.907  10.155  23.765  0.00  0.00    +0.000 F 
ATOM     27  C   UNL     1       0.255   9.251  21.937  0.00  0.00    +0.000 A 
ATOM     28  C   UNL     1       0.684   9.338  20.591  0.00  0.00    +0.000 A 
ENDBRANCH  15  17
ENDBRANCH   1  15
TORSDOF 4
ENDMDL
MODEL 6
REMARK VINA RESULT:      -8.5      4.165      7.753
REMARK  Name = 
REMARK  4 active torsions:
REMARK  status: ('A' for Active; 'I' for Inactive)
REMARK    1  A    between atoms: N_7  and  C_8
REMARK    2  A    between atoms: C_12  and  C_13
REMARK    3  A    between atoms: C_13  and  N_14
REMARK    4  A    between atoms: N_14  and  C_15
REMARK                            x       y       z     vdW  Elec       q    Type
REMARK                         _______ _______ _______ _____ _____    ______ ____
ROOT
ATOM      1  C   UNL     1       2.446   8.718  17.590  0.00  0.00    +0.000 C 
ENDROOT
BRANCH   1   6
ATOM      2  C   UNL     1      -0.047  10.351  20.009  0.00  0.00    +0.000 A 
ATOM      3  C   UNL     1      -1.167  10.511  19.196  0.00  0.00    +0.000 A 
ATOM      4  C   UNL     1      -1.126  10.090  17.866  0.00  0.00    +0.000 A 
ATOM      5  C   UNL     1       0.037   9.517  17.344  0.00  0.00    +0.000 A 
ATOM      6  C   UNL     1       1.182   9.365  18.143  0.00  0.00    +0.000 A 
ATOM      7  C   UNL     1       1.122   9.784  19.490  0.00  0.00    +0.000 A 
BRANCH   2  14
ATOM      8  O   UNL     1      -0.863   8.457  22.187  0.00  0.00    +0.000 OA
ATOM      9  S   UNL     1      -0.237   9.685  22.626  0.00  0.00    +0.000 S 
ATOM     10  O   UNL     1       1.016   9.714  23.346  0.00  0.00    +0.000 OA
ATOM     11  C   UNL     1      -1.418  10.660  23.537  0.00  0.00    +0.000 C 
ATOM     12  C   UNL     1      -1.499  12.030  22.861  0.00  0.00    +0.000 C 
ATOM     13  C   UNL     1      -0.444  12.147  21.760  0.00  0.00    +0.000 C 
ATOM     14  N   UNL     1      -0.132  10.781  21.357  0.00  0.00    +0.000 N 
ENDBRANCH   2  14
ENDBRANCH   1   6
BRANCH   1  15
ATOM     15  N   UNL     1       2.743   7.592  18.457  0.00  0.00    +0.000 N 
ATOM     16  H   UNL     1       1.884   7.270  18.895  0.00  0.00    +0.000 HD
BRANCH  15  17
ATOM     17  C   UNL     1       3.449   6.468  17.992  0.00  0.00    +0.000 A 
ATOM     18  N   UNL     1       4.492   6.598  17.162  0.00  0.00    +0.000 NA
ATOM     19  C   UNL     1       5.061   5.452  16.749  0.00  0.00    +0.000 A 
ATOM     20  N   UNL     1       4.687   4.203  17.074  0.00  0.00    +0.000 NA
ATOM     21  C   UNL     1       3.660   4.087  17.917  0.00  0.00    +0.000 A 
ATOM     22  C   UNL     1       3.210   2.821  18.289  0.00  0.00    +0.000 A 
ATOM     23  C   UNL     1       2.141   2.670  19.170  0.00  0.00    +0.000 A 
ATOM     24  F   UNL     1       1.711   1.440  19.482  0.00  0.00    +0.000 F 
ATOM     25  C   UNL     1       1.517   3.781  19.710  0.00  0.00    +0.000 A 
ATOM     26  F   UNL     1       0.491   3.645  20.562  0.00  0.00    +0.000 F 
ATOM     27  C   UNL     1       1.946   5.044  19.364  0.00  0.00    +0.000 A 
ATOM     28  C   UNL     1       3.004   5.211  18.440  0.00  0.00    +0.000 A 
ENDBRANCH  15  17
ENDBRANCH   1  15
TORSDOF 4
ENDMDL
MODEL 7
REMARK VINA RESULT:      -8.4      1.884      2.558
REMARK  Name = 
REMARK  4 active torsions:
REMARK  status: ('A' for Active; 'I' for Inactive)
REMARK    1  A    between atoms: N_7  and  C_8
REMARK    2  A    between atoms: C_12  and  C_13
REMARK    3  A    between atoms: C_13  and  N_14
REMARK    4  A    between atoms: N_14  and  C_15
REMARK                            x       y       z     vdW  Elec       q    Type
REMARK                         _______ _______ _______ _____ _____    ______ ____
ROOT
ATOM      1  C   UNL     1       1.732   6.316  20.363  0.00  0.00    +0.000 C 
ENDROOT
BRANCH   1   6
ATOM      2  C   UNL     1       4.606   5.414  17.984  0.00  0.00    +0.000 A 
ATOM      3  C   UNL     1       4.054   4.361  17.258  0.00  0.00    +0.000 A 
ATOM      4  C   UNL     1       2.751   3.939  17.528  0.00  0.00    +0.000 A 
ATOM      5  C   UNL     1       2.003   4.563  18.531  0.00  0.00    +0.000 A 
ATOM      6  C   UNL     1       2.549   5.613  19.285  0.00  0.00    +0.000 A 
ATOM      7  C   UNL     1       3.863   6.037  18.992  0.00  0.00    +0.000 A 
BRANCH   2  14
ATOM      8  O   UNL     1       6.839   5.066  19.957  0.00  0.00    +0.000 OA
ATOM      9  S   UNL     1       7.242   5.327  18.593  0.00  0.00    +0.000 S 
ATOM     10  O   UNL     1       8.011   4.386  17.808  0.00  0.00    +0.000 OA
ATOM     11  C   UNL     1       8.058   6.909  18.508  0.00  0.00    +0.000 C 
ATOM     12  C   UNL     1       7.314   7.753  17.470  0.00  0.00    +0.000 C 
ATOM     13  C   UNL     1       6.251   6.913  16.760  0.00  0.00    +0.000 C 
ATOM     14  N   UNL     1       5.928   5.821  17.671  0.00  0.00    +0.000 N 
ENDBRANCH   2  14
ENDBRANCH   1   6
BRANCH   1  15
ATOM     15  N   UNL     1       1.710   7.722  20.008  0.00  0.00    +0.000 N 
ATOM     16  H   UNL     1       1.279   7.832  19.094  0.00  0.00    +0.000 HD
BRANCH  15  17
ATOM     17  C   UNL     1       1.168   8.693  20.870  0.00  0.00    +0.000 A 
ATOM     18  N   UNL     1       1.487   8.723  22.170  0.00  0.00    +0.000 NA
ATOM     19  C   UNL     1       0.874   9.667  22.905  0.00  0.00    +0.000 A 
ATOM     20  N   UNL     1      -0.024  10.569  22.473  0.00  0.00    +0.000 NA
ATOM     21  C   UNL     1      -0.318  10.543  21.172  0.00  0.00    +0.000 A 
ATOM     22  C   UNL     1      -1.249  11.441  20.655  0.00  0.00    +0.000 A 
ATOM     23  C   UNL     1      -1.575  11.439  19.300  0.00  0.00    +0.000 A 
ATOM     24  F   UNL     1      -2.498  12.293  18.840  0.00  0.00    +0.000 F 
ATOM     25  C   UNL     1      -0.958  10.552  18.434  0.00  0.00    +0.000 A 
ATOM     26  F   UNL     1      -1.261  10.546  17.129  0.00  0.00    +0.000 F 
ATOM     27  C   UNL     1      -0.028   9.657  18.918  0.00  0.00    +0.000 A 
ATOM     28  C   UNL     1       0.280   9.622  20.298  0.00  0.00    +0.000 A 
ENDBRANCH  15  17
ENDBRANCH   1  15
TORSDOF 4
ENDMDL
MODEL 8
REMARK VINA RESULT:      -8.4      3.802      5.157
REMARK  Name = 
REMARK  4 active torsions:
REMARK  status: ('A' for Active; 'I' for Inactive)
REMARK    1  A    between atoms: N_7  and  C_8
REMARK    2  A    between atoms: C_12  and  C_13
REMARK    3  A    between atoms: C_13  and  N_14
REMARK    4  A    between atoms: N_14  and  C_15
REMARK                            x       y       z     vdW  Elec       q    Type
REMARK                         _______ _______ _______ _____ _____    ______ ____
ROOT
ATOM      1  C   UNL     1       2.046   9.392  18.134  0.00  0.00    +0.000 C 
ENDROOT
BRANCH   1   6
ATOM      2  C   UNL     1       2.575   5.754  19.241  0.00  0.00    +0.000 A 
ATOM      3  C   UNL     1       2.035   5.767  20.525  0.00  0.00    +0.000 A 
ATOM      4  C   UNL     1       1.494   6.947  21.039  0.00  0.00    +0.000 A 
ATOM      5  C   UNL     1       1.501   8.117  20.274  0.00  0.00    +0.000 A 
ATOM      6  C   UNL     1       2.057   8.127  18.985  0.00  0.00    +0.000 A 
ATOM      7  C   UNL     1       2.590   6.924  18.473  0.00  0.00    +0.000 A 
BRANCH   2  14
ATOM      8  O   UNL     1       0.824   3.345  18.877  0.00  0.00    +0.000 OA
ATOM      9  S   UNL     1       2.106   3.296  18.208  0.00  0.00    +0.000 S 
ATOM     10  O   UNL     1       2.238   3.212  16.771  0.00  0.00    +0.000 OA
ATOM     11  C   UNL     1       3.102   2.007  18.928  0.00  0.00    +0.000 C 
ATOM     12  C   UNL     1       4.413   2.646  19.394  0.00  0.00    +0.000 C 
ATOM     13  C   UNL     1       4.484   4.106  18.945  0.00  0.00    +0.000 C 
ATOM     14  N   UNL     1       3.104   4.534  18.750  0.00  0.00    +0.000 N 
ENDBRANCH   2  14
ENDBRANCH   1   6
BRANCH   1  15
ATOM     15  N   UNL     1       0.664   9.618  17.755  0.00  0.00    +0.000 N 
ATOM     16  H   UNL     1       0.177   8.726  17.710  0.00  0.00    +0.000 HD
BRANCH  15  17
ATOM     17  C   UNL     1      -0.153  10.529  18.449  0.00  0.00    +0.000 A 
ATOM     18  N   UNL     1       0.307  11.202  19.513  0.00  0.00    +0.000 NA
ATOM     19  C   UNL     1      -0.575  12.012  20.122  0.00  0.00    +0.000 A 
ATOM     20  N   UNL     1      -1.861  12.206  19.782  0.00  0.00    +0.000 NA
ATOM     21  C   UNL     1      -2.301  11.547  18.709  0.00  0.00    +0.000 A 
ATOM     22  C   UNL     1      -3.627  11.691  18.304  0.00  0.00    +0.000 A 
ATOM     23  C   UNL     1      -4.114  11.016  17.186  0.00  0.00    +0.000 A 
ATOM     24  F   UNL     1      -5.401  11.150  16.842  0.00  0.00    +0.000 F 
ATOM     25  C   UNL     1      -3.277  10.203  16.441  0.00  0.00    +0.000 A 
ATOM     26  F   UNL     1      -3.735   9.554  15.361  0.00  0.00    +0.000 F 
ATOM     27  C   UNL     1      -1.960  10.047  16.815  0.00  0.00    +0.000 A 
ATOM     28  C   UNL     1      -1.465  10.695  17.972  0.00  0.00    +0.000 A 
ENDBRANCH  15  17
ENDBRANCH   1  15
TORSDOF 4
ENDMDL
MODEL 9
REMARK VINA RESULT:      -8.3      2.835      4.354
REMARK  Name = 
REMARK  4 active torsions:
REMARK  status: ('A' for Active; 'I' for Inactive)
REMARK    1  A    between atoms: N_7  and  C_8
REMARK    2  A    between atoms: C_12  and  C_13
REMARK    3  A    between atoms: C_13  and  N_14
REMARK    4  A    between atoms: N_14  and  C_15
REMARK                            x       y       z     vdW  Elec       q    Type
REMARK                         _______ _______ _______ _____ _____    ______ ____
ROOT
ATOM      1  C   UNL     1       2.633   8.670  17.847  0.00  0.00    +0.000 C 
ENDROOT
BRANCH   1   6
ATOM      2  C   UNL     1       3.515   4.978  18.419  0.00  0.00    +0.000 A 
ATOM      3  C   UNL     1       4.737   4.873  17.757  0.00  0.00    +0.000 A 
ATOM      4  C   UNL     1       5.284   5.992  17.126  0.00  0.00    +0.000 A 
ATOM      5  C   UNL     1       4.606   7.215  17.149  0.00  0.00    +0.000 A 
ATOM      6  C   UNL     1       3.366   7.335  17.796  0.00  0.00    +0.000 A 
ATOM      7  C   UNL     1       2.831   6.198  18.440  0.00  0.00    +0.000 A 
BRANCH   2  14
ATOM      8  O   UNL     1       2.031   2.887  16.863  0.00  0.00    +0.000 OA
ATOM      9  S   UNL     1       2.484   2.487  18.177  0.00  0.00    +0.000 S 
ATOM     10  O   UNL     1       3.435   1.419  18.388  0.00  0.00    +0.000 OA
ATOM     11  C   UNL     1       1.075   2.183  19.224  0.00  0.00    +0.000 C 
ATOM     12  C   UNL     1       1.221   3.072  20.460  0.00  0.00    +0.000 C 
ATOM     13  C   UNL     1       2.577   3.781  20.452  0.00  0.00    +0.000 C 
ATOM     14  N   UNL     1       2.999   3.823  19.057  0.00  0.00    +0.000 N 
ENDBRANCH   2  14
ENDBRANCH   1   6
BRANCH   1  15
ATOM     15  N   UNL     1       1.388   8.426  18.552  0.00  0.00    +0.000 N 
ATOM     16  H   UNL     1       1.246   7.424  18.647  0.00  0.00    +0.000 HD
BRANCH  15  17
ATOM     17  C   UNL     1       1.111   9.028  19.793  0.00  0.00    +0.000 A 
ATOM     18  N   UNL     1       1.649   8.559  20.927  0.00  0.00    +0.000 NA
ATOM     19  C   UNL     1       1.279   9.187  22.057  0.00  0.00    +0.000 A 
ATOM     20  N   UNL     1       0.426  10.220  22.163  0.00  0.00    +0.000 NA
ATOM     21  C   UNL     1      -0.087  10.691  21.025  0.00  0.00    +0.000 A 
ATOM     22  C   UNL     1      -0.988  11.753  21.060  0.00  0.00    +0.000 A 
ATOM     23  C   UNL     1      -1.539  12.267  19.887  0.00  0.00    +0.000 A 
ATOM     24  F   UNL     1      -2.427  13.267  19.957  0.00  0.00    +0.000 F 
ATOM     25  C   UNL     1      -1.181  11.742  18.658  0.00  0.00    +0.000 A 
ATOM     26  F   UNL     1      -1.701  12.233  17.525  0.00  0.00    +0.000 F 
ATOM     27  C   UNL     1      -0.287  10.694  18.594  0.00  0.00    +0.000 A 
ATOM     28  C   UNL     1       0.247  10.138  19.780  0.00  0.00    +0.000 A 
ENDBRANCH  15  17
ENDBRANCH   1  15
TORSDOF 4
ENDMDL
