MODEL 1
REMARK VINA RESULT:      -9.1      0.000      0.000
REMARK  Name = 
REMARK  5 active torsions:
REMARK  status: ('A' for Active; 'I' for Inactive)
REMARK    1  A    between atoms: C_1  and  C_2
REMARK    2  A    between atoms: C_5  and  C_6
REMARK    3  A    between atoms: C_19  and  S_20
REMARK    4  A    between atoms: S_20  and  N_23
REMARK    5  A    between atoms: N_23  and  C_24
REMARK                            x       y       z     vdW  Elec       q    Type
REMARK                         _______ _______ _______ _____ _____    ______ ____
ROOT
ATOM      1  C   UNL     1      -1.452  12.004  23.106  0.00  0.00    +0.000 C 
ATOM      2  C   UNL     1      -0.632  11.050  22.280  0.00  0.00    +0.000 A 
ATOM      3  C   UNL     1       0.069  10.040  22.964  0.00  0.00    +0.000 A 
ATOM      4  C   UNL     1       0.810   9.077  22.275  0.00  0.00    +0.000 A 
ATOM      5  C   UNL     1       0.864   9.089  20.879  0.00  0.00    +0.000 A 
ATOM      6  C   UNL     1       0.212  10.117  20.187  0.00  0.00    +0.000 A 
ATOM      7  C   UNL     1      -0.538  11.091  20.875  0.00  0.00    +0.000 A 
ENDROOT
BRANCH   5   8
ATOM      8  C   UNL     1       1.584   7.963  20.202  0.00  0.00    +0.000 C 
ATOM      9  O   UNL     1       2.120   8.155  19.115  0.00  0.00    +0.000 OA
ATOM     10  N   UNL     1       1.584   6.758  20.866  0.00  0.00    +0.000 N 
ATOM     11  C   UNL     1       2.081   5.627  20.279  0.00  0.00    +0.000 A 
ATOM     12  N   UNL     1       1.552   4.444  20.453  0.00  0.00    +0.000 NA
ATOM     13  C   UNL     1       2.283   3.606  19.651  0.00  0.00    +0.000 A 
ATOM     14  C   UNL     1       2.062   2.261  19.335  0.00  0.00    +0.000 A 
ATOM     15  C   UNL     1       2.995   1.605  18.525  0.00  0.00    +0.000 A 
ATOM     16  C   UNL     1       4.133   2.272  18.062  0.00  0.00    +0.000 A 
ATOM     17  C   UNL     1       4.350   3.628  18.337  0.00  0.00    +0.000 A 
ATOM     18  C   UNL     1       3.374   4.272  19.100  0.00  0.00    +0.000 A 
ATOM     19  N   UNL     1       3.189   5.580  19.474  0.00  0.00    +0.000 N 
ATOM     20  H   UNL     1       0.944   6.557  21.618  0.00  0.00    +0.000 HD
ATOM     21  H   UNL     1       3.756   6.377  19.220  0.00  0.00    +0.000 HD
ENDBRANCH   5   8
BRANCH   7  22
ATOM     22  S   UNL     1      -1.442  12.259  19.855  0.00  0.00    +0.000 S 
ATOM     23  O   UNL     1      -1.893  13.332  20.715  0.00  0.00    +0.000 OA
ATOM     24  O   UNL     1      -0.664  12.544  18.668  0.00  0.00    +0.000 OA
BRANCH  22  25
ATOM     25  N   UNL     1      -2.780  11.392  19.337  0.00  0.00    +0.000 N 
ATOM     26  H   UNL     1      -3.557  11.352  19.992  0.00  0.00    +0.000 HD
BRANCH  25  27
ATOM     27  C   UNL     1      -3.000  11.078  17.977  0.00  0.00    +0.000 A 
ATOM     28  C   UNL     1      -2.260  10.069  17.352  0.00  0.00    +0.000 A 
ATOM     29  C   UNL     1      -2.566   9.702  16.038  0.00  0.00    +0.000 A 
ATOM     30  C   UNL     1      -3.588  10.359  15.359  0.00  0.00    +0.000 A 
ATOM     31  F   UNL     1      -3.897   9.990  14.110  0.00  0.00    +0.000 F 
ATOM     32  C   UNL     1      -4.312  11.378  15.966  0.00  0.00    +0.000 A 
ATOM     33  C   UNL     1      -4.015  11.742  17.286  0.00  0.00    +0.000 A 
ENDBRANCH  25  27
ENDBRANCH  22  25
ENDBRANCH   7  22
TORSDOF 4
ENDMDL
MODEL 2
REMARK VINA RESULT:      -9.1      4.426      9.630
REMARK  Name = 
REMARK  5 active torsions:
REMARK  status: ('A' for Active; 'I' for Inactive)
REMARK    1  A    between atoms: C_1  and  C_2
REMARK    2  A    between atoms: C_5  and  C_6
REMARK    3  A    between atoms: C_19  and  S_20
REMARK    4  A    between atoms: S_20  and  N_23
REMARK    5  A    between atoms: N_23  and  C_24
REMARK                            x       y       z     vdW  Elec       q    Type
REMARK                         _______ _______ _______ _____ _____    ______ ____
ROOT
ATOM      1  C   UNL     1       4.134   3.107  18.390  0.00  0.00    +0.000 C 
ATOM      2  C   UNL     1       3.714   4.544  18.238  0.00  0.00    +0.000 A 
ATOM      3  C   UNL     1       2.335   4.810  18.158  0.00  0.00    +0.000 A 
ATOM      4  C   UNL     1       1.853   6.118  18.072  0.00  0.00    +0.000 A 
ATOM      5  C   UNL     1       2.736   7.201  18.073  0.00  0.00    +0.000 A 
ATOM      6  C   UNL     1       4.112   6.950  18.103  0.00  0.00    +0.000 A 
ATOM      7  C   UNL     1       4.607   5.633  18.190  0.00  0.00    +0.000 A 
ENDROOT
BRANCH   5   8
ATOM      8  C   UNL     1       2.145   8.578  18.091  0.00  0.00    +0.000 C 
ATOM      9  O   UNL     1       2.332   9.329  17.139  0.00  0.00    +0.000 OA
ATOM     10  N   UNL     1       1.420   8.912  19.212  0.00  0.00    +0.000 N 
ATOM     11  C   UNL     1       0.960  10.186  19.404  0.00  0.00    +0.000 A 
ATOM     12  N   UNL     1       0.915  10.756  20.579  0.00  0.00    +0.000 NA
ATOM     13  C   UNL     1       0.472  12.031  20.339  0.00  0.00    +0.000 A 
ATOM     14  C   UNL     1       0.378  13.120  21.213  0.00  0.00    +0.000 A 
ATOM     15  C   UNL     1      -0.163  14.316  20.732  0.00  0.00    +0.000 A 
ATOM     16  C   UNL     1      -0.622  14.414  19.415  0.00  0.00    +0.000 A 
ATOM     17  C   UNL     1      -0.501  13.347  18.516  0.00  0.00    +0.000 A 
ATOM     18  C   UNL     1       0.095  12.184  19.008  0.00  0.00    +0.000 A 
ATOM     19  N   UNL     1       0.471  11.002  18.417  0.00  0.00    +0.000 N 
ATOM     20  H   UNL     1       1.483   8.388  20.071  0.00  0.00    +0.000 HD
ATOM     21  H   UNL     1       0.404  10.756  17.440  0.00  0.00    +0.000 HD
ENDBRANCH   5   8
BRANCH   7  22
ATOM     22  S   UNL     1       6.385   5.467  18.370  0.00  0.00    +0.000 S 
ATOM     23  O   UNL     1       6.991   6.675  17.853  0.00  0.00    +0.000 OA
ATOM     24  O   UNL     1       6.679   5.010  19.711  0.00  0.00    +0.000 OA
BRANCH  22  25
ATOM     25  N   UNL     1       6.777   4.195  17.349  0.00  0.00    +0.000 N 
ATOM     26  H   UNL     1       6.804   3.276  17.784  0.00  0.00    +0.000 HD
BRANCH  25  27
ATOM     27  C   UNL     1       6.689   4.298  15.943  0.00  0.00    +0.000 A 
ATOM     28  C   UNL     1       7.591   5.094  15.230  0.00  0.00    +0.000 A 
ATOM     29  C   UNL     1       7.554   5.098  13.833  0.00  0.00    +0.000 A 
ATOM     30  C   UNL     1       6.605   4.328  13.167  0.00  0.00    +0.000 A 
ATOM     31  F   UNL     1       6.586   4.312  11.828  0.00  0.00    +0.000 F 
ATOM     32  C   UNL     1       5.691   3.552  13.868  0.00  0.00    +0.000 A 
ATOM     33  C   UNL     1       5.731   3.537  15.269  0.00  0.00    +0.000 A 
ENDBRANCH  25  27
ENDBRANCH  22  25
ENDBRANCH   7  22
TORSDOF 4
ENDMDL
MODEL 3
REMARK VINA RESULT:      -9.0      4.579      9.627
REMARK  Name = 
REMARK  5 active torsions:
REMARK  status: ('A' for Active; 'I' for Inactive)
REMARK    1  A    between atoms: C_1  and  C_2
REMARK    2  A    between atoms: C_5  and  C_6
REMARK    3  A    between atoms: C_19  and  S_20
REMARK    4  A    between atoms: S_20  and  N_23
REMARK    5  A    between atoms: N_23  and  C_24
REMARK                            x       y       z     vdW  Elec       q    Type
REMARK                         _______ _______ _______ _____ _____    ______ ____
ROOT
ATOM      1  C   UNL     1       4.054   3.072  19.768  0.00  0.00    +0.000 C 
ATOM      2  C   UNL     1       3.507   4.404  19.331  0.00  0.00    +0.000 A 
ATOM      3  C   UNL     1       2.728   5.120  20.259  0.00  0.00    +0.000 A 
ATOM      4  C   UNL     1       2.228   6.389  19.959  0.00  0.00    +0.000 A 
ATOM      5  C   UNL     1       2.498   6.985  18.725  0.00  0.00    +0.000 A 
ATOM      6  C   UNL     1       3.229   6.265  17.773  0.00  0.00    +0.000 A 
ATOM      7  C   UNL     1       3.739   4.985  18.068  0.00  0.00    +0.000 A 
ENDROOT
BRANCH   5   8
ATOM      8  C   UNL     1       2.024   8.391  18.515  0.00  0.00    +0.000 C 
ATOM      9  O   UNL     1       2.268   8.959  17.454  0.00  0.00    +0.000 OA
ATOM     10  N   UNL     1       1.335   8.962  19.560  0.00  0.00    +0.000 N 
ATOM     11  C   UNL     1       0.984  10.283  19.539  0.00  0.00    +0.000 A 
ATOM     12  N   UNL     1       0.993  11.039  20.606  0.00  0.00    +0.000 NA
ATOM     13  C   UNL     1       0.656  12.290  20.158  0.00  0.00    +0.000 A 
ATOM     14  C   UNL     1       0.657  13.510  20.843  0.00  0.00    +0.000 A 
ATOM     15  C   UNL     1       0.214  14.653  20.170  0.00  0.00    +0.000 A 
ATOM     16  C   UNL     1      -0.242  14.574  18.850  0.00  0.00    +0.000 A 
ATOM     17  C   UNL     1      -0.215  13.368  18.138  0.00  0.00    +0.000 A 
ATOM     18  C   UNL     1       0.285  12.255  18.817  0.00  0.00    +0.000 A 
ATOM     19  N   UNL     1       0.559  10.966  18.429  0.00  0.00    +0.000 N 
ATOM     20  H   UNL     1       1.359   8.580  20.493  0.00  0.00    +0.000 HD
ATOM     21  H   UNL     1       0.466  10.570  17.504  0.00  0.00    +0.000 HD
ENDBRANCH   5   8
BRANCH   7  22
ATOM     22  S   UNL     1       4.782   4.241  16.811  0.00  0.00    +0.000 S 
ATOM     23  O   UNL     1       4.346   2.872  16.636  0.00  0.00    +0.000 OA
ATOM     24  O   UNL     1       4.864   5.139  15.679  0.00  0.00    +0.000 OA
BRANCH  22  25
ATOM     25  N   UNL     1       6.307   4.230  17.507  0.00  0.00    +0.000 N 
ATOM     26  H   UNL     1       6.811   3.348  17.447  0.00  0.00    +0.000 HD
BRANCH  25  27
ATOM     27  C   UNL     1       7.016   5.416  17.800  0.00  0.00    +0.000 A 
ATOM     28  C   UNL     1       6.953   6.514  16.935  0.00  0.00    +0.000 A 
ATOM     29  C   UNL     1       7.574   7.713  17.295  0.00  0.00    +0.000 A 
ATOM     30  C   UNL     1       8.268   7.796  18.499  0.00  0.00    +0.000 A 
ATOM     31  F   UNL     1       8.841   8.952  18.855  0.00  0.00    +0.000 F 
ATOM     32  C   UNL     1       8.354   6.703  19.353  0.00  0.00    +0.000 A 
ATOM     33  C   UNL     1       7.724   5.501  19.000  0.00  0.00    +0.000 A 
ENDBRANCH  25  27
ENDBRANCH  22  25
ENDBRANCH   7  22
TORSDOF 4
ENDMDL
MODEL 4
REMARK VINA RESULT:      -8.9      1.493      2.127
REMARK  Name = 
REMARK  5 active torsions:
REMARK  status: ('A' for Active; 'I' for Inactive)
REMARK    1  A    between atoms: C_1  and  C_2
REMARK    2  A    between atoms: C_5  and  C_6
REMARK    3  A    between atoms: C_19  and  S_20
REMARK    4  A    between atoms: S_20  and  N_23
REMARK    5  A    between atoms: N_23  and  C_24
REMARK                            x       y       z     vdW  Elec       q    Type
REMARK                         _______ _______ _______ _____ _____    ______ ____
ROOT
ATOM      1  C   UNL     1      -1.720  12.219  22.859  0.00  0.00    +0.000 C 
ATOM      2  C   UNL     1      -0.881  11.238  22.087  0.00  0.00    +0.000 A 
ATOM      3  C   UNL     1      -0.156  10.284  22.826  0.00  0.00    +0.000 A 
ATOM      4  C   UNL     1       0.603   9.299  22.190  0.00  0.00    +0.000 A 
ATOM      5  C   UNL     1       0.655   9.233  20.796  0.00  0.00    +0.000 A 
ATOM      6  C   UNL     1      -0.020  10.205  20.048  0.00  0.00    +0.000 A 
ATOM      7  C   UNL     1      -0.790  11.201  20.681  0.00  0.00    +0.000 A 
ENDROOT
BRANCH   5   8
ATOM      8  C   UNL     1       1.399   8.086  20.183  0.00  0.00    +0.000 C 
ATOM      9  O   UNL     1       1.555   7.053  20.828  0.00  0.00    +0.000 OA
ATOM     10  N   UNL     1       1.873   8.283  18.907  0.00  0.00    +0.000 N 
ATOM     11  C   UNL     1       2.688   7.364  18.305  0.00  0.00    +0.000 A 
ATOM     12  N   UNL     1       3.677   7.699  17.516  0.00  0.00    +0.000 NA
ATOM     13  C   UNL     1       4.283   6.515  17.185  0.00  0.00    +0.000 A 
ATOM     14  C   UNL     1       5.476   6.292  16.488  0.00  0.00    +0.000 A 
ATOM     15  C   UNL     1       5.859   4.972  16.228  0.00  0.00    +0.000 A 
ATOM     16  C   UNL     1       5.056   3.902  16.635  0.00  0.00    +0.000 A 
ATOM     17  C   UNL     1       3.880   4.106  17.366  0.00  0.00    +0.000 A 
ATOM     18  C   UNL     1       3.552   5.431  17.660  0.00  0.00    +0.000 A 
ATOM     19  N   UNL     1       2.564   6.004  18.423  0.00  0.00    +0.000 N 
ATOM     20  H   UNL     1       1.951   9.200  18.496  0.00  0.00    +0.000 HD
ATOM     21  H   UNL     1       1.860   5.531  18.973  0.00  0.00    +0.000 HD
ENDBRANCH   5   8
BRANCH   7  22
ATOM     22  S   UNL     1      -1.720  12.288  19.599  0.00  0.00    +0.000 S 
ATOM     23  O   UNL     1      -2.309  13.324  20.421  0.00  0.00    +0.000 OA
ATOM     24  O   UNL     1      -0.896  12.632  18.459  0.00  0.00    +0.000 OA
BRANCH  22  25
ATOM     25  N   UNL     1      -2.950  11.314  19.007  0.00  0.00    +0.000 N 
ATOM     26  H   UNL     1      -3.754  11.202  19.620  0.00  0.00    +0.000 HD
BRANCH  25  27
ATOM     27  C   UNL     1      -3.070  10.993  17.637  0.00  0.00    +0.000 A 
ATOM     28  C   UNL     1      -2.275   9.993  17.068  0.00  0.00    +0.000 A 
ATOM     29  C   UNL     1      -2.483   9.619  15.737  0.00  0.00    +0.000 A 
ATOM     30  C   UNL     1      -3.464  10.260  14.987  0.00  0.00    +0.000 A 
ATOM     31  F   UNL     1      -3.680   9.883  13.720  0.00  0.00    +0.000 F 
ATOM     32  C   UNL     1      -4.243  11.270  15.538  0.00  0.00    +0.000 A 
ATOM     33  C   UNL     1      -4.044  11.642  16.874  0.00  0.00    +0.000 A 
ENDBRANCH  25  27
ENDBRANCH  22  25
ENDBRANCH   7  22
TORSDOF 4
ENDMDL
MODEL 5
REMARK VINA RESULT:      -8.9      3.889      8.947
REMARK  Name = 
REMARK  5 active torsions:
REMARK  status: ('A' for Active; 'I' for Inactive)
REMARK    1  A    between atoms: C_1  and  C_2
REMARK    2  A    between atoms: C_5  and  C_6
REMARK    3  A    between atoms: C_19  and  S_20
REMARK    4  A    between atoms: S_20  and  N_23
REMARK    5  A    between atoms: N_23  and  C_24
REMARK                            x       y       z     vdW  Elec       q    Type
REMARK                         _______ _______ _______ _____ _____    ______ ____
ROOT
ATOM      1  C   UNL     1       6.587   4.604  15.494  0.00  0.00    +0.000 C 
ATOM      2  C   UNL     1       5.722   5.598  16.221  0.00  0.00    +0.000 A 
ATOM      3  C   UNL     1       4.880   6.415  15.443  0.00  0.00    +0.000 A 
ATOM      4  C   UNL     1       4.003   7.325  16.036  0.00  0.00    +0.000 A 
ATOM      5  C   UNL     1       3.934   7.441  17.427  0.00  0.00    +0.000 A 
ATOM      6  C   UNL     1       4.800   6.671  18.212  0.00  0.00    +0.000 A 
ATOM      7  C   UNL     1       5.687   5.750  17.622  0.00  0.00    +0.000 A 
ENDROOT
BRANCH   5   8
ATOM      8  C   UNL     1       2.894   8.356  17.996  0.00  0.00    +0.000 C 
ATOM      9  O   UNL     1       2.693   9.446  17.467  0.00  0.00    +0.000 OA
ATOM     10  N   UNL     1       2.224   7.898  19.107  0.00  0.00    +0.000 N 
ATOM     11  C   UNL     1       1.361   8.703  19.796  0.00  0.00    +0.000 A 
ATOM     12  N   UNL     1       1.243   8.670  21.098  0.00  0.00    +0.000 NA
ATOM     13  C   UNL     1       0.347   9.664  21.399  0.00  0.00    +0.000 A 
ATOM     14  C   UNL     1      -0.036  10.168  22.647  0.00  0.00    +0.000 A 
ATOM     15  C   UNL     1      -1.021  11.160  22.691  0.00  0.00    +0.000 A 
ATOM     16  C   UNL     1      -1.626  11.620  21.517  0.00  0.00    +0.000 A 
ATOM     17  C   UNL     1      -1.228  11.153  20.258  0.00  0.00    +0.000 A 
ATOM     18  C   UNL     1      -0.203  10.205  20.241  0.00  0.00    +0.000 A 
ATOM     19  N   UNL     1       0.506   9.611  19.225  0.00  0.00    +0.000 N 
ATOM     20  H   UNL     1       2.566   7.128  19.661  0.00  0.00    +0.000 HD
ATOM     21  H   UNL     1       0.425   9.788  18.234  0.00  0.00    +0.000 HD
ENDBRANCH   5   8
BRANCH   7  22
ATOM     22  S   UNL     1       6.631   4.725  18.753  0.00  0.00    +0.000 S 
ATOM     23  O   UNL     1       7.884   4.399  18.106  0.00  0.00    +0.000 OA
ATOM     24  O   UNL     1       6.617   5.339  20.064  0.00  0.00    +0.000 OA
BRANCH  22  25
ATOM     25  N   UNL     1       5.719   3.324  18.886  0.00  0.00    +0.000 N 
ATOM     26  H   UNL     1       6.191   2.533  19.317  0.00  0.00    +0.000 HD
BRANCH  25  27
ATOM     27  C   UNL     1       4.310   3.325  18.789  0.00  0.00    +0.000 A 
ATOM     28  C   UNL     1       3.678   2.948  17.599  0.00  0.00    +0.000 A 
ATOM     29  C   UNL     1       2.284   2.855  17.557  0.00  0.00    +0.000 A 
ATOM     30  C   UNL     1       1.539   3.158  18.693  0.00  0.00    +0.000 A 
ATOM     31  F   UNL     1       0.205   3.044  18.659  0.00  0.00    +0.000 F 
ATOM     32  C   UNL     1       2.157   3.555  19.871  0.00  0.00    +0.000 A 
ATOM     33  C   UNL     1       3.555   3.641  19.921  0.00  0.00    +0.000 A 
ENDBRANCH  25  27
ENDBRANCH  22  25
ENDBRANCH   7  22
TORSDOF 4
ENDMDL
MODEL 6
REMARK VINA RESULT:      -8.9      4.502      9.382
REMARK  Name = 
REMARK  5 active torsions:
REMARK  status: ('A' for Active; 'I' for Inactive)
REMARK    1  A    between atoms: C_1  and  C_2
REMARK    2  A    between atoms: C_5  and  C_6
REMARK    3  A    between atoms: C_19  and  S_20
REMARK    4  A    between atoms: S_20  and  N_23
REMARK    5  A    between atoms: N_23  and  C_24
REMARK                            x       y       z     vdW  Elec       q    Type
REMARK                         _______ _______ _______ _____ _____    ______ ____
ROOT
ATOM      1  C   UNL     1       3.214   2.716  20.614  0.00  0.00    +0.000 C 
ATOM      2  C   UNL     1       2.852   4.087  20.109  0.00  0.00    +0.000 A 
ATOM      3  C   UNL     1       2.115   4.920  20.972  0.00  0.00    +0.000 A 
ATOM      4  C   UNL     1       1.784   6.227  20.609  0.00  0.00    +0.000 A 
ATOM      5  C   UNL     1       2.187   6.744  19.375  0.00  0.00    +0.000 A 
ATOM      6  C   UNL     1       2.877   5.912  18.486  0.00  0.00    +0.000 A 
ATOM      7  C   UNL     1       3.216   4.592  18.845  0.00  0.00    +0.000 A 
ENDROOT
BRANCH   5   8
ATOM      8  C   UNL     1       1.893   8.187  19.099  0.00  0.00    +0.000 C 
ATOM      9  O   UNL     1       2.275   8.691  18.046  0.00  0.00    +0.000 OA
ATOM     10  N   UNL     1       1.204   8.865  20.078  0.00  0.00    +0.000 N 
ATOM     11  C   UNL     1       1.009  10.216  20.001  0.00  0.00    +0.000 A 
ATOM     12  N   UNL     1       1.030  10.998  21.048  0.00  0.00    +0.000 NA
ATOM     13  C   UNL     1       0.871  12.265  20.548  0.00  0.00    +0.000 A 
ATOM     14  C   UNL     1       0.965  13.498  21.204  0.00  0.00    +0.000 A 
ATOM     15  C   UNL     1       0.705  14.663  20.474  0.00  0.00    +0.000 A 
ATOM     16  C   UNL     1       0.336  14.594  19.127  0.00  0.00    +0.000 A 
ATOM     17  C   UNL     1       0.274  13.372  18.446  0.00  0.00    +0.000 A 
ATOM     18  C   UNL     1       0.594  12.231  19.185  0.00  0.00    +0.000 A 
ATOM     19  N   UNL     1       0.744  10.908  18.847  0.00  0.00    +0.000 N 
ATOM     20  H   UNL     1       1.118   8.512  21.018  0.00  0.00    +0.000 HD
ATOM     21  H   UNL     1       0.671  10.497  17.927  0.00  0.00    +0.000 HD
ENDBRANCH   5   8
BRANCH   7  22
ATOM     22  S   UNL     1       4.229   3.688  17.671  0.00  0.00    +0.000 S 
ATOM     23  O   UNL     1       3.886   2.287  17.785  0.00  0.00    +0.000 OA
ATOM     24  O   UNL     1       4.170   4.359  16.389  0.00  0.00    +0.000 OA
BRANCH  22  25
ATOM     25  N   UNL     1       5.792   3.903  18.237  0.00  0.00    +0.000 N 
ATOM     26  H   UNL     1       6.342   3.053  18.340  0.00  0.00    +0.000 HD
BRANCH  25  27
ATOM     27  C   UNL     1       6.447   5.154  18.200  0.00  0.00    +0.000 A 
ATOM     28  C   UNL     1       7.453   5.458  19.123  0.00  0.00    +0.000 A 
ATOM     29  C   UNL     1       8.160   6.658  19.004  0.00  0.00    +0.000 A 
ATOM     30  C   UNL     1       7.841   7.547  17.981  0.00  0.00    +0.000 A 
ATOM     31  F   UNL     1       8.535   8.684  17.852  0.00  0.00    +0.000 F 
ATOM     32  C   UNL     1       6.827   7.263  17.075  0.00  0.00    +0.000 A 
ATOM     33  C   UNL     1       6.122   6.056  17.185  0.00  0.00    +0.000 A 
ENDBRANCH  25  27
ENDBRANCH  22  25
ENDBRANCH   7  22
TORSDOF 4
ENDMDL
MODEL 7
REMARK VINA RESULT:      -8.8      4.696      9.300
REMARK  Name = 
REMARK  5 active torsions:
REMARK  status: ('A' for Active; 'I' for Inactive)
REMARK    1  A    between atoms: C_1  and  C_2
REMARK    2  A    between atoms: C_5  and  C_6
REMARK    3  A    between atoms: C_19  and  S_20
REMARK    4  A    between atoms: S_20  and  N_23
REMARK    5  A    between atoms: N_23  and  C_24
REMARK                            x       y       z     vdW  Elec       q    Type
REMARK                         _______ _______ _______ _____ _____    ______ ____
ROOT
ATOM      1  C   UNL     1       2.635   2.808  20.642  0.00  0.00    +0.000 C 
ATOM      2  C   UNL     1       2.412   4.204  20.128  0.00  0.00    +0.000 A 
ATOM      3  C   UNL     1       1.895   5.151  21.031  0.00  0.00    +0.000 A 
ATOM      4  C   UNL     1       1.709   6.484  20.657  0.00  0.00    +0.000 A 
ATOM      5  C   UNL     1       2.043   6.912  19.369  0.00  0.00    +0.000 A 
ATOM      6  C   UNL     1       2.512   5.972  18.445  0.00  0.00    +0.000 A 
ATOM      7  C   UNL     1       2.703   4.625  18.815  0.00  0.00    +0.000 A 
ENDROOT
BRANCH   5   8
ATOM      8  C   UNL     1       1.922   8.375  19.072  0.00  0.00    +0.000 C 
ATOM      9  O   UNL     1       2.488   8.841  18.088  0.00  0.00    +0.000 OA
ATOM     10  N   UNL     1       1.169   9.114  19.956  0.00  0.00    +0.000 N 
ATOM     11  C   UNL     1       1.110  10.477  19.868  0.00  0.00    +0.000 A 
ATOM     12  N   UNL     1       1.058  11.256  20.917  0.00  0.00    +0.000 NA
ATOM     13  C   UNL     1       1.085  12.531  20.415  0.00  0.00    +0.000 A 
ATOM     14  C   UNL     1       1.199  13.751  21.091  0.00  0.00    +0.000 A 
ATOM     15  C   UNL     1       1.148  14.934  20.346  0.00  0.00    +0.000 A 
ATOM     16  C   UNL     1       0.963  14.898  18.961  0.00  0.00    +0.000 A 
ATOM     17  C   UNL     1       0.884  13.686  18.264  0.00  0.00    +0.000 A 
ATOM     18  C   UNL     1       0.995  12.521  19.027  0.00  0.00    +0.000 A 
ATOM     19  N   UNL     1       1.069  11.190  18.697  0.00  0.00    +0.000 N 
ATOM     20  H   UNL     1       0.924   8.771  20.871  0.00  0.00    +0.000 HD
ATOM     21  H   UNL     1       1.086  10.786  17.771  0.00  0.00    +0.000 HD
ENDBRANCH   5   8
BRANCH   7  22
ATOM     22  S   UNL     1       3.449   3.563  17.576  0.00  0.00    +0.000 S 
ATOM     23  O   UNL     1       4.375   2.683  18.255  0.00  0.00    +0.000 OA
ATOM     24  O   UNL     1       2.405   3.024  16.732  0.00  0.00    +0.000 OA
BRANCH  22  25
ATOM     25  N   UNL     1       4.326   4.619  16.613  0.00  0.00    +0.000 N 
ATOM     26  H   UNL     1       3.848   4.955  15.781  0.00  0.00    +0.000 HD
BRANCH  25  27
ATOM     27  C   UNL     1       5.464   5.310  17.088  0.00  0.00    +0.000 A 
ATOM     28  C   UNL     1       5.619   6.678  16.842  0.00  0.00    +0.000 A 
ATOM     29  C   UNL     1       6.698   7.363  17.410  0.00  0.00    +0.000 A 
ATOM     30  C   UNL     1       7.617   6.672  18.194  0.00  0.00    +0.000 A 
ATOM     31  F   UNL     1       8.635   7.334  18.758  0.00  0.00    +0.000 F 
ATOM     32  C   UNL     1       7.482   5.309  18.424  0.00  0.00    +0.000 A 
ATOM     33  C   UNL     1       6.397   4.620  17.865  0.00  0.00    +0.000 A 
ENDBRANCH  25  27
ENDBRANCH  22  25
ENDBRANCH   7  22
TORSDOF 4
ENDMDL
MODEL 8
REMARK VINA RESULT:      -8.8      4.480      9.410
REMARK  Name = 
REMARK  5 active torsions:
REMARK  status: ('A' for Active; 'I' for Inactive)
REMARK    1  A    between atoms: C_1  and  C_2
REMARK    2  A    between atoms: C_5  and  C_6
REMARK    3  A    between atoms: C_19  and  S_20
REMARK    4  A    between atoms: S_20  and  N_23
REMARK    5  A    between atoms: N_23  and  C_24
REMARK                            x       y       z     vdW  Elec       q    Type
REMARK                         _______ _______ _______ _____ _____    ______ ____
ROOT
ATOM      1  C   UNL     1       3.156   2.905  20.632  0.00  0.00    +0.000 C 
ATOM      2  C   UNL     1       2.828   4.289  20.139  0.00  0.00    +0.000 A 
ATOM      3  C   UNL     1       1.874   5.025  20.867  0.00  0.00    +0.000 A 
ATOM      4  C   UNL     1       1.550   6.337  20.516  0.00  0.00    +0.000 A 
ATOM      5  C   UNL     1       2.176   6.956  19.431  0.00  0.00    +0.000 A 
ATOM      6  C   UNL     1       3.090   6.220  18.668  0.00  0.00    +0.000 A 
ATOM      7  C   UNL     1       3.423   4.896  19.016  0.00  0.00    +0.000 A 
ENDROOT
BRANCH   5   8
ATOM      8  C   UNL     1       1.862   8.400  19.180  0.00  0.00    +0.000 C 
ATOM      9  O   UNL     1       2.259   8.935  18.149  0.00  0.00    +0.000 OA
ATOM     10  N   UNL     1       1.135   9.041  20.156  0.00  0.00    +0.000 N 
ATOM     11  C   UNL     1       0.916  10.390  20.105  0.00  0.00    +0.000 A 
ATOM     12  N   UNL     1       0.895  11.148  21.170  0.00  0.00    +0.000 NA
ATOM     13  C   UNL     1       0.725  12.423  20.695  0.00  0.00    +0.000 A 
ATOM     14  C   UNL     1       0.778  13.642  21.380  0.00  0.00    +0.000 A 
ATOM     15  C   UNL     1       0.514  14.818  20.671  0.00  0.00    +0.000 A 
ATOM     16  C   UNL     1       0.180  14.774  19.314  0.00  0.00    +0.000 A 
ATOM     17  C   UNL     1       0.159  13.566  18.604  0.00  0.00    +0.000 A 
ATOM     18  C   UNL     1       0.483  12.415  19.325  0.00  0.00    +0.000 A 
ATOM     19  N   UNL     1       0.666  11.104  18.961  0.00  0.00    +0.000 N 
ATOM     20  H   UNL     1       1.033   8.665  21.086  0.00  0.00    +0.000 HD
ATOM     21  H   UNL     1       0.624  10.712  18.030  0.00  0.00    +0.000 HD
ENDBRANCH   5   8
BRANCH   7  22
ATOM     22  S   UNL     1       4.718   4.124  18.041  0.00  0.00    +0.000 S 
ATOM     23  O   UNL     1       5.905   4.056  18.867  0.00  0.00    +0.000 OA
ATOM     24  O   UNL     1       4.185   2.932  17.417  0.00  0.00    +0.000 OA
BRANCH  22  25
ATOM     25  N   UNL     1       4.994   5.217  16.800  0.00  0.00    +0.000 N 
ATOM     26  H   UNL     1       4.963   6.198  17.064  0.00  0.00    +0.000 HD
BRANCH  25  27
ATOM     27  C   UNL     1       5.609   4.843  15.584  0.00  0.00    +0.000 A 
ATOM     28  C   UNL     1       4.875   4.193  14.586  0.00  0.00    +0.000 A 
ATOM     29  C   UNL     1       5.474   3.926  13.351  0.00  0.00    +0.000 A 
ATOM     30  C   UNL     1       6.800   4.291  13.136  0.00  0.00    +0.000 A 
ATOM     31  F   UNL     1       7.365   4.059  11.945  0.00  0.00    +0.000 F 
ATOM     32  C   UNL     1       7.542   4.916  14.130  0.00  0.00    +0.000 A 
ATOM     33  C   UNL     1       6.943   5.194  15.366  0.00  0.00    +0.000 A 
ENDBRANCH  25  27
ENDBRANCH  22  25
ENDBRANCH   7  22
TORSDOF 4
ENDMDL
MODEL 9
REMARK VINA RESULT:      -8.7      2.073      2.809
REMARK  Name = 
REMARK  5 active torsions:
REMARK  status: ('A' for Active; 'I' for Inactive)
REMARK    1  A    between atoms: C_1  and  C_2
REMARK    2  A    between atoms: C_5  and  C_6
REMARK    3  A    between atoms: C_19  and  S_20
REMARK    4  A    between atoms: S_20  and  N_23
REMARK    5  A    between atoms: N_23  and  C_24
REMARK                            x       y       z     vdW  Elec       q    Type
REMARK                         _______ _______ _______ _____ _____    ______ ____
ROOT
ATOM      1  C   UNL     1      -1.485  11.632  23.009  0.00  0.00    +0.000 C 
ATOM      2  C   UNL     1      -0.572  10.680  22.284  0.00  0.00    +0.000 A 
ATOM      3  C   UNL     1      -0.642   9.320  22.639  0.00  0.00    +0.000 A 
ATOM      4  C   UNL     1       0.127   8.358  21.980  0.00  0.00    +0.000 A 
ATOM      5  C   UNL     1       0.983   8.727  20.939  0.00  0.00    +0.000 A 
ATOM      6  C   UNL     1       1.101  10.081  20.608  0.00  0.00    +0.000 A 
ATOM      7  C   UNL     1       0.327  11.058  21.267  0.00  0.00    +0.000 A 
ENDROOT
BRANCH   5   8
ATOM      8  C   UNL     1       1.693   7.631  20.205  0.00  0.00    +0.000 C 
ATOM      9  O   UNL     1       1.835   6.536  20.742  0.00  0.00    +0.000 OA
ATOM     10  N   UNL     1       2.155   7.944  18.947  0.00  0.00    +0.000 N 
ATOM     11  C   UNL     1       2.942   7.073  18.245  0.00  0.00    +0.000 A 
ATOM     12  N   UNL     1       3.927   7.464  17.479  0.00  0.00    +0.000 NA
ATOM     13  C   UNL     1       4.503   6.306  17.023  0.00  0.00    +0.000 A 
ATOM     14  C   UNL     1       5.682   6.129  16.289  0.00  0.00    +0.000 A 
ATOM     15  C   UNL     1       6.032   4.833  15.894  0.00  0.00    +0.000 A 
ATOM     16  C   UNL     1       5.211   3.745  16.204  0.00  0.00    +0.000 A 
ATOM     17  C   UNL     1       4.049   3.900  16.971  0.00  0.00    +0.000 A 
ATOM     18  C   UNL     1       3.754   5.196  17.399  0.00  0.00    +0.000 A 
ATOM     19  N   UNL     1       2.789   5.710  18.230  0.00  0.00    +0.000 N 
ATOM     20  H   UNL     1       2.248   8.895  18.629  0.00  0.00    +0.000 HD
ATOM     21  H   UNL     1       2.083   5.200  18.741  0.00  0.00    +0.000 HD
ENDBRANCH   5   8
BRANCH   7  22
ATOM     22  S   UNL     1       0.468  12.734  20.641  0.00  0.00    +0.000 S 
ATOM     23  O   UNL     1      -0.377  13.578  21.458  0.00  0.00    +0.000 OA
ATOM     24  O   UNL     1       1.869  13.049  20.459  0.00  0.00    +0.000 OA
BRANCH  22  25
ATOM     25  N   UNL     1      -0.193  12.647  19.102  0.00  0.00    +0.000 N 
ATOM     26  H   UNL     1       0.457  12.802  18.336  0.00  0.00    +0.000 HD
BRANCH  25  27
ATOM     27  C   UNL     1      -1.436  12.025  18.845  0.00  0.00    +0.000 A 
ATOM     28  C   UNL     1      -2.613  12.528  19.409  0.00  0.00    +0.000 A 
ATOM     29  C   UNL     1      -3.843  11.963  19.059  0.00  0.00    +0.000 A 
ATOM     30  C   UNL     1      -3.881  10.893  18.169  0.00  0.00    +0.000 A 
ATOM     31  F   UNL     1      -5.061  10.370  17.814  0.00  0.00    +0.000 F 
ATOM     32  C   UNL     1      -2.714  10.373  17.623  0.00  0.00    +0.000 A 
ATOM     33  C   UNL     1      -1.480  10.943  17.964  0.00  0.00    +0.000 A 
ENDBRANCH  25  27
ENDBRANCH  22  25
ENDBRANCH   7  22
TORSDOF 4
ENDMDL
