MODEL 1
REMARK VINA RESULT:      -9.0      0.000      0.000
REMARK  Name = 
REMARK  5 active torsions:
REMARK  status: ('A' for Active; 'I' for Inactive)
REMARK    1  A    between atoms: C_2  and  C_3
REMARK    2  A    between atoms: C_3  and  C_4
REMARK    3  A    between atoms: C_4  and  N_5
REMARK    4  A    between atoms: C_4  and  C_15
REMARK    5  A    between atoms: C_6  and  C_8
REMARK                            x       y       z     vdW  Elec       q    Type
REMARK                         _______ _______ _______ _____ _____    ______ ____
ROOT
ATOM      1  C   UNL     1       5.910   6.362  17.432  0.00  0.00    +0.000 C 
ENDROOT
BRANCH   1   2
ATOM      2  C   UNL     1       4.910   5.448  18.136  0.00  0.00    +0.000 A 
ATOM      3  C   UNL     1       3.526   5.610  17.936  0.00  0.00    +0.000 A 
ATOM      4  C   UNL     1       2.608   4.769  18.569  0.00  0.00    +0.000 A 
ATOM      5  C   UNL     1       3.054   3.752  19.408  0.00  0.00    +0.000 A 
ATOM      6  C   UNL     1       4.417   3.578  19.623  0.00  0.00    +0.000 A 
ATOM      7  C   UNL     1       5.337   4.422  18.996  0.00  0.00    +0.000 A 
ENDBRANCH   1   2
BRANCH   1   8
ATOM      8  N   UNL     1       6.039   5.972  16.021  0.00  0.00    +0.000 N 
ATOM      9  C   UNL     1       6.874   5.012  15.542  0.00  0.00    +0.000 C 
ATOM     10  O   UNL     1       7.710   4.445  16.227  0.00  0.00    +0.000 OA
ATOM     11  H   UNL     1       5.353   6.379  15.392  0.00  0.00    +0.000 HD
BRANCH   9  12
ATOM     12  C   UNL     1       6.736   4.595  14.123  0.00  0.00    +0.000 A 
ATOM     13  C   UNL     1       5.656   3.732  13.840  0.00  0.00    +0.000 A 
ATOM     14  C   UNL     1       5.449   3.227  12.561  0.00  0.00    +0.000 A 
ATOM     15  C   UNL     1       6.314   3.575  11.528  0.00  0.00    +0.000 A 
ATOM     16  C   UNL     1       7.392   4.433  11.789  0.00  0.00    +0.000 A 
ATOM     17  C   UNL     1       7.598   4.947  13.072  0.00  0.00    +0.000 A 
ATOM     18 CL   UNL     1       8.978   5.973  13.282  0.00  0.00    +0.000 Cl
ENDBRANCH   9  12
ENDBRANCH   1   8
BRANCH   1  19
ATOM     19  C   UNL     1       7.224   6.463  18.217  0.00  0.00    +0.000 C 
BRANCH  19  21
ATOM     20  O   UNL     1       7.997   8.199  16.767  0.00  0.00    +0.000 OA
ATOM     21  C   UNL     1       7.964   7.744  17.911  0.00  0.00    +0.000 C 
ATOM     22  N   UNL     1       8.506   8.372  19.016  0.00  0.00    +0.000 N 
ATOM     23  C   UNL     1       9.003   9.650  18.914  0.00  0.00    +0.000 A 
ATOM     24  N   UNL     1       9.958  10.173  19.647  0.00  0.00    +0.000 NA
ATOM     25  C   UNL     1      10.110  11.461  19.179  0.00  0.00    +0.000 A 
ATOM     26  C   UNL     1      11.051  12.445  19.518  0.00  0.00    +0.000 A 
ATOM     27  C   UNL     1      10.933  13.720  18.943  0.00  0.00    +0.000 A 
ATOM     28  C   UNL     1       9.891  14.012  18.059  0.00  0.00    +0.000 A 
ATOM     29  C   UNL     1       8.971  13.032  17.672  0.00  0.00    +0.000 A 
ATOM     30  C   UNL     1       9.138  11.765  18.233  0.00  0.00    +0.000 A 
ATOM     31  N   UNL     1       8.496  10.573  18.034  0.00  0.00    +0.000 N 
ATOM     32  H   UNL     1       8.817   7.817  19.807  0.00  0.00    +0.000 HD
ATOM     33  H   UNL     1       7.768  10.380  17.361  0.00  0.00    +0.000 HD
ENDBRANCH  19  21
ENDBRANCH   1  19
TORSDOF 5
ENDMDL
MODEL 2
REMARK VINA RESULT:      -8.9      5.493      6.999
REMARK  Name = 
REMARK  5 active torsions:
REMARK  status: ('A' for Active; 'I' for Inactive)
REMARK    1  A    between atoms: C_2  and  C_3
REMARK    2  A    between atoms: C_3  and  C_4
REMARK    3  A    between atoms: C_4  and  N_5
REMARK    4  A    between atoms: C_4  and  C_15
REMARK    5  A    between atoms: C_6  and  C_8
REMARK                            x       y       z     vdW  Elec       q    Type
REMARK                         _______ _______ _______ _____ _____    ______ ____
ROOT
ATOM      1  C   UNL     1       2.186   6.050  18.813  0.00  0.00    +0.000 C 
ENDROOT
BRANCH   1   2
ATOM      2  C   UNL     1       1.742   4.649  19.227  0.00  0.00    +0.000 A 
ATOM      3  C   UNL     1       1.425   3.681  18.255  0.00  0.00    +0.000 A 
ATOM      4  C   UNL     1       1.029   2.395  18.628  0.00  0.00    +0.000 A 
ATOM      5  C   UNL     1       0.945   2.052  19.974  0.00  0.00    +0.000 A 
ATOM      6  C   UNL     1       1.250   2.995  20.951  0.00  0.00    +0.000 A 
ATOM      7  C   UNL     1       1.640   4.284  20.580  0.00  0.00    +0.000 A 
ENDBRANCH   1   2
BRANCH   1   8
ATOM      8  N   UNL     1       3.259   5.961  17.813  0.00  0.00    +0.000 N 
ATOM      9  C   UNL     1       4.500   5.452  18.031  0.00  0.00    +0.000 C 
ATOM     10  O   UNL     1       4.907   5.120  19.133  0.00  0.00    +0.000 OA
ATOM     11  H   UNL     1       2.987   6.191  16.861  0.00  0.00    +0.000 HD
BRANCH   9  12
ATOM     12  C   UNL     1       5.398   5.245  16.865  0.00  0.00    +0.000 A 
ATOM     13  C   UNL     1       4.920   4.362  15.873  0.00  0.00    +0.000 A 
ATOM     14  C   UNL     1       5.686   4.043  14.759  0.00  0.00    +0.000 A 
ATOM     15  C   UNL     1       6.952   4.600  14.603  0.00  0.00    +0.000 A 
ATOM     16  C   UNL     1       7.444   5.480  15.577  0.00  0.00    +0.000 A 
ATOM     17  C   UNL     1       6.672   5.809  16.695  0.00  0.00    +0.000 A 
ATOM     18 CL   UNL     1       7.394   6.882  17.845  0.00  0.00    +0.000 Cl
ENDBRANCH   9  12
ENDBRANCH   1   8
BRANCH   1  19
ATOM     19  C   UNL     1       2.489   6.925  20.037  0.00  0.00    +0.000 C 
BRANCH  19  21
ATOM     20  O   UNL     1       1.711   8.842  18.839  0.00  0.00    +0.000 OA
ATOM     21  C   UNL     1       1.838   8.284  19.930  0.00  0.00    +0.000 C 
ATOM     22  N   UNL     1       1.344   8.779  21.121  0.00  0.00    +0.000 N 
ATOM     23  C   UNL     1       0.533   9.889  21.129  0.00  0.00    +0.000 A 
ATOM     24  N   UNL     1       0.410  10.755  22.108  0.00  0.00    +0.000 NA
ATOM     25  C   UNL     1      -0.503  11.685  21.657  0.00  0.00    +0.000 A 
ATOM     26  C   UNL     1      -0.939  12.885  22.239  0.00  0.00    +0.000 A 
ATOM     27  C   UNL     1      -1.952  13.616  21.600  0.00  0.00    +0.000 A 
ATOM     28  C   UNL     1      -2.529  13.155  20.413  0.00  0.00    +0.000 A 
ATOM     29  C   UNL     1      -2.075  11.986  19.793  0.00  0.00    +0.000 A 
ATOM     30  C   UNL     1      -1.041  11.302  20.434  0.00  0.00    +0.000 A 
ATOM     31  N   UNL     1      -0.312  10.196  20.091  0.00  0.00    +0.000 N 
ATOM     32  H   UNL     1       1.800   8.534  21.995  0.00  0.00    +0.000 HD
ATOM     33  H   UNL     1      -0.367   9.674  19.228  0.00  0.00    +0.000 HD
ENDBRANCH  19  21
ENDBRANCH   1  19
TORSDOF 5
ENDMDL
MODEL 3
REMARK VINA RESULT:      -8.7      5.537      7.194
REMARK  Name = 
REMARK  5 active torsions:
REMARK  status: ('A' for Active; 'I' for Inactive)
REMARK    1  A    between atoms: C_2  and  C_3
REMARK    2  A    between atoms: C_3  and  C_4
REMARK    3  A    between atoms: C_4  and  N_5
REMARK    4  A    between atoms: C_4  and  C_15
REMARK    5  A    between atoms: C_6  and  C_8
REMARK                            x       y       z     vdW  Elec       q    Type
REMARK                         _______ _______ _______ _____ _____    ______ ____
ROOT
ATOM      1  C   UNL     1       2.323   6.244  18.825  0.00  0.00    +0.000 C 
ENDROOT
BRANCH   1   2
ATOM      2  C   UNL     1       1.883   4.879  19.349  0.00  0.00    +0.000 A 
ATOM      3  C   UNL     1       1.379   3.902  18.470  0.00  0.00    +0.000 A 
ATOM      4  C   UNL     1       0.986   2.648  18.942  0.00  0.00    +0.000 A 
ATOM      5  C   UNL     1       1.091   2.347  20.297  0.00  0.00    +0.000 A 
ATOM      6  C   UNL     1       1.583   3.300  21.183  0.00  0.00    +0.000 A 
ATOM      7  C   UNL     1       1.971   4.557  20.714  0.00  0.00    +0.000 A 
ENDBRANCH   1   2
BRANCH   1   8
ATOM      8  N   UNL     1       3.352   6.076  17.789  0.00  0.00    +0.000 N 
ATOM      9  C   UNL     1       4.602   5.586  17.992  0.00  0.00    +0.000 C 
ATOM     10  O   UNL     1       5.058   5.341  19.098  0.00  0.00    +0.000 OA
ATOM     11  H   UNL     1       3.037   6.231  16.835  0.00  0.00    +0.000 HD
BRANCH   9  12
ATOM     12  C   UNL     1       5.449   5.287  16.808  0.00  0.00    +0.000 A 
ATOM     13  C   UNL     1       4.933   4.325  15.912  0.00  0.00    +0.000 A 
ATOM     14  C   UNL     1       5.651   3.918  14.795  0.00  0.00    +0.000 A 
ATOM     15  C   UNL     1       6.905   4.464  14.538  0.00  0.00    +0.000 A 
ATOM     16  C   UNL     1       7.434   5.422  15.415  0.00  0.00    +0.000 A 
ATOM     17  C   UNL     1       6.711   5.838  16.535  0.00  0.00    +0.000 A 
ATOM     18 CL   UNL     1       7.476   7.003  17.562  0.00  0.00    +0.000 Cl
ENDBRANCH   9  12
ENDBRANCH   1   8
BRANCH   1  19
ATOM     19  C   UNL     1       2.686   7.194  19.974  0.00  0.00    +0.000 C 
BRANCH  19  21
ATOM     20  O   UNL     1       0.931   7.793  21.483  0.00  0.00    +0.000 OA
ATOM     21  C   UNL     1       1.501   8.021  20.415  0.00  0.00    +0.000 C 
ATOM     22  N   UNL     1       1.189   9.071  19.573  0.00  0.00    +0.000 N 
ATOM     23  C   UNL     1       0.288  10.032  19.966  0.00  0.00    +0.000 A 
ATOM     24  N   UNL     1      -0.478  10.748  19.176  0.00  0.00    +0.000 NA
ATOM     25  C   UNL     1      -1.204  11.564  20.018  0.00  0.00    +0.000 A 
ATOM     26  C   UNL     1      -2.246  12.461  19.738  0.00  0.00    +0.000 A 
ATOM     27  C   UNL     1      -2.766  13.240  20.782  0.00  0.00    +0.000 A 
ATOM     28  C   UNL     1      -2.249  13.139  22.077  0.00  0.00    +0.000 A 
ATOM     29  C   UNL     1      -1.243  12.219  22.387  0.00  0.00    +0.000 A 
ATOM     30  C   UNL     1      -0.773  11.431  21.334  0.00  0.00    +0.000 A 
ATOM     31  N   UNL     1       0.124  10.400  21.278  0.00  0.00    +0.000 N 
ATOM     32  H   UNL     1       1.370   8.987  18.577  0.00  0.00    +0.000 HD
ATOM     33  H   UNL     1       0.601   9.966  22.056  0.00  0.00    +0.000 HD
ENDBRANCH  19  21
ENDBRANCH   1  19
TORSDOF 5
ENDMDL
MODEL 4
REMARK VINA RESULT:      -8.7      2.627      5.303
REMARK  Name = 
REMARK  5 active torsions:
REMARK  status: ('A' for Active; 'I' for Inactive)
REMARK    1  A    between atoms: C_2  and  C_3
REMARK    2  A    between atoms: C_3  and  C_4
REMARK    3  A    between atoms: C_4  and  N_5
REMARK    4  A    between atoms: C_4  and  C_15
REMARK    5  A    between atoms: C_6  and  C_8
REMARK                            x       y       z     vdW  Elec       q    Type
REMARK                         _______ _______ _______ _____ _____    ______ ____
ROOT
ATOM      1  C   UNL     1       6.113   4.539  16.971  0.00  0.00    +0.000 C 
ENDROOT
BRANCH   1   2
ATOM      2  C   UNL     1       6.232   4.413  15.455  0.00  0.00    +0.000 A 
ATOM      3  C   UNL     1       5.218   3.786  14.706  0.00  0.00    +0.000 A 
ATOM      4  C   UNL     1       5.315   3.678  13.317  0.00  0.00    +0.000 A 
ATOM      5  C   UNL     1       6.423   4.195  12.652  0.00  0.00    +0.000 A 
ATOM      6  C   UNL     1       7.439   4.815  13.373  0.00  0.00    +0.000 A 
ATOM      7  C   UNL     1       7.346   4.918  14.764  0.00  0.00    +0.000 A 
ENDBRANCH   1   2
BRANCH   1   8
ATOM      8  N   UNL     1       5.087   5.533  17.314  0.00  0.00    +0.000 N 
ATOM      9  C   UNL     1       3.912   5.268  17.944  0.00  0.00    +0.000 C 
ATOM     10  O   UNL     1       3.519   4.139  18.188  0.00  0.00    +0.000 OA
ATOM     11  H   UNL     1       5.355   6.503  17.169  0.00  0.00    +0.000 HD
BRANCH   9  12
ATOM     12  C   UNL     1       3.079   6.410  18.401  0.00  0.00    +0.000 A 
ATOM     13  C   UNL     1       3.032   7.522  17.533  0.00  0.00    +0.000 A 
ATOM     14  C   UNL     1       2.331   8.674  17.869  0.00  0.00    +0.000 A 
ATOM     15  C   UNL     1       1.653   8.746  19.081  0.00  0.00    +0.000 A 
ATOM     16  C   UNL     1       1.685   7.651  19.957  0.00  0.00    +0.000 A 
ATOM     17  C   UNL     1       2.383   6.489  19.619  0.00  0.00    +0.000 A 
ATOM     18 CL   UNL     1       2.378   5.214  20.790  0.00  0.00    +0.000 Cl
ENDBRANCH   9  12
ENDBRANCH   1   8
BRANCH   1  19
ATOM     19  C   UNL     1       7.486   4.750  17.624  0.00  0.00    +0.000 C 
BRANCH  19  21
ATOM     20  O   UNL     1       7.534   6.245  19.489  0.00  0.00    +0.000 OA
ATOM     21  C   UNL     1       7.600   6.112  18.266  0.00  0.00    +0.000 C 
ATOM     22  N   UNL     1       7.860   7.143  17.383  0.00  0.00    +0.000 N 
ATOM     23  C   UNL     1       8.211   8.387  17.852  0.00  0.00    +0.000 A 
ATOM     24  N   UNL     1       7.994   9.533  17.251  0.00  0.00    +0.000 NA
ATOM     25  C   UNL     1       8.514  10.490  18.096  0.00  0.00    +0.000 A 
ATOM     26  C   UNL     1       8.474  11.891  18.017  0.00  0.00    +0.000 A 
ATOM     27  C   UNL     1       9.163  12.642  18.982  0.00  0.00    +0.000 A 
ATOM     28  C   UNL     1       9.887  12.011  19.997  0.00  0.00    +0.000 A 
ATOM     29  C   UNL     1       9.901  10.618  20.121  0.00  0.00    +0.000 A 
ATOM     30  C   UNL     1       9.175   9.901  19.168  0.00  0.00    +0.000 A 
ATOM     31  N   UNL     1       8.904   8.568  19.023  0.00  0.00    +0.000 N 
ATOM     32  H   UNL     1       7.509   7.090  16.432  0.00  0.00    +0.000 HD
ATOM     33  H   UNL     1       9.160   7.822  19.655  0.00  0.00    +0.000 HD
ENDBRANCH  19  21
ENDBRANCH   1  19
TORSDOF 5
ENDMDL
MODEL 5
REMARK VINA RESULT:      -8.5      5.140      8.036
REMARK  Name = 
REMARK  5 active torsions:
REMARK  status: ('A' for Active; 'I' for Inactive)
REMARK    1  A    between atoms: C_2  and  C_3
REMARK    2  A    between atoms: C_3  and  C_4
REMARK    3  A    between atoms: C_4  and  N_5
REMARK    4  A    between atoms: C_4  and  C_15
REMARK    5  A    between atoms: C_6  and  C_8
REMARK                            x       y       z     vdW  Elec       q    Type
REMARK                         _______ _______ _______ _____ _____    ______ ____
ROOT
ATOM      1  C   UNL     1       3.849   5.512  19.840  0.00  0.00    +0.000 C 
ENDROOT
BRANCH   1   2
ATOM      2  C   UNL     1       3.092   4.290  19.326  0.00  0.00    +0.000 A 
ATOM      3  C   UNL     1       3.418   3.000  19.785  0.00  0.00    +0.000 A 
ATOM      4  C   UNL     1       2.722   1.879  19.327  0.00  0.00    +0.000 A 
ATOM      5  C   UNL     1       1.688   2.027  18.407  0.00  0.00    +0.000 A 
ATOM      6  C   UNL     1       1.352   3.293  17.938  0.00  0.00    +0.000 A 
ATOM      7  C   UNL     1       2.052   4.414  18.390  0.00  0.00    +0.000 A 
ENDBRANCH   1   2
BRANCH   1   8
ATOM      8  N   UNL     1       3.117   6.738  19.493  0.00  0.00    +0.000 N 
ATOM      9  C   UNL     1       2.032   7.222  20.153  0.00  0.00    +0.000 C 
ATOM     10  O   UNL     1       1.462   6.616  21.046  0.00  0.00    +0.000 OA
ATOM     11  H   UNL     1       3.549   7.315  18.777  0.00  0.00    +0.000 HD
BRANCH   9  12
ATOM     12  C   UNL     1       1.535   8.578  19.804  0.00  0.00    +0.000 A 
ATOM     13  C   UNL     1       1.726   8.975  18.463  0.00  0.00    +0.000 A 
ATOM     14  C   UNL     1       1.354  10.239  18.022  0.00  0.00    +0.000 A 
ATOM     15  C   UNL     1       0.776  11.142  18.909  0.00  0.00    +0.000 A 
ATOM     16  C   UNL     1       0.576  10.766  20.245  0.00  0.00    +0.000 A 
ATOM     17  C   UNL     1       0.943   9.494  20.689  0.00  0.00    +0.000 A 
ATOM     18 CL   UNL     1       0.676   9.152  22.365  0.00  0.00    +0.000 Cl
ENDBRANCH   9  12
ENDBRANCH   1   8
BRANCH   1  19
ATOM     19  C   UNL     1       5.323   5.476  19.416  0.00  0.00    +0.000 C 
BRANCH  19  21
ATOM     20  O   UNL     1       5.560   6.711  17.382  0.00  0.00    +0.000 OA
ATOM     21  C   UNL     1       5.480   5.605  17.919  0.00  0.00    +0.000 C 
ATOM     22  N   UNL     1       5.605   4.403  17.249  0.00  0.00    +0.000 N 
ATOM     23  C   UNL     1       5.980   4.381  15.926  0.00  0.00    +0.000 A 
ATOM     24  N   UNL     1       5.663   3.462  15.044  0.00  0.00    +0.000 NA
ATOM     25  C   UNL     1       6.258   3.867  13.869  0.00  0.00    +0.000 A 
ATOM     26  C   UNL     1       6.174   3.329  12.575  0.00  0.00    +0.000 A 
ATOM     27  C   UNL     1       6.956   3.894  11.556  0.00  0.00    +0.000 A 
ATOM     28  C   UNL     1       7.815   4.964  11.822  0.00  0.00    +0.000 A 
ATOM     29  C   UNL     1       7.877   5.545  13.093  0.00  0.00    +0.000 A 
ATOM     30  C   UNL     1       7.059   4.985  14.076  0.00  0.00    +0.000 A 
ATOM     31  N   UNL     1       6.805   5.329  15.375  0.00  0.00    +0.000 N 
ATOM     32  H   UNL     1       5.142   3.575  17.612  0.00  0.00    +0.000 HD
ATOM     33  H   UNL     1       7.155   6.138  15.869  0.00  0.00    +0.000 HD
ENDBRANCH  19  21
ENDBRANCH   1  19
TORSDOF 5
ENDMDL
MODEL 6
REMARK VINA RESULT:      -8.4      7.964     11.396
REMARK  Name = 
REMARK  5 active torsions:
REMARK  status: ('A' for Active; 'I' for Inactive)
REMARK    1  A    between atoms: C_2  and  C_3
REMARK    2  A    between atoms: C_3  and  C_4
REMARK    3  A    between atoms: C_4  and  N_5
REMARK    4  A    between atoms: C_4  and  C_15
REMARK    5  A    between atoms: C_6  and  C_8
REMARK                            x       y       z     vdW  Elec       q    Type
REMARK                         _______ _______ _______ _____ _____    ______ ____
ROOT
ATOM      1  C   UNL     1      -1.013  10.636  19.357  0.00  0.00    +0.000 C 
ENDROOT
BRANCH   1   2
ATOM      2  C   UNL     1      -1.984  10.670  18.180  0.00  0.00    +0.000 A 
ATOM      3  C   UNL     1      -1.763   9.868  17.044  0.00  0.00    +0.000 A 
ATOM      4  C   UNL     1      -2.654   9.886  15.969  0.00  0.00    +0.000 A 
ATOM      5  C   UNL     1      -3.781  10.702  16.010  0.00  0.00    +0.000 A 
ATOM      6  C   UNL     1      -4.017  11.505  17.120  0.00  0.00    +0.000 A 
ATOM      7  C   UNL     1      -3.123  11.493  18.194  0.00  0.00    +0.000 A 
ENDBRANCH   1   2
BRANCH   1   8
ATOM      8  N   UNL     1      -1.456  11.573  20.400  0.00  0.00    +0.000 N 
ATOM      9  C   UNL     1      -1.209  11.446  21.730  0.00  0.00    +0.000 C 
ATOM     10  O   UNL     1      -0.689  10.459  22.226  0.00  0.00    +0.000 OA
ATOM     11  H   UNL     1      -1.870  12.437  20.061  0.00  0.00    +0.000 HD
BRANCH   9  12
ATOM     12  C   UNL     1      -1.546  12.582  22.626  0.00  0.00    +0.000 A 
ATOM     13  C   UNL     1      -2.745  12.449  23.359  0.00  0.00    +0.000 A 
ATOM     14  C   UNL     1      -3.200  13.464  24.193  0.00  0.00    +0.000 A 
ATOM     15  C   UNL     1      -2.466  14.639  24.320  0.00  0.00    +0.000 A 
ATOM     16  C   UNL     1      -1.271  14.789  23.602  0.00  0.00    +0.000 A 
ATOM     17  C   UNL     1      -0.808  13.768  22.769  0.00  0.00    +0.000 A 
ATOM     18 CL   UNL     1       0.663  14.076  21.909  0.00  0.00    +0.000 Cl
ENDBRANCH   9  12
ENDBRANCH   1   8
BRANCH   1  19
ATOM     19  C   UNL     1       0.439  10.801  18.889  0.00  0.00    +0.000 C 
BRANCH  19  21
ATOM     20  O   UNL     1       1.073   8.805  20.042  0.00  0.00    +0.000 OA
ATOM     21  C   UNL     1       1.230   9.525  19.054  0.00  0.00    +0.000 C 
ATOM     22  N   UNL     1       2.052   9.216  17.988  0.00  0.00    +0.000 N 
ATOM     23  C   UNL     1       2.649   7.981  17.906  0.00  0.00    +0.000 A 
ATOM     24  N   UNL     1       3.786   7.705  17.309  0.00  0.00    +0.000 NA
ATOM     25  C   UNL     1       3.973   6.352  17.493  0.00  0.00    +0.000 A 
ATOM     26  C   UNL     1       5.062   5.532  17.160  0.00  0.00    +0.000 A 
ATOM     27  C   UNL     1       4.962   4.150  17.387  0.00  0.00    +0.000 A 
ATOM     28  C   UNL     1       3.796   3.595  17.921  0.00  0.00    +0.000 A 
ATOM     29  C   UNL     1       2.718   4.400  18.303  0.00  0.00    +0.000 A 
ATOM     30  C   UNL     1       2.863   5.773  18.099  0.00  0.00    +0.000 A 
ATOM     31  N   UNL     1       2.071   6.844  18.414  0.00  0.00    +0.000 N 
ATOM     32  H   UNL     1       2.461   9.965  17.436  0.00  0.00    +0.000 HD
ATOM     33  H   UNL     1       1.203   6.828  18.930  0.00  0.00    +0.000 HD
ENDBRANCH  19  21
ENDBRANCH   1  19
TORSDOF 5
ENDMDL
MODEL 7
REMARK VINA RESULT:      -8.4      4.868      7.983
REMARK  Name = 
REMARK  5 active torsions:
REMARK  status: ('A' for Active; 'I' for Inactive)
REMARK    1  A    between atoms: C_2  and  C_3
REMARK    2  A    between atoms: C_3  and  C_4
REMARK    3  A    between atoms: C_4  and  N_5
REMARK    4  A    between atoms: C_4  and  C_15
REMARK    5  A    between atoms: C_6  and  C_8
REMARK                            x       y       z     vdW  Elec       q    Type
REMARK                         _______ _______ _______ _____ _____    ______ ____
ROOT
ATOM      1  C   UNL     1       3.768   5.491  19.910  0.00  0.00    +0.000 C 
ENDROOT
BRANCH   1   2
ATOM      2  C   UNL     1       3.021   4.306  19.303  0.00  0.00    +0.000 A 
ATOM      3  C   UNL     1       3.322   2.990  19.699  0.00  0.00    +0.000 A 
ATOM      4  C   UNL     1       2.634   1.903  19.156  0.00  0.00    +0.000 A 
ATOM      5  C   UNL     1       1.632   2.111  18.212  0.00  0.00    +0.000 A 
ATOM      6  C   UNL     1       1.322   3.404  17.803  0.00  0.00    +0.000 A 
ATOM      7  C   UNL     1       2.014   4.492  18.341  0.00  0.00    +0.000 A 
ENDBRANCH   1   2
BRANCH   1   8
ATOM      8  N   UNL     1       3.025   6.734  19.661  0.00  0.00    +0.000 N 
ATOM      9  C   UNL     1       1.945   7.162  20.367  0.00  0.00    +0.000 C 
ATOM     10  O   UNL     1       1.390   6.489  21.221  0.00  0.00    +0.000 OA
ATOM     11  H   UNL     1       3.445   7.365  18.984  0.00  0.00    +0.000 HD
BRANCH   9  12
ATOM     12  C   UNL     1       1.436   8.536  20.123  0.00  0.00    +0.000 A 
ATOM     13  C   UNL     1       0.811   9.162  21.223  0.00  0.00    +0.000 A 
ATOM     14  C   UNL     1       0.245  10.427  21.111  0.00  0.00    +0.000 A 
ATOM     15  C   UNL     1       0.292  11.104  19.896  0.00  0.00    +0.000 A 
ATOM     16  C   UNL     1       0.911  10.499  18.792  0.00  0.00    +0.000 A 
ATOM     17  C   UNL     1       1.486   9.231  18.904  0.00  0.00    +0.000 A 
ATOM     18 CL   UNL     1       2.195   8.573  17.468  0.00  0.00    +0.000 Cl
ENDBRANCH   9  12
ENDBRANCH   1   8
BRANCH   1  19
ATOM     19  C   UNL     1       5.242   5.501  19.481  0.00  0.00    +0.000 C 
BRANCH  19  21
ATOM     20  O   UNL     1       5.426   6.717  17.431  0.00  0.00    +0.000 OA
ATOM     21  C   UNL     1       5.390   5.616  17.982  0.00  0.00    +0.000 C 
ATOM     22  N   UNL     1       5.560   4.411  17.328  0.00  0.00    +0.000 N 
ATOM     23  C   UNL     1       5.932   4.386  16.005  0.00  0.00    +0.000 A 
ATOM     24  N   UNL     1       5.648   3.443  15.136  0.00  0.00    +0.000 NA
ATOM     25  C   UNL     1       6.225   3.855  13.954  0.00  0.00    +0.000 A 
ATOM     26  C   UNL     1       6.159   3.296  12.668  0.00  0.00    +0.000 A 
ATOM     27  C   UNL     1       6.916   3.877  11.639  0.00  0.00    +0.000 A 
ATOM     28  C   UNL     1       7.733   4.983  11.889  0.00  0.00    +0.000 A 
ATOM     29  C   UNL     1       7.776   5.583  13.151  0.00  0.00    +0.000 A 
ATOM     30  C   UNL     1       6.983   5.005  14.143  0.00  0.00    +0.000 A 
ATOM     31  N   UNL     1       6.719   5.357  15.439  0.00  0.00    +0.000 N 
ATOM     32  H   UNL     1       5.130   3.571  17.704  0.00  0.00    +0.000 HD
ATOM     33  H   UNL     1       7.038   6.185  15.921  0.00  0.00    +0.000 HD
ENDBRANCH  19  21
ENDBRANCH   1  19
TORSDOF 5
ENDMDL
MODEL 8
REMARK VINA RESULT:      -8.2      8.181     11.861
REMARK  Name = 
REMARK  5 active torsions:
REMARK  status: ('A' for Active; 'I' for Inactive)
REMARK    1  A    between atoms: C_2  and  C_3
REMARK    2  A    between atoms: C_3  and  C_4
REMARK    3  A    between atoms: C_4  and  N_5
REMARK    4  A    between atoms: C_4  and  C_15
REMARK    5  A    between atoms: C_6  and  C_8
REMARK                            x       y       z     vdW  Elec       q    Type
REMARK                         _______ _______ _______ _____ _____    ______ ____
ROOT
ATOM      1  C   UNL     1      -0.841  10.546  20.146  0.00  0.00    +0.000 C 
ENDROOT
BRANCH   1   2
ATOM      2  C   UNL     1      -1.557  10.586  18.799  0.00  0.00    +0.000 A 
ATOM      3  C   UNL     1      -1.174   9.721  17.757  0.00  0.00    +0.000 A 
ATOM      4  C   UNL     1      -1.833   9.745  16.527  0.00  0.00    +0.000 A 
ATOM      5  C   UNL     1      -2.887  10.630  16.316  0.00  0.00    +0.000 A 
ATOM      6  C   UNL     1      -3.279  11.497  17.331  0.00  0.00    +0.000 A 
ATOM      7  C   UNL     1      -2.616  11.478  18.561  0.00  0.00    +0.000 A 
ENDBRANCH   1   2
BRANCH   1   8
ATOM      8  N   UNL     1      -1.397  11.570  21.042  0.00  0.00    +0.000 N 
ATOM      9  C   UNL     1      -1.363  11.533  22.400  0.00  0.00    +0.000 C 
ATOM     10  O   UNL     1      -0.968  10.569  23.037  0.00  0.00    +0.000 OA
ATOM     11  H   UNL     1      -1.718  12.419  20.585  0.00  0.00    +0.000 HD
BRANCH   9  12
ATOM     12  C   UNL     1      -1.785  12.741  23.154  0.00  0.00    +0.000 A 
ATOM     13  C   UNL     1      -2.988  12.620  23.883  0.00  0.00    +0.000 A 
ATOM     14  C   UNL     1      -3.518  13.694  24.587  0.00  0.00    +0.000 A 
ATOM     15  C   UNL     1      -2.859  14.919  24.586  0.00  0.00    +0.000 A 
ATOM     16  C   UNL     1      -1.662  15.059  23.870  0.00  0.00    +0.000 A 
ATOM     17  C   UNL     1      -1.122  13.979  23.167  0.00  0.00    +0.000 A 
ATOM     18 CL   UNL     1       0.344  14.277  22.296  0.00  0.00    +0.000 Cl
ENDBRANCH   9  12
ENDBRANCH   1   8
BRANCH   1  19
ATOM     19  C   UNL     1       0.683  10.575  19.970  0.00  0.00    +0.000 C 
BRANCH  19  21
ATOM     20  O   UNL     1       1.356   8.971  21.611  0.00  0.00    +0.000 OA
ATOM     21  C   UNL     1       1.326   9.284  20.419  0.00  0.00    +0.000 C 
ATOM     22  N   UNL     1       1.781   8.481  19.391  0.00  0.00    +0.000 N 
ATOM     23  C   UNL     1       2.175   7.188  19.643  0.00  0.00    +0.000 A 
ATOM     24  N   UNL     1       3.062   6.500  18.962  0.00  0.00    +0.000 NA
ATOM     25  C   UNL     1       3.123   5.271  19.584  0.00  0.00    +0.000 A 
ATOM     26  C   UNL     1       3.970   4.177  19.352  0.00  0.00    +0.000 A 
ATOM     27  C   UNL     1       3.766   2.997  20.084  0.00  0.00    +0.000 A 
ATOM     28  C   UNL     1       2.730   2.904  21.018  0.00  0.00    +0.000 A 
ATOM     29  C   UNL     1       1.905   3.999  21.298  0.00  0.00    +0.000 A 
ATOM     30  C   UNL     1       2.158   5.169  20.580  0.00  0.00    +0.000 A 
ATOM     31  N   UNL     1       1.621   6.426  20.641  0.00  0.00    +0.000 N 
ATOM     32  H   UNL     1       2.113   8.906  18.531  0.00  0.00    +0.000 HD
ATOM     33  H   UNL     1       0.932   6.761  21.299  0.00  0.00    +0.000 HD
ENDBRANCH  19  21
ENDBRANCH   1  19
TORSDOF 5
ENDMDL
MODEL 9
REMARK VINA RESULT:      -8.2      5.257      6.369
REMARK  Name = 
REMARK  5 active torsions:
REMARK  status: ('A' for Active; 'I' for Inactive)
REMARK    1  A    between atoms: C_2  and  C_3
REMARK    2  A    between atoms: C_3  and  C_4
REMARK    3  A    between atoms: C_4  and  N_5
REMARK    4  A    between atoms: C_4  and  C_15
REMARK    5  A    between atoms: C_6  and  C_8
REMARK                            x       y       z     vdW  Elec       q    Type
REMARK                         _______ _______ _______ _____ _____    ______ ____
ROOT
ATOM      1  C   UNL     1       2.028   5.962  18.808  0.00  0.00    +0.000 C 
ENDROOT
BRANCH   1   2
ATOM      2  C   UNL     1       1.650   4.550  19.246  0.00  0.00    +0.000 A 
ATOM      3  C   UNL     1       1.371   3.553  18.292  0.00  0.00    +0.000 A 
ATOM      4  C   UNL     1       1.035   2.257  18.686  0.00  0.00    +0.000 A 
ATOM      5  C   UNL     1       0.975   1.931  20.038  0.00  0.00    +0.000 A 
ATOM      6  C   UNL     1       1.243   2.902  20.998  0.00  0.00    +0.000 A 
ATOM      7  C   UNL     1       1.573   4.202  20.605  0.00  0.00    +0.000 A 
ENDBRANCH   1   2
BRANCH   1   8
ATOM      8  N   UNL     1       3.129   5.908  17.836  0.00  0.00    +0.000 N 
ATOM      9  C   UNL     1       4.401   5.513  18.106  0.00  0.00    +0.000 C 
ATOM     10  O   UNL     1       4.806   5.273  19.233  0.00  0.00    +0.000 OA
ATOM     11  H   UNL     1       2.863   6.066  16.868  0.00  0.00    +0.000 HD
BRANCH   9  12
ATOM     12  C   UNL     1       5.340   5.318  16.972  0.00  0.00    +0.000 A 
ATOM     13  C   UNL     1       4.829   4.602  15.868  0.00  0.00    +0.000 A 
ATOM     14  C   UNL     1       5.622   4.307  14.766  0.00  0.00    +0.000 A 
ATOM     15  C   UNL     1       6.950   4.723  14.735  0.00  0.00    +0.000 A 
ATOM     16  C   UNL     1       7.476   5.437  15.821  0.00  0.00    +0.000 A 
ATOM     17  C   UNL     1       6.679   5.741  16.927  0.00  0.00    +0.000 A 
ATOM     18 CL   UNL     1       7.444   6.601  18.220  0.00  0.00    +0.000 Cl
ENDBRANCH   9  12
ENDBRANCH   1   8
BRANCH   1  19
ATOM     19  C   UNL     1       2.253   6.881  20.016  0.00  0.00    +0.000 C 
BRANCH  19  21
ATOM     20  O   UNL     1       2.277   8.747  18.522  0.00  0.00    +0.000 OA
ATOM     21  C   UNL     1       2.052   8.335  19.661  0.00  0.00    +0.000 C 
ATOM     22  N   UNL     1       1.529   9.109  20.680  0.00  0.00    +0.000 N 
ATOM     23  C   UNL     1       1.087  10.385  20.425  0.00  0.00    +0.000 A 
ATOM     24  N   UNL     1       1.057  11.382  21.279  0.00  0.00    +0.000 NA
ATOM     25  C   UNL     1       0.542  12.448  20.574  0.00  0.00    +0.000 A 
ATOM     26  C   UNL     1       0.381  13.792  20.947  0.00  0.00    +0.000 A 
ATOM     27  C   UNL     1      -0.253  14.669  20.055  0.00  0.00    +0.000 A 
ATOM     28  C   UNL     1      -0.731  14.216  18.822  0.00  0.00    +0.000 A 
ATOM     29  C   UNL     1      -0.538  12.892  18.412  0.00  0.00    +0.000 A 
ATOM     30  C   UNL     1       0.130  12.054  19.306  0.00  0.00    +0.000 A 
ATOM     31  N   UNL     1       0.554  10.756  19.216  0.00  0.00    +0.000 N 
ATOM     32  H   UNL     1       1.742   8.877  21.645  0.00  0.00    +0.000 HD
ATOM     33  H   UNL     1       0.496  10.152  18.409  0.00  0.00    +0.000 HD
ENDBRANCH  19  21
ENDBRANCH   1  19
TORSDOF 5
ENDMDL
