MODEL 1
REMARK VINA RESULT:      -8.9      0.000      0.000
REMARK  Name = 
REMARK  3 active torsions:
REMARK  status: ('A' for Active; 'I' for Inactive)
REMARK    1  A    between atoms: C_1  and  C_2
REMARK    2  A    between atoms: C_7  and  C_8
REMARK    3  A    between atoms: C_15  and  C_16
REMARK                            x       y       z     vdW  Elec       q    Type
REMARK                         _______ _______ _______ _____ _____    ______ ____
ROOT
ATOM      1  C   UNL     1       1.027   3.446  20.714  0.00  0.00    +0.000 C 
ATOM      2  C   UNL     1       1.968   3.026  19.646  0.00  0.00    +0.000 A 
ATOM      3  N   UNL     1       2.136   1.714  19.424  0.00  0.00    +0.000 NA
ATOM      4  O   UNL     1       3.029   1.621  18.375  0.00  0.00    +0.000 OA
ATOM      5  C   UNL     1       3.388   2.866  17.966  0.00  0.00    +0.000 A 
ATOM      6  N   UNL     1       4.239   3.080  16.952  0.00  0.00    +0.000 NA
ATOM      7  C   UNL     1       4.510   4.381  16.698  0.00  0.00    +0.000 A 
ATOM      8  C   UNL     1       3.921   5.434  17.406  0.00  0.00    +0.000 A 
ATOM      9  C   UNL     1       3.021   5.164  18.450  0.00  0.00    +0.000 A 
ATOM     10  C   UNL     1       2.748   3.813  18.750  0.00  0.00    +0.000 A 
ENDROOT
BRANCH   9  11
ATOM     11  C   UNL     1       2.459   6.254  19.278  0.00  0.00    +0.000 C 
ATOM     12  O   UNL     1       2.209   5.983  20.447  0.00  0.00    +0.000 OA
ATOM     13  N   UNL     1       2.236   7.465  18.656  0.00  0.00    +0.000 N 
ATOM     14  C   UNL     1       1.642   8.493  19.349  0.00  0.00    +0.000 A 
ATOM     15  N   UNL     1       1.453   8.614  20.646  0.00  0.00    +0.000 NA
ATOM     16  C   UNL     1       0.732   9.746  20.857  0.00  0.00    +0.000 A 
ATOM     17  C   UNL     1       0.377  10.457  19.749  0.00  0.00    +0.000 A 
ATOM     18  S   UNL     1       1.023   9.775  18.359  0.00  0.00    +0.000 S 
ATOM     19  C   UNL     1      -0.489  11.616  20.031  0.00  0.00    +0.000 C 
ATOM     20  C   UNL     1      -0.592  11.567  21.597  0.00  0.00    +0.000 C 
ATOM     21  C   UNL     1       0.211  10.324  22.108  0.00  0.00    +0.000 C 
ATOM     22  H   UNL     1       2.328   7.585  17.661  0.00  0.00    +0.000 HD
ENDBRANCH   9  11
BRANCH   7  23
ATOM     23  C   UNL     1       5.512   4.596  15.632  0.00  0.00    +0.000 A 
ATOM     24  C   UNL     1       5.353   4.009  14.364  0.00  0.00    +0.000 A 
ATOM     25  C   UNL     1       6.322   4.146  13.365  0.00  0.00    +0.000 A 
ATOM     26  C   UNL     1       7.480   4.875  13.617  0.00  0.00    +0.000 A 
ATOM     27  C   UNL     1       7.656   5.481  14.857  0.00  0.00    +0.000 A 
ATOM     28  C   UNL     1       6.683   5.343  15.855  0.00  0.00    +0.000 A 
ENDBRANCH   7  23
TORSDOF 2
ENDMDL
MODEL 2
REMARK VINA RESULT:      -8.8      3.931      7.090
REMARK  Name = 
REMARK  3 active torsions:
REMARK  status: ('A' for Active; 'I' for Inactive)
REMARK    1  A    between atoms: C_1  and  C_2
REMARK    2  A    between atoms: C_7  and  C_8
REMARK    3  A    between atoms: C_15  and  C_16
REMARK                            x       y       z     vdW  Elec       q    Type
REMARK                         _______ _______ _______ _____ _____    ______ ____
ROOT
ATOM      1  C   UNL     1      -1.295  12.294  22.848  0.00  0.00    +0.000 C 
ATOM      2  C   UNL     1      -0.624  10.991  22.616  0.00  0.00    +0.000 A 
ATOM      3  N   UNL     1      -0.628  10.087  23.606  0.00  0.00    +0.000 NA
ATOM      4  O   UNL     1       0.031   8.980  23.108  0.00  0.00    +0.000 OA
ATOM      5  C   UNL     1       0.419   9.215  21.827  0.00  0.00    +0.000 A 
ATOM      6  N   UNL     1       1.072   8.307  21.088  0.00  0.00    +0.000 NA
ATOM      7  C   UNL     1       1.409   8.718  19.844  0.00  0.00    +0.000 A 
ATOM      8  C   UNL     1       1.072   9.979  19.341  0.00  0.00    +0.000 A 
ATOM      9  C   UNL     1       0.371  10.893  20.144  0.00  0.00    +0.000 A 
ATOM     10  C   UNL     1       0.036  10.494  21.455  0.00  0.00    +0.000 A 
ENDROOT
BRANCH   9  11
ATOM     11  C   UNL     1       0.087  12.267  19.673  0.00  0.00    +0.000 C 
ATOM     12  O   UNL     1      -1.037  12.473  19.228  0.00  0.00    +0.000 OA
ATOM     13  N   UNL     1       1.117  13.182  19.745  0.00  0.00    +0.000 N 
ATOM     14  C   UNL     1       0.942  14.452  19.250  0.00  0.00    +0.000 A 
ATOM     15  N   UNL     1      -0.176  15.061  18.915  0.00  0.00    +0.000 NA
ATOM     16  C   UNL     1       0.152  16.264  18.377  0.00  0.00    +0.000 A 
ATOM     17  C   UNL     1       1.482  16.555  18.299  0.00  0.00    +0.000 A 
ATOM     18  S   UNL     1       2.408  15.343  18.996  0.00  0.00    +0.000 S 
ATOM     19  C   UNL     1       1.780  17.826  17.616  0.00  0.00    +0.000 C 
ATOM     20  C   UNL     1       0.340  18.367  17.299  0.00  0.00    +0.000 C 
ATOM     21  C   UNL     1      -0.706  17.316  17.802  0.00  0.00    +0.000 C 
ATOM     22  H   UNL     1       2.057  12.917  19.988  0.00  0.00    +0.000 HD
ENDBRANCH   9  11
BRANCH   7  23
ATOM     23  C   UNL     1       2.200   7.734  19.073  0.00  0.00    +0.000 A 
ATOM     24  C   UNL     1       2.336   6.408  19.522  0.00  0.00    +0.000 A 
ATOM     25  C   UNL     1       3.133   5.481  18.842  0.00  0.00    +0.000 A 
ATOM     26  C   UNL     1       3.818   5.866  17.694  0.00  0.00    +0.000 A 
ATOM     27  C   UNL     1       3.688   7.167  17.218  0.00  0.00    +0.000 A 
ATOM     28  C   UNL     1       2.888   8.092  17.899  0.00  0.00    +0.000 A 
ENDBRANCH   7  23
TORSDOF 2
ENDMDL
MODEL 3
REMARK VINA RESULT:      -8.6      2.130      7.821
REMARK  Name = 
REMARK  3 active torsions:
REMARK  status: ('A' for Active; 'I' for Inactive)
REMARK    1  A    between atoms: C_1  and  C_2
REMARK    2  A    between atoms: C_7  and  C_8
REMARK    3  A    between atoms: C_15  and  C_16
REMARK                            x       y       z     vdW  Elec       q    Type
REMARK                         _______ _______ _______ _____ _____    ______ ____
ROOT
ATOM      1  C   UNL     1       3.746   1.825  19.163  0.00  0.00    +0.000 C 
ATOM      2  C   UNL     1       3.103   2.850  20.022  0.00  0.00    +0.000 A 
ATOM      3  N   UNL     1       2.706   2.493  21.252  0.00  0.00    +0.000 NA
ATOM      4  O   UNL     1       2.179   3.634  21.823  0.00  0.00    +0.000 OA
ATOM      5  C   UNL     1       2.267   4.669  20.947  0.00  0.00    +0.000 A 
ATOM      6  N   UNL     1       1.840   5.906  21.238  0.00  0.00    +0.000 NA
ATOM      7  C   UNL     1       1.975   6.809  20.240  0.00  0.00    +0.000 A 
ATOM      8  C   UNL     1       2.553   6.496  19.004  0.00  0.00    +0.000 A 
ATOM      9  C   UNL     1       3.002   5.190  18.748  0.00  0.00    +0.000 A 
ATOM     10  C   UNL     1       2.843   4.228  19.766  0.00  0.00    +0.000 A 
ENDROOT
BRANCH   9  11
ATOM     11  C   UNL     1       3.527   4.808  17.417  0.00  0.00    +0.000 C 
ATOM     12  O   UNL     1       2.974   3.868  16.858  0.00  0.00    +0.000 OA
ATOM     13  N   UNL     1       4.608   5.521  16.940  0.00  0.00    +0.000 N 
ATOM     14  C   UNL     1       5.192   5.164  15.748  0.00  0.00    +0.000 A 
ATOM     15  N   UNL     1       4.730   4.367  14.808  0.00  0.00    +0.000 NA
ATOM     16  C   UNL     1       5.699   4.230  13.866  0.00  0.00    +0.000 A 
ATOM     17  C   UNL     1       6.866   4.899  14.092  0.00  0.00    +0.000 A 
ATOM     18  S   UNL     1       6.772   5.828  15.485  0.00  0.00    +0.000 S 
ATOM     19  C   UNL     1       7.915   4.633  13.090  0.00  0.00    +0.000 C 
ATOM     20  C   UNL     1       7.171   3.673  12.094  0.00  0.00    +0.000 C 
ATOM     21  C   UNL     1       5.724   3.421  12.635  0.00  0.00    +0.000 C 
ATOM     22  H   UNL     1       5.106   6.187  17.506  0.00  0.00    +0.000 HD
ENDBRANCH   9  11
BRANCH   7  23
ATOM     23  C   UNL     1       1.426   8.146  20.550  0.00  0.00    +0.000 A 
ATOM     24  C   UNL     1       1.013   8.470  21.855  0.00  0.00    +0.000 A 
ATOM     25  C   UNL     1       0.430   9.706  22.154  0.00  0.00    +0.000 A 
ATOM     26  C   UNL     1       0.242  10.647  21.146  0.00  0.00    +0.000 A 
ATOM     27  C   UNL     1       0.657  10.359  19.850  0.00  0.00    +0.000 A 
ATOM     28  C   UNL     1       1.242   9.122  19.553  0.00  0.00    +0.000 A 
ENDBRANCH   7  23
TORSDOF 2
ENDMDL
MODEL 4
REMARK VINA RESULT:      -8.5      3.940      7.113
REMARK  Name = 
REMARK  3 active torsions:
REMARK  status: ('A' for Active; 'I' for Inactive)
REMARK    1  A    between atoms: C_1  and  C_2
REMARK    2  A    between atoms: C_7  and  C_8
REMARK    3  A    between atoms: C_15  and  C_16
REMARK                            x       y       z     vdW  Elec       q    Type
REMARK                         _______ _______ _______ _____ _____    ______ ____
ROOT
ATOM      1  C   UNL     1      -1.350  12.317  22.741  0.00  0.00    +0.000 C 
ATOM      2  C   UNL     1      -0.660  11.018  22.549  0.00  0.00    +0.000 A 
ATOM      3  N   UNL     1      -0.675  10.133  23.557  0.00  0.00    +0.000 NA
ATOM      4  O   UNL     1       0.007   9.025  23.094  0.00  0.00    +0.000 OA
ATOM      5  C   UNL     1       0.420   9.239  21.818  0.00  0.00    +0.000 A 
ATOM      6  N   UNL     1       1.100   8.325  21.111  0.00  0.00    +0.000 NA
ATOM      7  C   UNL     1       1.459   8.715  19.866  0.00  0.00    +0.000 A 
ATOM      8  C   UNL     1       1.118   9.962  19.331  0.00  0.00    +0.000 A 
ATOM      9  C   UNL     1       0.390  10.883  20.101  0.00  0.00    +0.000 A 
ATOM     10  C   UNL     1       0.031  10.506  21.412  0.00  0.00    +0.000 A 
ENDROOT
BRANCH   9  11
ATOM     11  C   UNL     1       0.100  12.244  19.597  0.00  0.00    +0.000 C 
ATOM     12  O   UNL     1      -0.762  12.337  18.730  0.00  0.00    +0.000 OA
ATOM     13  N   UNL     1       0.845  13.281  20.122  0.00  0.00    +0.000 N 
ATOM     14  C   UNL     1       0.680  14.557  19.638  0.00  0.00    +0.000 A 
ATOM     15  N   UNL     1      -0.288  15.036  18.886  0.00  0.00    +0.000 NA
ATOM     16  C   UNL     1       0.027  16.320  18.572  0.00  0.00    +0.000 A 
ATOM     17  C   UNL     1       1.206  16.796  19.065  0.00  0.00    +0.000 A 
ATOM     18  S   UNL     1       1.953  15.661  20.048  0.00  0.00    +0.000 S 
ATOM     19  C   UNL     1       1.542  18.156  18.609  0.00  0.00    +0.000 C 
ATOM     20  C   UNL     1       0.289  18.522  17.737  0.00  0.00    +0.000 C 
ATOM     21  C   UNL     1      -0.682  17.295  17.724  0.00  0.00    +0.000 C 
ATOM     22  H   UNL     1       1.634  13.125  20.726  0.00  0.00    +0.000 HD
ENDBRANCH   9  11
BRANCH   7  23
ATOM     23  C   UNL     1       2.277   7.726  19.132  0.00  0.00    +0.000 A 
ATOM     24  C   UNL     1       2.887   8.061  17.909  0.00  0.00    +0.000 A 
ATOM     25  C   UNL     1       3.610   7.120  17.168  0.00  0.00    +0.000 A 
ATOM     26  C   UNL     1       3.734   5.816  17.636  0.00  0.00    +0.000 A 
ATOM     27  C   UNL     1       3.156   5.462  18.851  0.00  0.00    +0.000 A 
ATOM     28  C   UNL     1       2.434   6.406  19.592  0.00  0.00    +0.000 A 
ENDBRANCH   7  23
TORSDOF 2
ENDMDL
MODEL 5
REMARK VINA RESULT:      -8.4      3.826      5.878
REMARK  Name = 
REMARK  3 active torsions:
REMARK  status: ('A' for Active; 'I' for Inactive)
REMARK    1  A    between atoms: C_1  and  C_2
REMARK    2  A    between atoms: C_7  and  C_8
REMARK    3  A    between atoms: C_15  and  C_16
REMARK                            x       y       z     vdW  Elec       q    Type
REMARK                         _______ _______ _______ _____ _____    ______ ____
ROOT
ATOM      1  C   UNL     1       0.683  11.441  18.717  0.00  0.00    +0.000 C 
ATOM      2  C   UNL     1       1.396  10.166  18.459  0.00  0.00    +0.000 A 
ATOM      3  N   UNL     1       2.106  10.050  17.328  0.00  0.00    +0.000 NA
ATOM      4  O   UNL     1       2.674   8.792  17.367  0.00  0.00    +0.000 OA
ATOM      5  C   UNL     1       2.314   8.161  18.516  0.00  0.00    +0.000 A 
ATOM      6  N   UNL     1       2.730   6.925  18.827  0.00  0.00    +0.000 NA
ATOM      7  C   UNL     1       2.252   6.437  19.994  0.00  0.00    +0.000 A 
ATOM      8  C   UNL     1       1.417   7.173  20.842  0.00  0.00    +0.000 A 
ATOM      9  C   UNL     1       1.020   8.472  20.485  0.00  0.00    +0.000 A 
ATOM     10  C   UNL     1       1.484   8.987  19.257  0.00  0.00    +0.000 A 
ENDROOT
BRANCH   9  11
ATOM     11  C   UNL     1       0.060   9.236  21.314  0.00  0.00    +0.000 C 
ATOM     12  O   UNL     1      -0.924   8.626  21.717  0.00  0.00    +0.000 OA
ATOM     13  N   UNL     1       0.342  10.569  21.533  0.00  0.00    +0.000 N 
ATOM     14  C   UNL     1      -0.549  11.352  22.228  0.00  0.00    +0.000 A 
ATOM     15  N   UNL     1      -1.570  10.981  22.971  0.00  0.00    +0.000 NA
ATOM     16  C   UNL     1      -2.223  12.104  23.370  0.00  0.00    +0.000 A 
ATOM     17  C   UNL     1      -1.715  13.291  22.933  0.00  0.00    +0.000 A 
ATOM     18  S   UNL     1      -0.305  13.060  22.054  0.00  0.00    +0.000 S 
ATOM     19  C   UNL     1      -2.521  14.466  23.311  0.00  0.00    +0.000 C 
ATOM     20  C   UNL     1      -3.666  13.809  24.161  0.00  0.00    +0.000 C 
ATOM     21  C   UNL     1      -3.449  12.259  24.173  0.00  0.00    +0.000 C 
ATOM     22  H   UNL     1       1.091  11.046  21.060  0.00  0.00    +0.000 HD
ENDBRANCH   9  11
BRANCH   7  23
ATOM     23  C   UNL     1       2.654   5.044  20.281  0.00  0.00    +0.000 A 
ATOM     24  C   UNL     1       3.720   4.444  19.586  0.00  0.00    +0.000 A 
ATOM     25  C   UNL     1       4.074   3.107  19.797  0.00  0.00    +0.000 A 
ATOM     26  C   UNL     1       3.360   2.336  20.709  0.00  0.00    +0.000 A 
ATOM     27  C   UNL     1       2.312   2.908  21.423  0.00  0.00    +0.000 A 
ATOM     28  C   UNL     1       1.961   4.248  21.212  0.00  0.00    +0.000 A 
ENDBRANCH   7  23
TORSDOF 2
ENDMDL
MODEL 6
REMARK VINA RESULT:      -7.9      3.482      8.645
REMARK  Name = 
REMARK  3 active torsions:
REMARK  status: ('A' for Active; 'I' for Inactive)
REMARK    1  A    between atoms: C_1  and  C_2
REMARK    2  A    between atoms: C_7  and  C_8
REMARK    3  A    between atoms: C_15  and  C_16
REMARK                            x       y       z     vdW  Elec       q    Type
REMARK                         _______ _______ _______ _____ _____    ______ ____
ROOT
ATOM      1  C   UNL     1      -0.431   8.431  21.795  0.00  0.00    +0.000 C 
ATOM      2  C   UNL     1      -0.284   9.900  21.649  0.00  0.00    +0.000 A 
ATOM      3  N   UNL     1      -0.903  10.694  22.534  0.00  0.00    +0.000 NA
ATOM      4  O   UNL     1      -0.572  11.986  22.177  0.00  0.00    +0.000 OA
ATOM      5  C   UNL     1       0.246  11.967  21.092  0.00  0.00    +0.000 A 
ATOM      6  N   UNL     1       0.736  13.083  20.532  0.00  0.00    +0.000 NA
ATOM      7  C   UNL     1       1.509  12.883  19.441  0.00  0.00    +0.000 A 
ATOM      8  C   UNL     1       1.815  11.610  18.947  0.00  0.00    +0.000 A 
ATOM      9  C   UNL     1       1.295  10.468  19.576  0.00  0.00    +0.000 A 
ATOM     10  C   UNL     1       0.462  10.656  20.698  0.00  0.00    +0.000 A 
ENDROOT
BRANCH   9  11
ATOM     11  C   UNL     1       1.522   9.115  19.018  0.00  0.00    +0.000 C 
ATOM     12  O   UNL     1       1.293   8.968  17.823  0.00  0.00    +0.000 OA
ATOM     13  N   UNL     1       1.940   8.136  19.897  0.00  0.00    +0.000 N 
ATOM     14  C   UNL     1       2.093   6.842  19.458  0.00  0.00    +0.000 A 
ATOM     15  N   UNL     1       2.145   6.389  18.223  0.00  0.00    +0.000 NA
ATOM     16  C   UNL     1       2.197   5.033  18.281  0.00  0.00    +0.000 A 
ATOM     17  C   UNL     1       2.176   4.474  19.525  0.00  0.00    +0.000 A 
ATOM     18  S   UNL     1       2.183   5.654  20.718  0.00  0.00    +0.000 S 
ATOM     19  C   UNL     1       2.133   3.001  19.521  0.00  0.00    +0.000 C 
ATOM     20  C   UNL     1       2.190   2.681  17.985  0.00  0.00    +0.000 C 
ATOM     21  C   UNL     1       2.222   4.034  17.198  0.00  0.00    +0.000 C 
ATOM     22  H   UNL     1       1.975   8.284  20.891  0.00  0.00    +0.000 HD
ENDBRANCH   9  11
BRANCH   7  23
ATOM     23  C   UNL     1       1.973  14.126  18.789  0.00  0.00    +0.000 A 
ATOM     24  C   UNL     1       3.199  14.165  18.100  0.00  0.00    +0.000 A 
ATOM     25  C   UNL     1       3.685  15.348  17.533  0.00  0.00    +0.000 A 
ATOM     26  C   UNL     1       2.952  16.525  17.650  0.00  0.00    +0.000 A 
ATOM     27  C   UNL     1       1.729  16.512  18.311  0.00  0.00    +0.000 A 
ATOM     28  C   UNL     1       1.243  15.326  18.876  0.00  0.00    +0.000 A 
ENDBRANCH   7  23
TORSDOF 2
ENDMDL
MODEL 7
REMARK VINA RESULT:      -7.8      2.273      7.937
REMARK  Name = 
REMARK  3 active torsions:
REMARK  status: ('A' for Active; 'I' for Inactive)
REMARK    1  A    between atoms: C_1  and  C_2
REMARK    2  A    between atoms: C_7  and  C_8
REMARK    3  A    between atoms: C_15  and  C_16
REMARK                            x       y       z     vdW  Elec       q    Type
REMARK                         _______ _______ _______ _____ _____    ______ ____
ROOT
ATOM      1  C   UNL     1       4.588   2.905  19.055  0.00  0.00    +0.000 C 
ATOM      2  C   UNL     1       3.574   3.725  19.762  0.00  0.00    +0.000 A 
ATOM      3  N   UNL     1       2.874   3.158  20.754  0.00  0.00    +0.000 NA
ATOM      4  O   UNL     1       2.041   4.146  21.240  0.00  0.00    +0.000 OA
ATOM      5  C   UNL     1       2.245   5.299  20.550  0.00  0.00    +0.000 A 
ATOM      6  N   UNL     1       1.578   6.432  20.814  0.00  0.00    +0.000 NA
ATOM      7  C   UNL     1       1.883   7.476  20.010  0.00  0.00    +0.000 A 
ATOM      8  C   UNL     1       2.850   7.404  19.001  0.00  0.00    +0.000 A 
ATOM      9  C   UNL     1       3.537   6.201  18.770  0.00  0.00    +0.000 A 
ATOM     10  C   UNL     1       3.212   5.092  19.578  0.00  0.00    +0.000 A 
ENDROOT
BRANCH   9  11
ATOM     11  C   UNL     1       4.493   6.068  17.648  0.00  0.00    +0.000 C 
ATOM     12  O   UNL     1       5.220   7.030  17.429  0.00  0.00    +0.000 OA
ATOM     13  N   UNL     1       4.460   4.889  16.931  0.00  0.00    +0.000 N 
ATOM     14  C   UNL     1       5.266   4.735  15.828  0.00  0.00    +0.000 A 
ATOM     15  N   UNL     1       6.298   5.460  15.452  0.00  0.00    +0.000 NA
ATOM     16  C   UNL     1       6.715   4.995  14.246  0.00  0.00    +0.000 A 
ATOM     17  C   UNL     1       6.012   3.951  13.720  0.00  0.00    +0.000 A 
ATOM     18  S   UNL     1       4.821   3.429  14.778  0.00  0.00    +0.000 S 
ATOM     19  C   UNL     1       6.446   3.556  12.368  0.00  0.00    +0.000 C 
ATOM     20  C   UNL     1       7.649   4.533  12.117  0.00  0.00    +0.000 C 
ATOM     21  C   UNL     1       7.795   5.470  13.362  0.00  0.00    +0.000 C 
ATOM     22  H   UNL     1       3.746   4.194  17.070  0.00  0.00    +0.000 HD
ENDBRANCH   9  11
BRANCH   7  23
ATOM     23  C   UNL     1       1.081   8.692  20.263  0.00  0.00    +0.000 A 
ATOM     24  C   UNL     1       0.900   9.659  19.257  0.00  0.00    +0.000 A 
ATOM     25  C   UNL     1       0.200  10.845  19.497  0.00  0.00    +0.000 A 
ATOM     26  C   UNL     1      -0.333  11.093  20.758  0.00  0.00    +0.000 A 
ATOM     27  C   UNL     1      -0.185  10.147  21.767  0.00  0.00    +0.000 A 
ATOM     28  C   UNL     1       0.515   8.958  21.524  0.00  0.00    +0.000 A 
ENDBRANCH   7  23
TORSDOF 2
ENDMDL
MODEL 8
REMARK VINA RESULT:      -7.7      4.623      7.785
REMARK  Name = 
REMARK  3 active torsions:
REMARK  status: ('A' for Active; 'I' for Inactive)
REMARK    1  A    between atoms: C_1  and  C_2
REMARK    2  A    between atoms: C_7  and  C_8
REMARK    3  A    between atoms: C_15  and  C_16
REMARK                            x       y       z     vdW  Elec       q    Type
REMARK                         _______ _______ _______ _____ _____    ______ ____
ROOT
ATOM      1  C   UNL     1      -0.076  14.596  18.849  0.00  0.00    +0.000 C 
ATOM      2  C   UNL     1       0.844  13.461  18.590  0.00  0.00    +0.000 A 
ATOM      3  N   UNL     1       1.982  13.702  17.923  0.00  0.00    +0.000 NA
ATOM      4  O   UNL     1       2.641  12.491  17.854  0.00  0.00    +0.000 OA
ATOM      5  C   UNL     1       1.910  11.533  18.482  0.00  0.00    +0.000 A 
ATOM      6  N   UNL     1       2.314  10.259  18.580  0.00  0.00    +0.000 NA
ATOM      7  C   UNL     1       1.449   9.432  19.211  0.00  0.00    +0.000 A 
ATOM      8  C   UNL     1       0.238   9.870  19.760  0.00  0.00    +0.000 A 
ATOM      9  C   UNL     1      -0.137  11.218  19.648  0.00  0.00    +0.000 A 
ATOM     10  C   UNL     1       0.738  12.091  18.968  0.00  0.00    +0.000 A 
ENDROOT
BRANCH   9  11
ATOM     11  C   UNL     1      -1.454  11.690  20.133  0.00  0.00    +0.000 C 
ATOM     12  O   UNL     1      -1.559  11.881  21.339  0.00  0.00    +0.000 OA
ATOM     13  N   UNL     1      -2.452  11.841  19.192  0.00  0.00    +0.000 N 
ATOM     14  C   UNL     1      -3.719  12.199  19.588  0.00  0.00    +0.000 A 
ATOM     15  N   UNL     1      -4.116  12.684  20.745  0.00  0.00    +0.000 NA
ATOM     16  C   UNL     1      -5.470  12.785  20.710  0.00  0.00    +0.000 A 
ATOM     17  C   UNL     1      -6.082  12.379  19.560  0.00  0.00    +0.000 A 
ATOM     18  S   UNL     1      -4.956  11.925  18.403  0.00  0.00    +0.000 S 
ATOM     19  C   UNL     1      -7.554  12.417  19.617  0.00  0.00    +0.000 C 
ATOM     20  C   UNL     1      -7.806  13.000  21.053  0.00  0.00    +0.000 C 
ATOM     21  C   UNL     1      -6.421  13.222  21.748  0.00  0.00    +0.000 C 
ATOM     22  H   UNL     1      -2.346  11.534  18.240  0.00  0.00    +0.000 HD
ENDBRANCH   9  11
BRANCH   7  23
ATOM     23  C   UNL     1       1.873   8.015  19.239  0.00  0.00    +0.000 A 
ATOM     24  C   UNL     1       2.475   7.421  18.115  0.00  0.00    +0.000 A 
ATOM     25  C   UNL     1       2.823   6.067  18.099  0.00  0.00    +0.000 A 
ATOM     26  C   UNL     1       2.569   5.272  19.213  0.00  0.00    +0.000 A 
ATOM     27  C   UNL     1       1.990   5.837  20.344  0.00  0.00    +0.000 A 
ATOM     28  C   UNL     1       1.645   7.194  20.358  0.00  0.00    +0.000 A 
ENDBRANCH   7  23
TORSDOF 2
ENDMDL
MODEL 9
REMARK VINA RESULT:      -7.7      4.025      9.492
REMARK  Name = 
REMARK  3 active torsions:
REMARK  status: ('A' for Active; 'I' for Inactive)
REMARK    1  A    between atoms: C_1  and  C_2
REMARK    2  A    between atoms: C_7  and  C_8
REMARK    3  A    between atoms: C_15  and  C_16
REMARK                            x       y       z     vdW  Elec       q    Type
REMARK                         _______ _______ _______ _____ _____    ______ ____
ROOT
ATOM      1  C   UNL     1      -1.321  10.790  23.204  0.00  0.00    +0.000 C 
ATOM      2  C   UNL     1      -1.144  12.141  22.617  0.00  0.00    +0.000 A 
ATOM      3  N   UNL     1      -1.923  13.138  23.063  0.00  0.00    +0.000 NA
ATOM      4  O   UNL     1      -1.525  14.265  22.372  0.00  0.00    +0.000 OA
ATOM      5  C   UNL     1      -0.510  13.949  21.524  0.00  0.00    +0.000 A 
ATOM      6  N   UNL     1       0.082  14.854  20.731  0.00  0.00    +0.000 NA
ATOM      7  C   UNL     1       1.054  14.363  19.928  0.00  0.00    +0.000 A 
ATOM      8  C   UNL     1       1.447  13.020  19.943  0.00  0.00    +0.000 A 
ATOM      9  C   UNL     1       0.810  12.110  20.802  0.00  0.00    +0.000 A 
ATOM     10  C   UNL     1      -0.225  12.597  21.627  0.00  0.00    +0.000 A 
ENDROOT
BRANCH   9  11
ATOM     11  C   UNL     1       1.139  10.667  20.770  0.00  0.00    +0.000 C 
ATOM     12  O   UNL     1       1.332  10.122  21.851  0.00  0.00    +0.000 OA
ATOM     13  N   UNL     1       1.229  10.071  19.528  0.00  0.00    +0.000 N 
ATOM     14  C   UNL     1       1.609   8.754  19.426  0.00  0.00    +0.000 A 
ATOM     15  N   UNL     1       1.674   7.838  20.369  0.00  0.00    +0.000 NA
ATOM     16  C   UNL     1       2.202   6.713  19.819  0.00  0.00    +0.000 A 
ATOM     17  C   UNL     1       2.536   6.780  18.498  0.00  0.00    +0.000 A 
ATOM     18  S   UNL     1       2.109   8.262  17.840  0.00  0.00    +0.000 S 
ATOM     19  C   UNL     1       3.196   5.566  17.983  0.00  0.00    +0.000 C 
ATOM     20  C   UNL     1       3.181   4.632  19.245  0.00  0.00    +0.000 C 
ATOM     21  C   UNL     1       2.532   5.416  20.435  0.00  0.00    +0.000 C 
ATOM     22  H   UNL     1       1.199  10.601  18.673  0.00  0.00    +0.000 HD
ENDBRANCH   9  11
BRANCH   7  23
ATOM     23  C   UNL     1       1.639  15.357  19.004  0.00  0.00    +0.000 A 
ATOM     24  C   UNL     1       0.964  16.557  18.715  0.00  0.00    +0.000 A 
ATOM     25  C   UNL     1       1.470  17.479  17.793  0.00  0.00    +0.000 A 
ATOM     26  C   UNL     1       2.668  17.217  17.135  0.00  0.00    +0.000 A 
ATOM     27  C   UNL     1       3.365  16.046  17.415  0.00  0.00    +0.000 A 
ATOM     28  C   UNL     1       2.857  15.125  18.339  0.00  0.00    +0.000 A 
ENDBRANCH   7  23
TORSDOF 2
ENDMDL
