MODEL 1
REMARK VINA RESULT:      -8.8      0.000      0.000
REMARK  Name = 
REMARK  5 active torsions:
REMARK  status: ('A' for Active; 'I' for Inactive)
REMARK    1  A    between atoms: C_1  and  C_2
REMARK    2  A    between atoms: C_4  and  C_5
REMARK    3  A    between atoms: C_8  and  N_9
REMARK    4  A    between atoms: C_10  and  C_12
REMARK    5  A    between atoms: C_25  and  C_26
REMARK                            x       y       z     vdW  Elec       q    Type
REMARK                         _______ _______ _______ _____ _____    ______ ____
ROOT
ATOM      1  N   UNL     1       1.624   8.388  20.256  0.00  0.00    +0.000 N 
ATOM      2  C   UNL     1       1.933   8.409  18.902  0.00  0.00    +0.000 C 
ATOM      3  O   UNL     1       1.592   9.271  18.097  0.00  0.00    +0.000 OA
ATOM      4  H   UNL     1       1.956   7.604  20.803  0.00  0.00    +0.000 HD
ENDROOT
BRANCH   2   5
ATOM      5  C   UNL     1       2.696   7.247  18.346  0.00  0.00    +0.000 A 
ATOM      6  C   UNL     1       2.282   5.974  18.759  0.00  0.00    +0.000 A 
ATOM      7  C   UNL     1       2.924   4.826  18.290  0.00  0.00    +0.000 A 
ATOM      8  C   UNL     1       3.966   4.900  17.386  0.00  0.00    +0.000 A 
ATOM      9  N   UNL     1       4.537   3.752  16.981  0.00  0.00    +0.000 NA
ATOM     10  C   UNL     1       5.524   3.822  16.066  0.00  0.00    +0.000 A 
ATOM     11  C   UNL     1       5.973   5.007  15.518  0.00  0.00    +0.000 A 
ATOM     12  C   UNL     1       5.388   6.196  15.953  0.00  0.00    +0.000 A 
ATOM     13  C   UNL     1       4.367   6.173  16.920  0.00  0.00    +0.000 A 
ATOM     14  C   UNL     1       3.737   7.347  17.416  0.00  0.00    +0.000 A 
ENDBRANCH   2   5
BRANCH   1  18
ATOM     15  C   UNL     1      -0.949  11.067  22.383  0.00  0.00    +0.000 A 
ATOM     16  C   UNL     1      -0.615  11.302  21.045  0.00  0.00    +0.000 A 
ATOM     17  C   UNL     1       0.239  10.447  20.335  0.00  0.00    +0.000 A 
ATOM     18  C   UNL     1       0.785   9.314  20.936  0.00  0.00    +0.000 A 
ATOM     19  C   UNL     1       0.454   9.065  22.277  0.00  0.00    +0.000 A 
ATOM     20  C   UNL     1      -0.401   9.933  22.997  0.00  0.00    +0.000 A 
BRANCH  15  24
ATOM     21  C   UNL     1      -2.827  15.091  24.509  0.00  0.00    +0.000 C 
ATOM     22  C   UNL     1      -2.727  13.707  23.999  0.00  0.00    +0.000 A 
ATOM     23  N   UNL     1      -1.612  13.282  23.323  0.00  0.00    +0.000 NA
ATOM     24  C   UNL     1      -1.848  12.013  23.046  0.00  0.00    +0.000 A 
ATOM     25  O   UNL     1      -3.072  11.567  23.486  0.00  0.00    +0.000 OA
ATOM     26  C   UNL     1      -3.621  12.663  24.106  0.00  0.00    +0.000 A 
ATOM     27  C   UNL     1      -4.946  12.520  24.737  0.00  0.00    +0.000 C 
ENDBRANCH  15  24
ENDBRANCH   1  18
TORSDOF 3
ENDMDL
MODEL 2
REMARK VINA RESULT:      -8.8      7.981     10.900
REMARK  Name = 
REMARK  5 active torsions:
REMARK  status: ('A' for Active; 'I' for Inactive)
REMARK    1  A    between atoms: C_1  and  C_2
REMARK    2  A    between atoms: C_4  and  C_5
REMARK    3  A    between atoms: C_8  and  N_9
REMARK    4  A    between atoms: C_10  and  C_12
REMARK    5  A    between atoms: C_25  and  C_26
REMARK                            x       y       z     vdW  Elec       q    Type
REMARK                         _______ _______ _______ _____ _____    ______ ____
ROOT
ATOM      1  N   UNL     1       8.482   9.368  17.632  0.00  0.00    +0.000 N 
ATOM      2  C   UNL     1       8.976  10.165  18.657  0.00  0.00    +0.000 C 
ATOM      3  O   UNL     1       8.904   9.922  19.858  0.00  0.00    +0.000 OA
ATOM      4  H   UNL     1       8.595   9.699  16.682  0.00  0.00    +0.000 HD
ENDROOT
BRANCH   2   5
ATOM      5  C   UNL     1       9.599  11.472  18.280  0.00  0.00    +0.000 A 
ATOM      6  C   UNL     1      10.902  11.418  17.768  0.00  0.00    +0.000 A 
ATOM      7  C   UNL     1      11.567  12.582  17.380  0.00  0.00    +0.000 A 
ATOM      8  C   UNL     1      10.961  13.821  17.457  0.00  0.00    +0.000 A 
ATOM      9  N   UNL     1      11.664  14.897  17.067  0.00  0.00    +0.000 NA
ATOM     10  C   UNL     1      11.057  16.100  17.102  0.00  0.00    +0.000 A 
ATOM     11  C   UNL     1       9.750  16.282  17.508  0.00  0.00    +0.000 A 
ATOM     12  C   UNL     1       9.030  15.164  17.928  0.00  0.00    +0.000 A 
ATOM     13  C   UNL     1       9.628  13.892  17.926  0.00  0.00    +0.000 A 
ATOM     14  C   UNL     1       8.956  12.714  18.351  0.00  0.00    +0.000 A 
ENDBRANCH   2   5
BRANCH   1  18
ATOM     15  C   UNL     1       6.091   5.848  18.099  0.00  0.00    +0.000 A 
ATOM     16  C   UNL     1       7.341   5.956  18.719  0.00  0.00    +0.000 A 
ATOM     17  C   UNL     1       8.147   7.093  18.566  0.00  0.00    +0.000 A 
ATOM     18  C   UNL     1       7.727   8.173  17.792  0.00  0.00    +0.000 A 
ATOM     19  C   UNL     1       6.474   8.078  17.167  0.00  0.00    +0.000 A 
ATOM     20  C   UNL     1       5.663   6.928  17.314  0.00  0.00    +0.000 A 
BRANCH  15  24
ATOM     21  C   UNL     1       2.830   2.188  17.643  0.00  0.00    +0.000 C 
ATOM     22  C   UNL     1       3.922   3.015  18.200  0.00  0.00    +0.000 A 
ATOM     23  N   UNL     1       4.382   4.121  17.530  0.00  0.00    +0.000 NA
ATOM     24  C   UNL     1       5.317   4.625  18.314  0.00  0.00    +0.000 A 
ATOM     25  O   UNL     1       5.521   3.906  19.468  0.00  0.00    +0.000 OA
ATOM     26  C   UNL     1       4.610   2.881  19.386  0.00  0.00    +0.000 A 
ATOM     27  C   UNL     1       4.533   1.922  20.504  0.00  0.00    +0.000 C 
ENDBRANCH  15  24
ENDBRANCH   1  18
TORSDOF 3
ENDMDL
MODEL 3
REMARK VINA RESULT:      -8.6      1.369      1.976
REMARK  Name = 
REMARK  5 active torsions:
REMARK  status: ('A' for Active; 'I' for Inactive)
REMARK    1  A    between atoms: C_1  and  C_2
REMARK    2  A    between atoms: C_4  and  C_5
REMARK    3  A    between atoms: C_8  and  N_9
REMARK    4  A    between atoms: C_10  and  C_12
REMARK    5  A    between atoms: C_25  and  C_26
REMARK                            x       y       z     vdW  Elec       q    Type
REMARK                         _______ _______ _______ _____ _____    ______ ____
ROOT
ATOM      1  N   UNL     1       1.908   8.238  19.743  0.00  0.00    +0.000 N 
ATOM      2  C   UNL     1       2.136   6.885  19.954  0.00  0.00    +0.000 C 
ATOM      3  O   UNL     1       1.575   6.180  20.788  0.00  0.00    +0.000 OA
ATOM      4  H   UNL     1       2.456   8.703  19.031  0.00  0.00    +0.000 HD
ENDROOT
BRANCH   2   5
ATOM      5  C   UNL     1       3.206   6.227  19.141  0.00  0.00    +0.000 A 
ATOM      6  C   UNL     1       3.781   5.071  19.685  0.00  0.00    +0.000 A 
ATOM      7  C   UNL     1       4.781   4.379  18.999  0.00  0.00    +0.000 A 
ATOM      8  C   UNL     1       5.219   4.787  17.754  0.00  0.00    +0.000 A 
ATOM      9  N   UNL     1       6.186   4.072  17.155  0.00  0.00    +0.000 NA
ATOM     10  C   UNL     1       6.582   4.445  15.922  0.00  0.00    +0.000 A 
ATOM     11  C   UNL     1       6.040   5.516  15.240  0.00  0.00    +0.000 A 
ATOM     12  C   UNL     1       5.048   6.265  15.872  0.00  0.00    +0.000 A 
ATOM     13  C   UNL     1       4.617   5.923  17.166  0.00  0.00    +0.000 A 
ATOM     14  C   UNL     1       3.619   6.649  17.872  0.00  0.00    +0.000 A 
ENDBRANCH   2   5
BRANCH   1  18
ATOM     15  C   UNL     1      -0.658  10.847  21.965  0.00  0.00    +0.000 A 
ATOM     16  C   UNL     1       0.101   9.865  22.610  0.00  0.00    +0.000 A 
ATOM     17  C   UNL     1       0.935   8.990  21.901  0.00  0.00    +0.000 A 
ATOM     18  C   UNL     1       1.049   9.071  20.513  0.00  0.00    +0.000 A 
ATOM     19  C   UNL     1       0.294  10.055  19.855  0.00  0.00    +0.000 A 
ATOM     20  C   UNL     1      -0.555  10.932  20.570  0.00  0.00    +0.000 A 
BRANCH  15  24
ATOM     21  C   UNL     1      -4.387  12.667  24.615  0.00  0.00    +0.000 C 
ATOM     22  C   UNL     1      -3.081  12.585  23.928  0.00  0.00    +0.000 A 
ATOM     23  N   UNL     1      -2.679  11.428  23.310  0.00  0.00    +0.000 NA
ATOM     24  C   UNL     1      -1.502  11.717  22.786  0.00  0.00    +0.000 A 
ATOM     25  O   UNL     1      -1.084  13.003  23.033  0.00  0.00    +0.000 OA
ATOM     26  C   UNL     1      -2.113  13.553  23.758  0.00  0.00    +0.000 A 
ATOM     27  C   UNL     1      -2.007  14.966  24.165  0.00  0.00    +0.000 C 
ENDBRANCH  15  24
ENDBRANCH   1  18
TORSDOF 3
ENDMDL
MODEL 4
REMARK VINA RESULT:      -8.5      0.760      1.549
REMARK  Name = 
REMARK  5 active torsions:
REMARK  status: ('A' for Active; 'I' for Inactive)
REMARK    1  A    between atoms: C_1  and  C_2
REMARK    2  A    between atoms: C_4  and  C_5
REMARK    3  A    between atoms: C_8  and  N_9
REMARK    4  A    between atoms: C_10  and  C_12
REMARK    5  A    between atoms: C_25  and  C_26
REMARK                            x       y       z     vdW  Elec       q    Type
REMARK                         _______ _______ _______ _____ _____    ______ ____
ROOT
ATOM      1  N   UNL     1       1.762   8.217  20.091  0.00  0.00    +0.000 N 
ATOM      2  C   UNL     1       1.982   8.202  18.719  0.00  0.00    +0.000 C 
ATOM      3  O   UNL     1       1.534   9.007  17.908  0.00  0.00    +0.000 OA
ATOM      4  H   UNL     1       2.179   7.479  20.643  0.00  0.00    +0.000 HD
ENDROOT
BRANCH   2   5
ATOM      5  C   UNL     1       2.785   7.071  18.158  0.00  0.00    +0.000 A 
ATOM      6  C   UNL     1       2.288   5.781  18.383  0.00  0.00    +0.000 A 
ATOM      7  C   UNL     1       2.959   4.659  17.892  0.00  0.00    +0.000 A 
ATOM      8  C   UNL     1       4.116   4.778  17.148  0.00  0.00    +0.000 A 
ATOM      9  N   UNL     1       4.708   3.654  16.711  0.00  0.00    +0.000 NA
ATOM     10  C   UNL     1       5.813   3.773  15.948  0.00  0.00    +0.000 A 
ATOM     11  C   UNL     1       6.362   4.987  15.585  0.00  0.00    +0.000 A 
ATOM     12  C   UNL     1       5.753   6.151  16.055  0.00  0.00    +0.000 A 
ATOM     13  C   UNL     1       4.609   6.074  16.869  0.00  0.00    +0.000 A 
ATOM     14  C   UNL     1       3.946   7.219  17.390  0.00  0.00    +0.000 A 
ENDBRANCH   2   5
BRANCH   1  18
ATOM     15  C   UNL     1      -0.749  11.023  22.128  0.00  0.00    +0.000 A 
ATOM     16  C   UNL     1      -0.391   9.810  22.728  0.00  0.00    +0.000 A 
ATOM     17  C   UNL     1       0.416   8.871  22.072  0.00  0.00    +0.000 A 
ATOM     18  C   UNL     1       0.907   9.114  20.790  0.00  0.00    +0.000 A 
ATOM     19  C   UNL     1       0.558  10.329  20.179  0.00  0.00    +0.000 A 
ATOM     20  C   UNL     1      -0.264  11.274  20.837  0.00  0.00    +0.000 A 
BRANCH  15  24
ATOM     21  C   UNL     1      -4.611  13.218  24.249  0.00  0.00    +0.000 C 
ATOM     22  C   UNL     1      -3.220  12.968  23.817  0.00  0.00    +0.000 A 
ATOM     23  N   UNL     1      -2.887  11.826  23.133  0.00  0.00    +0.000 NA
ATOM     24  C   UNL     1      -1.595  11.945  22.886  0.00  0.00    +0.000 A 
ATOM     25  O   UNL     1      -1.039  13.099  23.383  0.00  0.00    +0.000 OA
ATOM     26  C   UNL     1      -2.096  13.752  23.969  0.00  0.00    +0.000 A 
ATOM     27  C   UNL     1      -1.852  15.072  24.580  0.00  0.00    +0.000 C 
ENDBRANCH  15  24
ENDBRANCH   1  18
TORSDOF 3
ENDMDL
MODEL 5
REMARK VINA RESULT:      -8.5      0.697      1.197
REMARK  Name = 
REMARK  5 active torsions:
REMARK  status: ('A' for Active; 'I' for Inactive)
REMARK    1  A    between atoms: C_1  and  C_2
REMARK    2  A    between atoms: C_4  and  C_5
REMARK    3  A    between atoms: C_8  and  N_9
REMARK    4  A    between atoms: C_10  and  C_12
REMARK    5  A    between atoms: C_25  and  C_26
REMARK                            x       y       z     vdW  Elec       q    Type
REMARK                         _______ _______ _______ _____ _____    ______ ____
ROOT
ATOM      1  N   UNL     1       1.590   8.526  20.354  0.00  0.00    +0.000 N 
ATOM      2  C   UNL     1       1.836   8.481  18.987  0.00  0.00    +0.000 C 
ATOM      3  O   UNL     1       1.413   9.274  18.151  0.00  0.00    +0.000 OA
ATOM      4  H   UNL     1       1.987   7.795  20.929  0.00  0.00    +0.000 HD
ENDROOT
BRANCH   2   5
ATOM      5  C   UNL     1       2.636   7.329  18.465  0.00  0.00    +0.000 A 
ATOM      6  C   UNL     1       2.318   6.065  18.979  0.00  0.00    +0.000 A 
ATOM      7  C   UNL     1       3.001   4.925  18.549  0.00  0.00    +0.000 A 
ATOM      8  C   UNL     1       3.989   4.996  17.586  0.00  0.00    +0.000 A 
ATOM      9  N   UNL     1       4.604   3.857  17.223  0.00  0.00    +0.000 NA
ATOM     10  C   UNL     1       5.537   3.920  16.253  0.00  0.00    +0.000 A 
ATOM     11  C   UNL     1       5.888   5.090  15.608  0.00  0.00    +0.000 A 
ATOM     12  C   UNL     1       5.259   6.271  15.999  0.00  0.00    +0.000 A 
ATOM     13  C   UNL     1       4.291   6.256  17.020  0.00  0.00    +0.000 A 
ATOM     14  C   UNL     1       3.621   7.423  17.475  0.00  0.00    +0.000 A 
ENDBRANCH   2   5
BRANCH   1  18
ATOM     15  C   UNL     1      -1.042  11.189  22.430  0.00  0.00    +0.000 A 
ATOM     16  C   UNL     1      -0.658  11.443  21.108  0.00  0.00    +0.000 A 
ATOM     17  C   UNL     1       0.215  10.593  20.416  0.00  0.00    +0.000 A 
ATOM     18  C   UNL     1       0.732   9.447  21.018  0.00  0.00    +0.000 A 
ATOM     19  C   UNL     1       0.352   9.180  22.343  0.00  0.00    +0.000 A 
ATOM     20  C   UNL     1      -0.522  10.042  23.046  0.00  0.00    +0.000 A 
BRANCH  15  24
ATOM     21  C   UNL     1      -5.089  13.418  24.132  0.00  0.00    +0.000 C 
ATOM     22  C   UNL     1      -3.664  13.169  23.825  0.00  0.00    +0.000 A 
ATOM     23  N   UNL     1      -3.264  12.003  23.222  0.00  0.00    +0.000 NA
ATOM     24  C   UNL     1      -1.958  12.130  23.075  0.00  0.00    +0.000 A 
ATOM     25  O   UNL     1      -1.457  13.314  23.563  0.00  0.00    +0.000 OA
ATOM     26  C   UNL     1      -2.565  13.976  24.032  0.00  0.00    +0.000 A 
ATOM     27  C   UNL     1      -2.387  15.325  24.600  0.00  0.00    +0.000 C 
ENDBRANCH  15  24
ENDBRANCH   1  18
TORSDOF 3
ENDMDL
MODEL 6
REMARK VINA RESULT:      -8.5      1.159      1.501
REMARK  Name = 
REMARK  5 active torsions:
REMARK  status: ('A' for Active; 'I' for Inactive)
REMARK    1  A    between atoms: C_1  and  C_2
REMARK    2  A    between atoms: C_4  and  C_5
REMARK    3  A    between atoms: C_8  and  N_9
REMARK    4  A    between atoms: C_10  and  C_12
REMARK    5  A    between atoms: C_25  and  C_26
REMARK                            x       y       z     vdW  Elec       q    Type
REMARK                         _______ _______ _______ _____ _____    ______ ____
ROOT
ATOM      1  N   UNL     1       1.776   8.441  19.819  0.00  0.00    +0.000 N 
ATOM      2  C   UNL     1       1.949   7.078  20.024  0.00  0.00    +0.000 C 
ATOM      3  O   UNL     1       1.334   6.385  20.829  0.00  0.00    +0.000 OA
ATOM      4  H   UNL     1       2.365   8.893  19.132  0.00  0.00    +0.000 HD
ENDROOT
BRANCH   2   5
ATOM      5  C   UNL     1       3.026   6.391  19.243  0.00  0.00    +0.000 A 
ATOM      6  C   UNL     1       3.553   5.221  19.804  0.00  0.00    +0.000 A 
ATOM      7  C   UNL     1       4.554   4.501  19.149  0.00  0.00    +0.000 A 
ATOM      8  C   UNL     1       5.041   4.897  17.918  0.00  0.00    +0.000 A 
ATOM      9  N   UNL     1       6.006   4.156  17.349  0.00  0.00    +0.000 NA
ATOM     10  C   UNL     1       6.449   4.518  16.129  0.00  0.00    +0.000 A 
ATOM     11  C   UNL     1       5.958   5.603  15.430  0.00  0.00    +0.000 A 
ATOM     12  C   UNL     1       4.967   6.379  16.032  0.00  0.00    +0.000 A 
ATOM     13  C   UNL     1       4.488   6.049  17.312  0.00  0.00    +0.000 A 
ATOM     14  C   UNL     1       3.489   6.802  17.987  0.00  0.00    +0.000 A 
ENDBRANCH   2   5
BRANCH   1  18
ATOM     15  C   UNL     1      -0.793  11.110  21.964  0.00  0.00    +0.000 A 
ATOM     16  C   UNL     1       0.011  10.187  22.641  0.00  0.00    +0.000 A 
ATOM     17  C   UNL     1       0.847   9.293  21.958  0.00  0.00    +0.000 A 
ATOM     18  C   UNL     1       0.918   9.295  20.565  0.00  0.00    +0.000 A 
ATOM     19  C   UNL     1       0.118  10.220  19.875  0.00  0.00    +0.000 A 
ATOM     20  C   UNL     1      -0.732  11.116  20.564  0.00  0.00    +0.000 A 
BRANCH  15  24
ATOM     21  C   UNL     1      -2.503  14.987  24.472  0.00  0.00    +0.000 C 
ATOM     22  C   UNL     1      -2.438  13.633  23.880  0.00  0.00    +0.000 A 
ATOM     23  N   UNL     1      -1.387  13.262  23.080  0.00  0.00    +0.000 NA
ATOM     24  C   UNL     1      -1.635  12.006  22.759  0.00  0.00    +0.000 A 
ATOM     25  O   UNL     1      -2.806  11.519  23.287  0.00  0.00    +0.000 OA
ATOM     26  C   UNL     1      -3.306  12.571  24.014  0.00  0.00    +0.000 A 
ATOM     27  C   UNL     1      -4.564  12.374  24.758  0.00  0.00    +0.000 C 
ENDBRANCH  15  24
ENDBRANCH   1  18
TORSDOF 3
ENDMDL
MODEL 7
REMARK VINA RESULT:      -8.3      1.128      1.173
REMARK  Name = 
REMARK  5 active torsions:
REMARK  status: ('A' for Active; 'I' for Inactive)
REMARK    1  A    between atoms: C_1  and  C_2
REMARK    2  A    between atoms: C_4  and  C_5
REMARK    3  A    between atoms: C_8  and  N_9
REMARK    4  A    between atoms: C_10  and  C_12
REMARK    5  A    between atoms: C_25  and  C_26
REMARK                            x       y       z     vdW  Elec       q    Type
REMARK                         _______ _______ _______ _____ _____    ______ ____
ROOT
ATOM      1  N   UNL     1       1.782   8.260  19.469  0.00  0.00    +0.000 N 
ATOM      2  C   UNL     1       2.013   6.930  19.794  0.00  0.00    +0.000 C 
ATOM      3  O   UNL     1       1.563   6.336  20.769  0.00  0.00    +0.000 OA
ATOM      4  H   UNL     1       2.232   8.629  18.642  0.00  0.00    +0.000 HD
ENDROOT
BRANCH   2   5
ATOM      5  C   UNL     1       2.946   6.155  18.917  0.00  0.00    +0.000 A 
ATOM      6  C   UNL     1       3.072   4.788  19.195  0.00  0.00    +0.000 A 
ATOM      7  C   UNL     1       3.911   3.975  18.429  0.00  0.00    +0.000 A 
ATOM      8  C   UNL     1       4.622   4.479  17.357  0.00  0.00    +0.000 A 
ATOM      9  N   UNL     1       5.410   3.638  16.667  0.00  0.00    +0.000 NA
ATOM     10  C   UNL     1       6.070   4.120  15.595  0.00  0.00    +0.000 A 
ATOM     11  C   UNL     1       5.971   5.428  15.165  0.00  0.00    +0.000 A 
ATOM     12  C   UNL     1       5.164   6.302  15.894  0.00  0.00    +0.000 A 
ATOM     13  C   UNL     1       4.471   5.847  17.030  0.00  0.00    +0.000 A 
ATOM     14  C   UNL     1       3.642   6.685  17.824  0.00  0.00    +0.000 A 
ENDBRANCH   2   5
BRANCH   1  18
ATOM     15  C   UNL     1      -0.432  10.978  21.927  0.00  0.00    +0.000 A 
ATOM     16  C   UNL     1      -0.385  11.140  20.537  0.00  0.00    +0.000 A 
ATOM     17  C   UNL     1       0.347  10.271  19.716  0.00  0.00    +0.000 A 
ATOM     18  C   UNL     1       1.054   9.198  20.254  0.00  0.00    +0.000 A 
ATOM     19  C   UNL     1       1.012   9.023  21.647  0.00  0.00    +0.000 A 
ATOM     20  C   UNL     1       0.281   9.905  22.477  0.00  0.00    +0.000 A 
BRANCH  15  24
ATOM     21  C   UNL     1      -1.868  14.925  24.496  0.00  0.00    +0.000 C 
ATOM     22  C   UNL     1      -1.914  13.597  23.848  0.00  0.00    +0.000 A 
ATOM     23  N   UNL     1      -0.857  13.139  23.101  0.00  0.00    +0.000 NA
ATOM     24  C   UNL     1      -1.222  11.932  22.706  0.00  0.00    +0.000 A 
ATOM     25  O   UNL     1      -2.474  11.563  23.134  0.00  0.00    +0.000 OA
ATOM     26  C   UNL     1      -2.903  12.637  23.875  0.00  0.00    +0.000 A 
ATOM     27  C   UNL     1      -4.224  12.557  24.526  0.00  0.00    +0.000 C 
ENDBRANCH  15  24
ENDBRANCH   1  18
TORSDOF 3
ENDMDL
MODEL 8
REMARK VINA RESULT:      -8.3      1.976     10.468
REMARK  Name = 
REMARK  5 active torsions:
REMARK  status: ('A' for Active; 'I' for Inactive)
REMARK    1  A    between atoms: C_1  and  C_2
REMARK    2  A    between atoms: C_4  and  C_5
REMARK    3  A    between atoms: C_8  and  N_9
REMARK    4  A    between atoms: C_10  and  C_12
REMARK    5  A    between atoms: C_25  and  C_26
REMARK                            x       y       z     vdW  Elec       q    Type
REMARK                         _______ _______ _______ _____ _____    ______ ____
ROOT
ATOM      1  N   UNL     1      -0.129  10.497  20.761  0.00  0.00    +0.000 N 
ATOM      2  C   UNL     1       0.306  11.698  21.305  0.00  0.00    +0.000 C 
ATOM      3  O   UNL     1       1.435  12.168  21.207  0.00  0.00    +0.000 OA
ATOM      4  H   UNL     1      -1.086  10.218  20.935  0.00  0.00    +0.000 HD
ENDROOT
BRANCH   2   5
ATOM      5  C   UNL     1      -0.664  12.470  22.145  0.00  0.00    +0.000 A 
ATOM      6  C   UNL     1      -1.824  11.792  22.539  0.00  0.00    +0.000 A 
ATOM      7  C   UNL     1      -2.787  12.422  23.331  0.00  0.00    +0.000 A 
ATOM      8  C   UNL     1      -2.619  13.718  23.777  0.00  0.00    +0.000 A 
ATOM      9  N   UNL     1      -3.589  14.259  24.534  0.00  0.00    +0.000 NA
ATOM     10  C   UNL     1      -3.405  15.508  25.005  0.00  0.00    +0.000 A 
ATOM     11  C   UNL     1      -2.270  16.256  24.758  0.00  0.00    +0.000 A 
ATOM     12  C   UNL     1      -1.274  15.697  23.959  0.00  0.00    +0.000 A 
ATOM     13  C   UNL     1      -1.431  14.403  23.430  0.00  0.00    +0.000 A 
ATOM     14  C   UNL     1      -0.462  13.778  22.600  0.00  0.00    +0.000 A 
ENDBRANCH   2   5
BRANCH   1  18
ATOM     15  C   UNL     1       2.369   7.628  18.795  0.00  0.00    +0.000 A 
ATOM     16  C   UNL     1       1.870   8.739  18.106  0.00  0.00    +0.000 A 
ATOM     17  C   UNL     1       1.037   9.681  18.726  0.00  0.00    +0.000 A 
ATOM     18  C   UNL     1       0.679   9.553  20.067  0.00  0.00    +0.000 A 
ATOM     19  C   UNL     1       1.177   8.444  20.770  0.00  0.00    +0.000 A 
ATOM     20  C   UNL     1       2.010   7.488  20.142  0.00  0.00    +0.000 A 
BRANCH  15  24
ATOM     21  C   UNL     1       5.702   5.700  15.728  0.00  0.00    +0.000 C 
ATOM     22  C   UNL     1       4.641   5.781  16.754  0.00  0.00    +0.000 A 
ATOM     23  N   UNL     1       4.176   6.994  17.194  0.00  0.00    +0.000 NA
ATOM     24  C   UNL     1       3.232   6.696  18.068  0.00  0.00    +0.000 A 
ATOM     25  O   UNL     1       3.050   5.346  18.250  0.00  0.00    +0.000 OA
ATOM     26  C   UNL     1       3.954   4.770  17.392  0.00  0.00    +0.000 A 
ATOM     27  C   UNL     1       3.999   3.298  17.305  0.00  0.00    +0.000 C 
ENDBRANCH  15  24
ENDBRANCH   1  18
TORSDOF 3
ENDMDL
MODEL 9
REMARK VINA RESULT:      -8.3      1.359      1.732
REMARK  Name = 
REMARK  5 active torsions:
REMARK  status: ('A' for Active; 'I' for Inactive)
REMARK    1  A    between atoms: C_1  and  C_2
REMARK    2  A    between atoms: C_4  and  C_5
REMARK    3  A    between atoms: C_8  and  N_9
REMARK    4  A    between atoms: C_10  and  C_12
REMARK    5  A    between atoms: C_25  and  C_26
REMARK                            x       y       z     vdW  Elec       q    Type
REMARK                         _______ _______ _______ _____ _____    ______ ____
ROOT
ATOM      1  N   UNL     1       1.794   8.166  19.446  0.00  0.00    +0.000 N 
ATOM      2  C   UNL     1       2.088   6.854  19.796  0.00  0.00    +0.000 C 
ATOM      3  O   UNL     1       1.729   6.283  20.821  0.00  0.00    +0.000 OA
ATOM      4  H   UNL     1       2.171   8.518  18.575  0.00  0.00    +0.000 HD
ENDROOT
BRANCH   2   5
ATOM      5  C   UNL     1       2.975   6.074  18.878  0.00  0.00    +0.000 A 
ATOM      6  C   UNL     1       3.026   4.690  19.087  0.00  0.00    +0.000 A 
ATOM      7  C   UNL     1       3.818   3.872  18.278  0.00  0.00    +0.000 A 
ATOM      8  C   UNL     1       4.553   4.389  17.229  0.00  0.00    +0.000 A 
ATOM      9  N   UNL     1       5.293   3.541  16.494  0.00  0.00    +0.000 NA
ATOM     10  C   UNL     1       5.976   4.039  15.445  0.00  0.00    +0.000 A 
ATOM     11  C   UNL     1       5.948   5.371  15.080  0.00  0.00    +0.000 A 
ATOM     12  C   UNL     1       5.192   6.250  15.855  0.00  0.00    +0.000 A 
ATOM     13  C   UNL     1       4.477   5.777  16.971  0.00  0.00    +0.000 A 
ATOM     14  C   UNL     1       3.697   6.619  17.809  0.00  0.00    +0.000 A 
ENDBRANCH   2   5
BRANCH   1  18
ATOM     15  C   UNL     1      -0.357  10.901  21.940  0.00  0.00    +0.000 A 
ATOM     16  C   UNL     1       0.018  11.256  20.639  0.00  0.00    +0.000 A 
ATOM     17  C   UNL     1       0.736  10.382  19.812  0.00  0.00    +0.000 A 
ATOM     18  C   UNL     1       1.101   9.111  20.253  0.00  0.00    +0.000 A 
ATOM     19  C   UNL     1       0.727   8.742  21.555  0.00  0.00    +0.000 A 
ATOM     20  C   UNL     1       0.010   9.627  22.393  0.00  0.00    +0.000 A 
BRANCH  15  24
ATOM     21  C   UNL     1      -3.942  13.275  24.337  0.00  0.00    +0.000 C 
ATOM     22  C   UNL     1      -2.608  12.977  23.774  0.00  0.00    +0.000 A 
ATOM     23  N   UNL     1      -2.365  11.795  23.122  0.00  0.00    +0.000 NA
ATOM     24  C   UNL     1      -1.106  11.877  22.733  0.00  0.00    +0.000 A 
ATOM     25  O   UNL     1      -0.485  13.046  23.104  0.00  0.00    +0.000 OA
ATOM     26  C   UNL     1      -1.465  13.748  23.763  0.00  0.00    +0.000 A 
ATOM     27  C   UNL     1      -1.141  15.094  24.271  0.00  0.00    +0.000 C 
ENDBRANCH  15  24
ENDBRANCH   1  18
TORSDOF 3
ENDMDL
