MODEL 1
REMARK VINA RESULT:      -8.7      0.000      0.000
REMARK  Name = 
REMARK  4 active torsions:
REMARK  status: ('A' for Active; 'I' for Inactive)
REMARK    1  A    between atoms: C_1  and  C_2
REMARK    2  A    between atoms: C_9  and  C_10
REMARK    3  A    between atoms: C_13  and  C_14
REMARK    4  A    between atoms: N_22  and  C_23
REMARK                            x       y       z     vdW  Elec       q    Type
REMARK                         _______ _______ _______ _____ _____    ______ ____
ROOT
ATOM      1  C   UNL     1       1.785   8.874  18.638  0.00  0.00    +0.000 A 
ATOM      2  N   UNL     1       2.173   9.357  17.451  0.00  0.00    +0.000 NA
ATOM      3  O   UNL     1       2.957   8.337  16.925  0.00  0.00    +0.000 OA
ATOM      4  C   UNL     1       2.969   7.337  17.856  0.00  0.00    +0.000 A 
ATOM      5  N   UNL     1       2.304   7.636  18.950  0.00  0.00    +0.000 NA
ENDROOT
BRANCH   1  14
ATOM      6  C   UNL     1      -0.062   9.509  23.757  0.00  0.00    +0.000 C 
ATOM      7  C   UNL     1      -0.613  10.380  22.674  0.00  0.00    +0.000 A 
ATOM      8  C   UNL     1      -1.537  11.407  22.940  0.00  0.00    +0.000 A 
ATOM      9  C   UNL     1      -2.018  12.238  21.924  0.00  0.00    +0.000 A 
ATOM     10 CL   UNL     1      -3.145  13.481  22.313  0.00  0.00    +0.000 Cl
ATOM     11  C   UNL     1      -1.595  12.095  20.597  0.00  0.00    +0.000 A 
ATOM     12  C   UNL     1      -0.666  11.082  20.304  0.00  0.00    +0.000 A 
ATOM     13  C   UNL     1       0.021  10.648  19.141  0.00  0.00    +0.000 A 
ATOM     14  C   UNL     1       0.830   9.596  19.522  0.00  0.00    +0.000 A 
ATOM     15  O   UNL     1       0.657   9.341  20.854  0.00  0.00    +0.000 OA
ATOM     16  C   UNL     1      -0.224  10.261  21.335  0.00  0.00    +0.000 A 
ENDBRANCH   1  14
BRANCH   4  17
ATOM     17  C   UNL     1       3.721   6.096  17.475  0.00  0.00    +0.000 C 
ATOM     18  C   UNL     1       5.162   6.458  17.062  0.00  0.00    +0.000 C 
ATOM     19  N   UNL     1       6.141   6.157  18.066  0.00  0.00    +0.000 N 
ATOM     20  C   UNL     1       7.460   6.475  18.072  0.00  0.00    +0.000 A 
ATOM     21  N   UNL     1       8.030   5.920  19.117  0.00  0.00    +0.000 NA
ATOM     22  N   UNL     1       7.055   5.231  19.807  0.00  0.00    +0.000 NA
ATOM     23  C   UNL     1       5.917   5.385  19.162  0.00  0.00    +0.000 A 
ATOM     24  C   UNL     1       4.580   4.859  19.511  0.00  0.00    +0.000 C 
ATOM     25  N   UNL     1       3.533   5.054  18.501  0.00  0.00    +0.000 NA
ATOM     26  C   UNL     1       2.923   3.827  18.023  0.00  0.00    +0.000 C 
ENDBRANCH   4  17
TORSDOF 2
ENDMDL
MODEL 2
REMARK VINA RESULT:      -8.7      2.115      3.264
REMARK  Name = 
REMARK  4 active torsions:
REMARK  status: ('A' for Active; 'I' for Inactive)
REMARK    1  A    between atoms: C_1  and  C_2
REMARK    2  A    between atoms: C_9  and  C_10
REMARK    3  A    between atoms: C_13  and  C_14
REMARK    4  A    between atoms: N_22  and  C_23
REMARK                            x       y       z     vdW  Elec       q    Type
REMARK                         _______ _______ _______ _____ _____    ______ ____
ROOT
ATOM      1  C   UNL     1       2.776   6.555  19.481  0.00  0.00    +0.000 A 
ATOM      2  N   UNL     1       2.439   5.356  19.974  0.00  0.00    +0.000 NA
ATOM      3  O   UNL     1       3.555   4.571  19.707  0.00  0.00    +0.000 OA
ATOM      4  C   UNL     1       4.455   5.377  19.072  0.00  0.00    +0.000 A 
ATOM      5  N   UNL     1       4.008   6.596  18.864  0.00  0.00    +0.000 NA
ENDROOT
BRANCH   1  14
ATOM      6  C   UNL     1      -0.243   9.551  22.935  0.00  0.00    +0.000 C 
ATOM      7  C   UNL     1      -0.078  10.017  21.524  0.00  0.00    +0.000 A 
ATOM      8  C   UNL     1      -0.613  11.238  21.075  0.00  0.00    +0.000 A 
ATOM      9  C   UNL     1      -0.424  11.679  19.762  0.00  0.00    +0.000 A 
ATOM     10 CL   UNL     1      -1.100  13.186  19.271  0.00  0.00    +0.000 Cl
ATOM     11  C   UNL     1       0.318  10.935  18.837  0.00  0.00    +0.000 A 
ATOM     12  C   UNL     1       0.871   9.714  19.261  0.00  0.00    +0.000 A 
ATOM     13  C   UNL     1       1.690   8.717  18.671  0.00  0.00    +0.000 A 
ATOM     14  C   UNL     1       1.911   7.755  19.636  0.00  0.00    +0.000 A 
ATOM     15  O   UNL     1       1.248   8.095  20.783  0.00  0.00    +0.000 OA
ATOM     16  C   UNL     1       0.645   9.295  20.567  0.00  0.00    +0.000 A 
ENDBRANCH   1  14
BRANCH   4  17
ATOM     17  C   UNL     1       5.774   4.747  18.732  0.00  0.00    +0.000 C 
ATOM     18  C   UNL     1       5.611   3.802  17.524  0.00  0.00    +0.000 C 
ATOM     19  N   UNL     1       6.107   4.349  16.295  0.00  0.00    +0.000 N 
ATOM     20  C   UNL     1       5.991   3.837  15.043  0.00  0.00    +0.000 A 
ATOM     21  N   UNL     1       6.679   4.584  14.209  0.00  0.00    +0.000 NA
ATOM     22  N   UNL     1       7.249   5.606  14.938  0.00  0.00    +0.000 NA
ATOM     23  C   UNL     1       6.893   5.453  16.198  0.00  0.00    +0.000 A 
ATOM     24  C   UNL     1       7.230   6.300  17.361  0.00  0.00    +0.000 C 
ATOM     25  N   UNL     1       6.828   5.776  18.671  0.00  0.00    +0.000 NA
ATOM     26  C   UNL     1       7.923   5.587  19.604  0.00  0.00    +0.000 C 
ENDBRANCH   4  17
TORSDOF 2
ENDMDL
MODEL 3
REMARK VINA RESULT:      -8.7      1.427      1.616
REMARK  Name = 
REMARK  4 active torsions:
REMARK  status: ('A' for Active; 'I' for Inactive)
REMARK    1  A    between atoms: C_1  and  C_2
REMARK    2  A    between atoms: C_9  and  C_10
REMARK    3  A    between atoms: C_13  and  C_14
REMARK    4  A    between atoms: N_22  and  C_23
REMARK                            x       y       z     vdW  Elec       q    Type
REMARK                         _______ _______ _______ _____ _____    ______ ____
ROOT
ATOM      1  C   UNL     1       2.186   8.014  18.735  0.00  0.00    +0.000 A 
ATOM      2  N   UNL     1       2.912   8.337  17.657  0.00  0.00    +0.000 NA
ATOM      3  O   UNL     1       3.544   7.144  17.322  0.00  0.00    +0.000 OA
ATOM      4  C   UNL     1       3.137   6.218  18.240  0.00  0.00    +0.000 A 
ATOM      5  N   UNL     1       2.339   6.712  19.160  0.00  0.00    +0.000 NA
ENDROOT
BRANCH   1  14
ATOM      6  C   UNL     1      -0.153   9.587  23.433  0.00  0.00    +0.000 C 
ATOM      7  C   UNL     1      -0.430  10.367  22.189  0.00  0.00    +0.000 A 
ATOM      8  C   UNL     1      -1.214  11.535  22.199  0.00  0.00    +0.000 A 
ATOM      9  C   UNL     1      -1.438  12.275  21.034  0.00  0.00    +0.000 A 
ATOM     10 CL   UNL     1      -2.404  13.699  21.111  0.00  0.00    +0.000 Cl
ATOM     11  C   UNL     1      -0.883  11.897  19.806  0.00  0.00    +0.000 A 
ATOM     12  C   UNL     1      -0.089  10.737  19.768  0.00  0.00    +0.000 A 
ATOM     13  C   UNL     1       0.662  10.060  18.772  0.00  0.00    +0.000 A 
ATOM     14  C   UNL     1       1.250   8.971  19.384  0.00  0.00    +0.000 A 
ATOM     15  O   UNL     1       0.880   8.928  20.700  0.00  0.00    +0.000 OA
ATOM     16  C   UNL     1       0.097  10.014  20.940  0.00  0.00    +0.000 A 
ENDBRANCH   1  14
BRANCH   4  17
ATOM     17  C   UNL     1       3.658   4.826  18.041  0.00  0.00    +0.000 C 
ATOM     18  C   UNL     1       4.247   4.681  16.622  0.00  0.00    +0.000 C 
ATOM     19  N   UNL     1       5.681   4.700  16.591  0.00  0.00    +0.000 N 
ATOM     20  C   UNL     1       6.495   4.732  15.506  0.00  0.00    +0.000 A 
ATOM     21  N   UNL     1       7.743   4.625  15.901  0.00  0.00    +0.000 NA
ATOM     22  N   UNL     1       7.736   4.527  17.276  0.00  0.00    +0.000 NA
ATOM     23  C   UNL     1       6.483   4.576  17.681  0.00  0.00    +0.000 A 
ATOM     24  C   UNL     1       5.956   4.529  19.061  0.00  0.00    +0.000 C 
ATOM     25  N   UNL     1       4.498   4.429  19.185  0.00  0.00    +0.000 NA
ATOM     26  C   UNL     1       4.036   3.258  19.908  0.00  0.00    +0.000 C 
ENDBRANCH   4  17
TORSDOF 2
ENDMDL
MODEL 4
REMARK VINA RESULT:      -8.5      1.471      2.180
REMARK  Name = 
REMARK  4 active torsions:
REMARK  status: ('A' for Active; 'I' for Inactive)
REMARK    1  A    between atoms: C_1  and  C_2
REMARK    2  A    between atoms: C_9  and  C_10
REMARK    3  A    between atoms: C_13  and  C_14
REMARK    4  A    between atoms: N_22  and  C_23
REMARK                            x       y       z     vdW  Elec       q    Type
REMARK                         _______ _______ _______ _____ _____    ______ ____
ROOT
ATOM      1  C   UNL     1       2.127   8.118  18.932  0.00  0.00    +0.000 A 
ATOM      2  N   UNL     1       2.754   8.420  17.788  0.00  0.00    +0.000 NA
ATOM      3  O   UNL     1       3.343   7.217  17.413  0.00  0.00    +0.000 OA
ATOM      4  C   UNL     1       3.015   6.307  18.377  0.00  0.00    +0.000 A 
ATOM      5  N   UNL     1       2.308   6.820  19.360  0.00  0.00    +0.000 NA
ENDROOT
BRANCH   1  14
ATOM      6  C   UNL     1      -1.120  12.506  18.463  0.00  0.00    +0.000 C 
ATOM      7  C   UNL     1      -0.958  11.864  19.803  0.00  0.00    +0.000 A 
ATOM      8  C   UNL     1      -1.669  12.306  20.934  0.00  0.00    +0.000 A 
ATOM      9  C   UNL     1      -1.534  11.676  22.174  0.00  0.00    +0.000 A 
ATOM     10 CL   UNL     1      -2.435  12.261  23.521  0.00  0.00    +0.000 Cl
ATOM     11  C   UNL     1      -0.696  10.568  22.348  0.00  0.00    +0.000 A 
ATOM     12  C   UNL     1       0.021  10.100  21.233  0.00  0.00    +0.000 A 
ATOM     13  C   UNL     1       0.911   9.023  20.984  0.00  0.00    +0.000 A 
ATOM     14  C   UNL     1       1.262   9.092  19.651  0.00  0.00    +0.000 A 
ATOM     15  O   UNL     1       0.655  10.171  19.071  0.00  0.00    +0.000 OA
ATOM     16  C   UNL     1      -0.121  10.763  20.019  0.00  0.00    +0.000 A 
ENDBRANCH   1  14
BRANCH   4  17
ATOM     17  C   UNL     1       3.504   4.907  18.150  0.00  0.00    +0.000 C 
ATOM     18  C   UNL     1       4.269   4.826  16.813  0.00  0.00    +0.000 C 
ATOM     19  N   UNL     1       5.694   4.780  16.968  0.00  0.00    +0.000 N 
ATOM     20  C   UNL     1       6.645   4.844  16.002  0.00  0.00    +0.000 A 
ATOM     21  N   UNL     1       7.824   4.654  16.547  0.00  0.00    +0.000 NA
ATOM     22  N   UNL     1       7.633   4.468  17.900  0.00  0.00    +0.000 NA
ATOM     23  C   UNL     1       6.340   4.549  18.142  0.00  0.00    +0.000 A 
ATOM     24  C   UNL     1       5.635   4.439  19.436  0.00  0.00    +0.000 C 
ATOM     25  N   UNL     1       4.170   4.399  19.363  0.00  0.00    +0.000 NA
ATOM     26  C   UNL     1       3.572   3.207  19.936  0.00  0.00    +0.000 C 
ENDBRANCH   4  17
TORSDOF 2
ENDMDL
MODEL 5
REMARK VINA RESULT:      -8.5      1.786      2.619
REMARK  Name = 
REMARK  4 active torsions:
REMARK  status: ('A' for Active; 'I' for Inactive)
REMARK    1  A    between atoms: C_1  and  C_2
REMARK    2  A    between atoms: C_9  and  C_10
REMARK    3  A    between atoms: C_13  and  C_14
REMARK    4  A    between atoms: N_22  and  C_23
REMARK                            x       y       z     vdW  Elec       q    Type
REMARK                         _______ _______ _______ _____ _____    ______ ____
ROOT
ATOM      1  C   UNL     1       2.060   8.253  18.192  0.00  0.00    +0.000 A 
ATOM      2  N   UNL     1       3.132   8.535  17.439  0.00  0.00    +0.000 NA
ATOM      3  O   UNL     1       3.780   7.310  17.326  0.00  0.00    +0.000 OA
ATOM      4  C   UNL     1       3.034   6.409  18.030  0.00  0.00    +0.000 A 
ATOM      5  N   UNL     1       1.991   6.946  18.623  0.00  0.00    +0.000 NA
ENDROOT
BRANCH   1  14
ATOM      6  C   UNL     1      -2.635  10.531  16.524  0.00  0.00    +0.000 C 
ATOM      7  C   UNL     1      -2.049  10.953  17.834  0.00  0.00    +0.000 A 
ATOM      8  C   UNL     1      -2.702  11.863  18.685  0.00  0.00    +0.000 A 
ATOM      9  C   UNL     1      -2.161  12.223  19.922  0.00  0.00    +0.000 A 
ATOM     10 CL   UNL     1      -3.009  13.339  20.923  0.00  0.00    +0.000 Cl
ATOM     11  C   UNL     1      -0.950  11.687  20.378  0.00  0.00    +0.000 A 
ATOM     12  C   UNL     1      -0.280  10.769  19.551  0.00  0.00    +0.000 A 
ATOM     13  C   UNL     1       0.905   9.995  19.654  0.00  0.00    +0.000 A 
ATOM     14  C   UNL     1       1.006   9.259  18.491  0.00  0.00    +0.000 A 
ATOM     15  O   UNL     1      -0.041   9.560  17.664  0.00  0.00    +0.000 OA
ATOM     16  C   UNL     1      -0.836  10.449  18.318  0.00  0.00    +0.000 A 
ENDBRANCH   1  14
BRANCH   4  17
ATOM     17  C   UNL     1       3.522   4.990  18.002  0.00  0.00    +0.000 C 
ATOM     18  C   UNL     1       4.353   4.743  16.727  0.00  0.00    +0.000 C 
ATOM     19  N   UNL     1       5.768   4.713  16.960  0.00  0.00    +0.000 N 
ATOM     20  C   UNL     1       6.767   4.654  16.044  0.00  0.00    +0.000 A 
ATOM     21  N   UNL     1       7.916   4.530  16.669  0.00  0.00    +0.000 NA
ATOM     22  N   UNL     1       7.654   4.512  18.022  0.00  0.00    +0.000 NA
ATOM     23  C   UNL     1       6.351   4.626  18.185  0.00  0.00    +0.000 A 
ATOM     24  C   UNL     1       5.579   4.677  19.444  0.00  0.00    +0.000 C 
ATOM     25  N   UNL     1       4.119   4.633  19.301  0.00  0.00    +0.000 NA
ATOM     26  C   UNL     1       3.483   3.522  19.984  0.00  0.00    +0.000 C 
ENDBRANCH   4  17
TORSDOF 2
ENDMDL
MODEL 6
REMARK VINA RESULT:      -8.4      2.327      3.698
REMARK  Name = 
REMARK  4 active torsions:
REMARK  status: ('A' for Active; 'I' for Inactive)
REMARK    1  A    between atoms: C_1  and  C_2
REMARK    2  A    between atoms: C_9  and  C_10
REMARK    3  A    between atoms: C_13  and  C_14
REMARK    4  A    between atoms: N_22  and  C_23
REMARK                            x       y       z     vdW  Elec       q    Type
REMARK                         _______ _______ _______ _____ _____    ______ ____
ROOT
ATOM      1  C   UNL     1       2.023   8.510  18.261  0.00  0.00    +0.000 A 
ATOM      2  N   UNL     1       2.892   8.691  17.258  0.00  0.00    +0.000 NA
ATOM      3  O   UNL     1       3.671   7.540  17.292  0.00  0.00    +0.000 OA
ATOM      4  C   UNL     1       3.195   6.779  18.321  0.00  0.00    +0.000 A 
ATOM      5  N   UNL     1       2.212   7.351  18.981  0.00  0.00    +0.000 NA
ENDROOT
BRANCH   1  14
ATOM      6  C   UNL     1      -2.821  10.436  16.572  0.00  0.00    +0.000 C 
ATOM      7  C   UNL     1      -2.248  10.939  17.858  0.00  0.00    +0.000 A 
ATOM      8  C   UNL     1      -2.947  11.838  18.685  0.00  0.00    +0.000 A 
ATOM      9  C   UNL     1      -2.416  12.276  19.901  0.00  0.00    +0.000 A 
ATOM     10 CL   UNL     1      -3.322  13.373  20.873  0.00  0.00    +0.000 Cl
ATOM     11  C   UNL     1      -1.171  11.831  20.361  0.00  0.00    +0.000 A 
ATOM     12  C   UNL     1      -0.453  10.927  19.558  0.00  0.00    +0.000 A 
ATOM     13  C   UNL     1       0.777  10.230  19.675  0.00  0.00    +0.000 A 
ATOM     14  C   UNL     1       0.912   9.460  18.537  0.00  0.00    +0.000 A 
ATOM     15  O   UNL     1      -0.160   9.666  17.713  0.00  0.00    +0.000 OA
ATOM     16  C   UNL     1      -1.002  10.528  18.345  0.00  0.00    +0.000 A 
ENDBRANCH   1  14
BRANCH   4  17
ATOM     17  C   UNL     1       3.859   5.447  18.514  0.00  0.00    +0.000 C 
ATOM     18  C   UNL     1       3.720   4.995  19.982  0.00  0.00    +0.000 C 
ATOM     19  N   UNL     1       2.725   3.981  20.179  0.00  0.00    +0.000 N 
ATOM     20  C   UNL     1       2.266   3.474  21.351  0.00  0.00    +0.000 A 
ATOM     21  N   UNL     1       1.441   2.485  21.097  0.00  0.00    +0.000 NA
ATOM     22  N   UNL     1       1.359   2.352  19.728  0.00  0.00    +0.000 NA
ATOM     23  C   UNL     1       2.139   3.265  19.184  0.00  0.00    +0.000 A 
ATOM     24  C   UNL     1       2.377   3.541  17.752  0.00  0.00    +0.000 C 
ATOM     25  N   UNL     1       3.437   4.512  17.456  0.00  0.00    +0.000 NA
ATOM     26  C   UNL     1       4.513   3.993  16.631  0.00  0.00    +0.000 C 
ENDBRANCH   4  17
TORSDOF 2
ENDMDL
MODEL 7
REMARK VINA RESULT:      -8.4      2.160      3.448
REMARK  Name = 
REMARK  4 active torsions:
REMARK  status: ('A' for Active; 'I' for Inactive)
REMARK    1  A    between atoms: C_1  and  C_2
REMARK    2  A    between atoms: C_9  and  C_10
REMARK    3  A    between atoms: C_13  and  C_14
REMARK    4  A    between atoms: N_22  and  C_23
REMARK                            x       y       z     vdW  Elec       q    Type
REMARK                         _______ _______ _______ _____ _____    ______ ____
ROOT
ATOM      1  C   UNL     1       2.669   6.652  19.218  0.00  0.00    +0.000 A 
ATOM      2  N   UNL     1       2.105   5.580  18.647  0.00  0.00    +0.000 NA
ATOM      3  O   UNL     1       3.194   4.795  18.282  0.00  0.00    +0.000 OA
ATOM      4  C   UNL     1       4.311   5.480  18.666  0.00  0.00    +0.000 A 
ATOM      5  N   UNL     1       4.048   6.650  19.202  0.00  0.00    +0.000 NA
ENDROOT
BRANCH   1  14
ATOM      6  C   UNL     1       0.257  11.525  18.545  0.00  0.00    +0.000 C 
ATOM      7  C   UNL     1       0.114  10.820  19.855  0.00  0.00    +0.000 A 
ATOM      8  C   UNL     1      -0.680  11.334  20.896  0.00  0.00    +0.000 A 
ATOM      9  C   UNL     1      -0.834  10.648  22.105  0.00  0.00    +0.000 A 
ATOM     10 CL   UNL     1      -1.824  11.325  23.341  0.00  0.00    +0.000 Cl
ATOM     11  C   UNL     1      -0.215   9.413  22.332  0.00  0.00    +0.000 A 
ATOM     12  C   UNL     1       0.579   8.872  21.305  0.00  0.00    +0.000 A 
ATOM     13  C   UNL     1       1.316   7.673  21.124  0.00  0.00    +0.000 A 
ATOM     14  C   UNL     1       1.870   7.729  19.861  0.00  0.00    +0.000 A 
ATOM     15  O   UNL     1       1.534   8.912  19.264  0.00  0.00    +0.000 OA
ATOM     16  C   UNL     1       0.727   9.590  20.124  0.00  0.00    +0.000 A 
ENDBRANCH   1  14
BRANCH   4  17
ATOM     17  C   UNL     1       5.620   4.789  18.416  0.00  0.00    +0.000 C 
ATOM     18  C   UNL     1       5.493   3.838  17.208  0.00  0.00    +0.000 C 
ATOM     19  N   UNL     1       6.090   4.350  16.009  0.00  0.00    +0.000 N 
ATOM     20  C   UNL     1       6.033   3.830  14.757  0.00  0.00    +0.000 A 
ATOM     21  N   UNL     1       6.805   4.537  13.963  0.00  0.00    +0.000 NA
ATOM     22  N   UNL     1       7.371   5.541  14.719  0.00  0.00    +0.000 NA
ATOM     23  C   UNL     1       6.929   5.418  15.954  0.00  0.00    +0.000 A 
ATOM     24  C   UNL     1       7.228   6.262  17.130  0.00  0.00    +0.000 C 
ATOM     25  N   UNL     1       6.720   5.770  18.416  0.00  0.00    +0.000 NA
ATOM     26  C   UNL     1       7.744   5.544  19.419  0.00  0.00    +0.000 C 
ENDBRANCH   4  17
TORSDOF 2
ENDMDL
MODEL 8
REMARK VINA RESULT:      -8.3      1.971      3.763
REMARK  Name = 
REMARK  4 active torsions:
REMARK  status: ('A' for Active; 'I' for Inactive)
REMARK    1  A    between atoms: C_1  and  C_2
REMARK    2  A    between atoms: C_9  and  C_10
REMARK    3  A    between atoms: C_13  and  C_14
REMARK    4  A    between atoms: N_22  and  C_23
REMARK                            x       y       z     vdW  Elec       q    Type
REMARK                         _______ _______ _______ _____ _____    ______ ____
ROOT
ATOM      1  C   UNL     1       1.870   8.605  18.498  0.00  0.00    +0.000 A 
ATOM      2  N   UNL     1       2.667   8.639  17.422  0.00  0.00    +0.000 NA
ATOM      3  O   UNL     1       3.512   7.550  17.609  0.00  0.00    +0.000 OA
ATOM      4  C   UNL     1       3.141   6.969  18.788  0.00  0.00    +0.000 A 
ATOM      5  N   UNL     1       2.168   7.607  19.400  0.00  0.00    +0.000 NA
ENDROOT
BRANCH   1  14
ATOM      6  C   UNL     1      -2.921  10.333  16.479  0.00  0.00    +0.000 C 
ATOM      7  C   UNL     1      -2.429  10.906  17.769  0.00  0.00    +0.000 A 
ATOM      8  C   UNL     1      -3.190  11.821  18.518  0.00  0.00    +0.000 A 
ATOM      9  C   UNL     1      -2.734  12.324  19.740  0.00  0.00    +0.000 A 
ATOM     10 CL   UNL     1      -3.714  13.439  20.614  0.00  0.00    +0.000 Cl
ATOM     11  C   UNL     1      -1.504  11.932  20.282  0.00  0.00    +0.000 A 
ATOM     12  C   UNL     1      -0.725  11.012  19.558  0.00  0.00    +0.000 A 
ATOM     13  C   UNL     1       0.513  10.352  19.768  0.00  0.00    +0.000 A 
ATOM     14  C   UNL     1       0.725   9.538  18.674  0.00  0.00    +0.000 A 
ATOM     15  O   UNL     1      -0.307   9.681  17.788  0.00  0.00    +0.000 OA
ATOM     16  C   UNL     1      -1.200  10.548  18.337  0.00  0.00    +0.000 A 
ENDBRANCH   1  14
BRANCH   4  17
ATOM     17  C   UNL     1       3.891   5.727  19.171  0.00  0.00    +0.000 C 
ATOM     18  C   UNL     1       2.996   4.815  20.035  0.00  0.00    +0.000 C 
ATOM     19  N   UNL     1       2.465   3.690  19.322  0.00  0.00    +0.000 N 
ATOM     20  C   UNL     1       1.546   2.786  19.748  0.00  0.00    +0.000 A 
ATOM     21  N   UNL     1       1.414   1.847  18.840  0.00  0.00    +0.000 NA
ATOM     22  N   UNL     1       2.264   2.153  17.798  0.00  0.00    +0.000 NA
ATOM     23  C   UNL     1       2.892   3.271  18.102  0.00  0.00    +0.000 A 
ATOM     24  C   UNL     1       3.887   4.017  17.303  0.00  0.00    +0.000 C 
ATOM     25  N   UNL     1       4.540   5.141  17.984  0.00  0.00    +0.000 NA
ATOM     26  C   UNL     1       5.985   5.035  18.066  0.00  0.00    +0.000 C 
ENDBRANCH   4  17
TORSDOF 2
ENDMDL
MODEL 9
REMARK VINA RESULT:      -8.2      1.898      2.936
REMARK  Name = 
REMARK  4 active torsions:
REMARK  status: ('A' for Active; 'I' for Inactive)
REMARK    1  A    between atoms: C_1  and  C_2
REMARK    2  A    between atoms: C_9  and  C_10
REMARK    3  A    between atoms: C_13  and  C_14
REMARK    4  A    between atoms: N_22  and  C_23
REMARK                            x       y       z     vdW  Elec       q    Type
REMARK                         _______ _______ _______ _____ _____    ______ ____
ROOT
ATOM      1  C   UNL     1       1.947   8.597  18.730  0.00  0.00    +0.000 A 
ATOM      2  N   UNL     1       2.461   8.750  17.502  0.00  0.00    +0.000 NA
ATOM      3  O   UNL     1       3.237   7.609  17.331  0.00  0.00    +0.000 OA
ATOM      4  C   UNL     1       3.118   6.882  18.480  0.00  0.00    +0.000 A 
ATOM      5  N   UNL     1       2.375   7.467  19.393  0.00  0.00    +0.000 NA
ENDROOT
BRANCH   1  14
ATOM      6  C   UNL     1      -0.702  10.195  23.252  0.00  0.00    +0.000 C 
ATOM      7  C   UNL     1      -0.918  10.950  21.980  0.00  0.00    +0.000 A 
ATOM      8  C   UNL     1      -1.724  12.101  21.923  0.00  0.00    +0.000 A 
ATOM      9  C   UNL     1      -1.892  12.818  20.735  0.00  0.00    +0.000 A 
ATOM     10 CL   UNL     1      -2.888  14.223  20.729  0.00  0.00    +0.000 Cl
ATOM     11  C   UNL     1      -1.256  12.432  19.549  0.00  0.00    +0.000 A 
ATOM     12  C   UNL     1      -0.438  11.289  19.578  0.00  0.00    +0.000 A 
ATOM     13  C   UNL     1       0.384  10.611  18.641  0.00  0.00    +0.000 A 
ATOM     14  C   UNL     1       0.955   9.545  19.305  0.00  0.00    +0.000 A 
ATOM     15  O   UNL     1       0.508   9.514  20.597  0.00  0.00    +0.000 OA
ATOM     16  C   UNL     1      -0.310  10.588  20.771  0.00  0.00    +0.000 A 
ENDBRANCH   1  14
BRANCH   4  17
ATOM     17  C   UNL     1       3.838   5.566  18.500  0.00  0.00    +0.000 C 
ATOM     18  C   UNL     1       3.778   4.953  19.915  0.00  0.00    +0.000 C 
ATOM     19  N   UNL     1       2.830   3.884  20.038  0.00  0.00    +0.000 N 
ATOM     20  C   UNL     1       2.441   3.235  21.164  0.00  0.00    +0.000 A 
ATOM     21  N   UNL     1       1.642   2.246  20.835  0.00  0.00    +0.000 NA
ATOM     22  N   UNL     1       1.507   2.258  19.464  0.00  0.00    +0.000 NA
ATOM     23  C   UNL     1       2.229   3.255  18.993  0.00  0.00    +0.000 A 
ATOM     24  C   UNL     1       2.396   3.694  17.592  0.00  0.00    +0.000 C 
ATOM     25  N   UNL     1       3.406   4.733  17.363  0.00  0.00    +0.000 NA
ATOM     26  C   UNL     1       4.464   4.351  16.446  0.00  0.00    +0.000 C 
ENDBRANCH   4  17
TORSDOF 2
ENDMDL
