MODEL 1
REMARK VINA RESULT:      -8.7      0.000      0.000
REMARK  Name = 
REMARK  3 active torsions:
REMARK  status: ('A' for Active; 'I' for Inactive)
REMARK    1  A    between atoms: C_8  and  S_9
REMARK    2  A    between atoms: S_9  and  N_12
REMARK    3  A    between atoms: N_12  and  C_13
REMARK                            x       y       z     vdW  Elec       q    Type
REMARK                         _______ _______ _______ _____ _____    ______ ____
ROOT
ATOM      1  S   UNL     1       1.924   4.425  20.729  0.00  0.00    +0.000 S 
ATOM      2  O   UNL     1       0.565   4.397  20.224  0.00  0.00    +0.000 OA
ATOM      3  O   UNL     1       2.335   3.540  21.796  0.00  0.00    +0.000 OA
ENDROOT
BRANCH   1  11
ATOM      4  O   UNL     1       6.501   3.898  14.107  0.00  0.00    +0.000 OA
ATOM      5  C   UNL     1       6.382   4.151  15.314  0.00  0.00    +0.000 C 
ATOM      6  C   UNL     1       7.312   5.163  15.934  0.00  0.00    +0.000 C 
ATOM      7  C   UNL     1       6.873   5.923  17.165  0.00  0.00    +0.000 C 
ATOM      8  C   UNL     1       6.580   4.998  18.328  0.00  0.00    +0.000 C 
ATOM      9  C   UNL     1       5.184   4.449  18.243  0.00  0.00    +0.000 A 
ATOM     10  C   UNL     1       4.290   4.697  19.311  0.00  0.00    +0.000 A 
ATOM     11  C   UNL     1       3.001   4.136  19.332  0.00  0.00    +0.000 A 
ATOM     12  C   UNL     1       2.609   3.283  18.309  0.00  0.00    +0.000 A 
ATOM     13  C   UNL     1       3.493   3.031  17.252  0.00  0.00    +0.000 A 
ATOM     14  C   UNL     1       4.760   3.644  17.183  0.00  0.00    +0.000 A 
ATOM     15  N   UNL     1       5.462   3.418  15.988  0.00  0.00    +0.000 N 
ATOM     16  H   UNL     1       5.036   2.757  15.347  0.00  0.00    +0.000 HD
ENDBRANCH   1  11
BRANCH   1  17
ATOM     17  N   UNL     1       2.206   5.992  21.233  0.00  0.00    +0.000 NA
ATOM     18  H   UNL     1       3.129   6.122  21.647  0.00  0.00    +0.000 HD
BRANCH  17  19
ATOM     19  C   UNL     1       1.535   7.104  20.568  0.00  0.00    +0.000 C 
ATOM     20  C   UNL     1       2.232   7.694  19.318  0.00  0.00    +0.000 C 
ATOM     21  C   UNL     1       1.372   8.922  19.172  0.00  0.00    +0.000 A 
ATOM     22  C   UNL     1       0.910   9.507  18.013  0.00  0.00    +0.000 A 
ATOM     23  C   UNL     1      -0.276  10.229  18.108  0.00  0.00    +0.000 A 
ATOM     24  C   UNL     1      -0.894  10.361  19.355  0.00  0.00    +0.000 A 
ATOM     25  N   UNL     1      -0.372   9.909  20.520  0.00  0.00    +0.000 NA
ATOM     26  C   UNL     1       0.773   9.226  20.396  0.00  0.00    +0.000 A 
ATOM     27  C   UNL     1       1.346   8.333  21.468  0.00  0.00    +0.000 C 
ENDBRANCH  17  19
ENDBRANCH   1  17
TORSDOF 3
ENDMDL
MODEL 2
REMARK VINA RESULT:      -8.3      2.895      4.525
REMARK  Name = 
REMARK  3 active torsions:
REMARK  status: ('A' for Active; 'I' for Inactive)
REMARK    1  A    between atoms: C_8  and  S_9
REMARK    2  A    between atoms: S_9  and  N_12
REMARK    3  A    between atoms: N_12  and  C_13
REMARK                            x       y       z     vdW  Elec       q    Type
REMARK                         _______ _______ _______ _____ _____    ______ ____
ROOT
ATOM      1  S   UNL     1       0.868   9.046  21.612  0.00  0.00    +0.000 S 
ATOM      2  O   UNL     1      -0.473   8.681  22.024  0.00  0.00    +0.000 OA
ATOM      3  O   UNL     1       1.877   9.381  22.591  0.00  0.00    +0.000 OA
ENDROOT
BRANCH   1  11
ATOM      4  O   UNL     1       4.373   2.917  17.708  0.00  0.00    +0.000 OA
ATOM      5  C   UNL     1       3.529   3.337  18.512  0.00  0.00    +0.000 C 
ATOM      6  C   UNL     1       3.091   2.433  19.636  0.00  0.00    +0.000 C 
ATOM      7  C   UNL     1       2.561   3.038  20.916  0.00  0.00    +0.000 C 
ATOM      8  C   UNL     1       1.325   3.879  20.677  0.00  0.00    +0.000 C 
ATOM      9  C   UNL     1       1.693   5.270  20.243  0.00  0.00    +0.000 A 
ATOM     10  C   UNL     1       1.255   6.364  21.026  0.00  0.00    +0.000 A 
ATOM     11  C   UNL     1       1.491   7.692  20.625  0.00  0.00    +0.000 A 
ATOM     12  C   UNL     1       2.124   7.939  19.415  0.00  0.00    +0.000 A 
ATOM     13  C   UNL     1       2.555   6.858  18.635  0.00  0.00    +0.000 A 
ATOM     14  C   UNL     1       2.390   5.525  19.059  0.00  0.00    +0.000 A 
ATOM     15  N   UNL     1       3.014   4.563  18.248  0.00  0.00    +0.000 N 
ATOM     16  H   UNL     1       3.426   4.915  17.390  0.00  0.00    +0.000 HD
ENDBRANCH   1  11
BRANCH   1  17
ATOM     17  N   UNL     1       0.705  10.352  20.583  0.00  0.00    +0.000 NA
ATOM     18  H   UNL     1       1.597  10.703  20.235  0.00  0.00    +0.000 HD
BRANCH  17  19
ATOM     19  C   UNL     1      -0.508  10.507  19.788  0.00  0.00    +0.000 C 
ATOM     20  C   UNL     1      -0.398  10.195  18.275  0.00  0.00    +0.000 C 
ATOM     21  C   UNL     1      -1.735  10.750  17.860  0.00  0.00    +0.000 A 
ATOM     22  C   UNL     1      -2.614  10.246  16.927  0.00  0.00    +0.000 A 
ATOM     23  C   UNL     1      -3.960  10.550  17.109  0.00  0.00    +0.000 A 
ATOM     24  C   UNL     1      -4.333  11.371  18.176  0.00  0.00    +0.000 A 
ATOM     25  N   UNL     1      -3.462  11.984  19.013  0.00  0.00    +0.000 NA
ATOM     26  C   UNL     1      -2.175  11.678  18.806  0.00  0.00    +0.000 A 
ATOM     27  C   UNL     1      -1.074  11.933  19.804  0.00  0.00    +0.000 C 
ENDBRANCH  17  19
ENDBRANCH   1  17
TORSDOF 3
ENDMDL
MODEL 3
REMARK VINA RESULT:      -8.1      2.224      3.312
REMARK  Name = 
REMARK  3 active torsions:
REMARK  status: ('A' for Active; 'I' for Inactive)
REMARK    1  A    between atoms: C_8  and  S_9
REMARK    2  A    between atoms: S_9  and  N_12
REMARK    3  A    between atoms: N_12  and  C_13
REMARK                            x       y       z     vdW  Elec       q    Type
REMARK                         _______ _______ _______ _____ _____    ______ ____
ROOT
ATOM      1  S   UNL     1       3.844   2.982  18.576  0.00  0.00    +0.000 S 
ATOM      2  O   UNL     1       3.746   1.590  18.181  0.00  0.00    +0.000 OA
ATOM      3  O   UNL     1       4.297   3.345  19.900  0.00  0.00    +0.000 OA
ENDROOT
BRANCH   1  11
ATOM      4  O   UNL     1       9.136   5.814  13.184  0.00  0.00    +0.000 OA
ATOM      5  C   UNL     1       8.016   5.357  13.453  0.00  0.00    +0.000 C 
ATOM      6  C   UNL     1       7.282   4.576  12.393  0.00  0.00    +0.000 C 
ATOM      7  C   UNL     1       6.256   3.544  12.804  0.00  0.00    +0.000 C 
ATOM      8  C   UNL     1       5.122   4.155  13.599  0.00  0.00    +0.000 C 
ATOM      9  C   UNL     1       5.487   4.283  15.051  0.00  0.00    +0.000 A 
ATOM     10  C   UNL     1       4.684   3.626  16.013  0.00  0.00    +0.000 A 
ATOM     11  C   UNL     1       4.920   3.780  17.391  0.00  0.00    +0.000 A 
ATOM     12  C   UNL     1       5.931   4.628  17.822  0.00  0.00    +0.000 A 
ATOM     13  C   UNL     1       6.725   5.283  16.872  0.00  0.00    +0.000 A 
ATOM     14  C   UNL     1       6.546   5.081  15.489  0.00  0.00    +0.000 A 
ATOM     15  N   UNL     1       7.518   5.680  14.672  0.00  0.00    +0.000 N 
ATOM     16  H   UNL     1       8.184   6.279  15.150  0.00  0.00    +0.000 HD
ENDBRANCH   1  11
BRANCH   1  17
ATOM     17  N   UNL     1       2.325   3.640  18.360  0.00  0.00    +0.000 NA
ATOM     18  H   UNL     1       1.571   2.967  18.499  0.00  0.00    +0.000 HD
BRANCH  17  19
ATOM     19  C   UNL     1       2.101   5.059  18.619  0.00  0.00    +0.000 C 
ATOM     20  C   UNL     1       2.785   6.061  17.657  0.00  0.00    +0.000 C 
ATOM     21  C   UNL     1       2.521   7.312  18.453  0.00  0.00    +0.000 A 
ATOM     22  C   UNL     1       2.184   8.564  17.987  0.00  0.00    +0.000 A 
ATOM     23  C   UNL     1       1.449   9.374  18.848  0.00  0.00    +0.000 A 
ATOM     24  C   UNL     1       1.143   8.903  20.128  0.00  0.00    +0.000 A 
ATOM     25  N   UNL     1       1.591   7.733  20.642  0.00  0.00    +0.000 NA
ATOM     26  C   UNL     1       2.302   6.981  19.792  0.00  0.00    +0.000 A 
ATOM     27  C   UNL     1       2.593   5.516  19.998  0.00  0.00    +0.000 C 
ENDBRANCH  17  19
ENDBRANCH   1  17
TORSDOF 3
ENDMDL
MODEL 4
REMARK VINA RESULT:      -8.1      2.400      7.902
REMARK  Name = 
REMARK  3 active torsions:
REMARK  status: ('A' for Active; 'I' for Inactive)
REMARK    1  A    between atoms: C_8  and  S_9
REMARK    2  A    between atoms: S_9  and  N_12
REMARK    3  A    between atoms: N_12  and  C_13
REMARK                            x       y       z     vdW  Elec       q    Type
REMARK                         _______ _______ _______ _____ _____    ______ ____
ROOT
ATOM      1  S   UNL     1       3.234   5.318  18.665  0.00  0.00    +0.000 S 
ATOM      2  O   UNL     1       3.214   4.589  19.918  0.00  0.00    +0.000 OA
ATOM      3  O   UNL     1       2.652   4.749  17.470  0.00  0.00    +0.000 OA
ENDROOT
BRANCH   1  11
ATOM      4  O   UNL     1      -1.140  11.964  20.004  0.00  0.00    +0.000 OA
ATOM      5  C   UNL     1      -0.431  11.041  20.428  0.00  0.00    +0.000 C 
ATOM      6  C   UNL     1      -0.641  10.560  21.841  0.00  0.00    +0.000 C 
ATOM      7  C   UNL     1      -0.267   9.142  22.210  0.00  0.00    +0.000 C 
ATOM      8  C   UNL     1       1.206   8.868  21.991  0.00  0.00    +0.000 C 
ATOM      9  C   UNL     1       1.481   8.504  20.559  0.00  0.00    +0.000 A 
ATOM     10  C   UNL     1       2.071   7.249  20.278  0.00  0.00    +0.000 A 
ATOM     11  C   UNL     1       2.435   6.888  18.969  0.00  0.00    +0.000 A 
ATOM     12  C   UNL     1       2.256   7.796  17.933  0.00  0.00    +0.000 A 
ATOM     13  C   UNL     1       1.676   9.041  18.208  0.00  0.00    +0.000 A 
ATOM     14  C   UNL     1       1.241   9.387  19.503  0.00  0.00    +0.000 A 
ATOM     15  N   UNL     1       0.538  10.599  19.588  0.00  0.00    +0.000 N 
ATOM     16  H   UNL     1       0.507  11.149  18.734  0.00  0.00    +0.000 HD
ENDBRANCH   1  11
BRANCH   1  17
ATOM     17  N   UNL     1       4.837   5.652  18.340  0.00  0.00    +0.000 NA
ATOM     18  H   UNL     1       5.430   5.629  19.169  0.00  0.00    +0.000 HD
BRANCH  17  19
ATOM     19  C   UNL     1       5.395   5.341  17.028  0.00  0.00    +0.000 C 
ATOM     20  C   UNL     1       5.085   3.938  16.451  0.00  0.00    +0.000 C 
ATOM     21  C   UNL     1       6.056   3.978  15.300  0.00  0.00    +0.000 A 
ATOM     22  C   UNL     1       5.883   3.493  14.022  0.00  0.00    +0.000 A 
ATOM     23  C   UNL     1       6.612   4.117  13.013  0.00  0.00    +0.000 A 
ATOM     24  C   UNL     1       7.496   5.145  13.350  0.00  0.00    +0.000 A 
ATOM     25  N   UNL     1       7.775   5.532  14.618  0.00  0.00    +0.000 NA
ATOM     26  C   UNL     1       7.064   4.907  15.565  0.00  0.00    +0.000 A 
ATOM     27  C   UNL     1       6.928   5.400  16.984  0.00  0.00    +0.000 C 
ENDBRANCH  17  19
ENDBRANCH   1  17
TORSDOF 3
ENDMDL
MODEL 5
REMARK VINA RESULT:      -8.0      2.427      7.675
REMARK  Name = 
REMARK  3 active torsions:
REMARK  status: ('A' for Active; 'I' for Inactive)
REMARK    1  A    between atoms: C_8  and  S_9
REMARK    2  A    between atoms: S_9  and  N_12
REMARK    3  A    between atoms: N_12  and  C_13
REMARK                            x       y       z     vdW  Elec       q    Type
REMARK                         _______ _______ _______ _____ _____    ______ ____
ROOT
ATOM      1  S   UNL     1       2.528   5.742  19.468  0.00  0.00    +0.000 S 
ATOM      2  O   UNL     1       2.191   5.425  20.842  0.00  0.00    +0.000 OA
ATOM      3  O   UNL     1       2.010   4.949  18.377  0.00  0.00    +0.000 OA
ENDROOT
BRANCH   1  11
ATOM      4  O   UNL     1      -0.520  13.086  18.104  0.00  0.00    +0.000 OA
ATOM      5  C   UNL     1      -0.128  12.215  18.893  0.00  0.00    +0.000 C 
ATOM      6  C   UNL     1      -0.728  12.171  20.276  0.00  0.00    +0.000 C 
ATOM      7  C   UNL     1      -0.749  10.866  21.038  0.00  0.00    +0.000 C 
ATOM      8  C   UNL     1       0.645  10.322  21.272  0.00  0.00    +0.000 C 
ATOM      9  C   UNL     1       1.132   9.549  20.079  0.00  0.00    +0.000 A 
ATOM     10  C   UNL     1       1.488   8.190  20.250  0.00  0.00    +0.000 A 
ATOM     11  C   UNL     1       2.035   7.439  19.194  0.00  0.00    +0.000 A 
ATOM     12  C   UNL     1       2.274   8.050  17.971  0.00  0.00    +0.000 A 
ATOM     13  C   UNL     1       1.926   9.396  17.800  0.00  0.00    +0.000 A 
ATOM     14  C   UNL     1       1.312  10.140  18.827  0.00  0.00    +0.000 A 
ATOM     15  N   UNL     1       0.879  11.422  18.452  0.00  0.00    +0.000 N 
ATOM     16  H   UNL     1       1.146  11.719  17.518  0.00  0.00    +0.000 HD
ENDBRANCH   1  11
BRANCH   1  17
ATOM     17  N   UNL     1       4.195   5.709  19.373  0.00  0.00    +0.000 NA
ATOM     18  H   UNL     1       4.644   5.466  20.256  0.00  0.00    +0.000 HD
BRANCH  17  19
ATOM     19  C   UNL     1       4.847   5.394  18.106  0.00  0.00    +0.000 C 
ATOM     20  C   UNL     1       4.755   3.928  17.617  0.00  0.00    +0.000 C 
ATOM     21  C   UNL     1       5.761   4.027  16.501  0.00  0.00    +0.000 A 
ATOM     22  C   UNL     1       5.711   3.442  15.254  0.00  0.00    +0.000 A 
ATOM     23  C   UNL     1       6.393   4.095  14.230  0.00  0.00    +0.000 A 
ATOM     24  C   UNL     1       7.114   5.255  14.526  0.00  0.00    +0.000 A 
ATOM     25  N   UNL     1       7.283   5.756  15.773  0.00  0.00    +0.000 NA
ATOM     26  C   UNL     1       6.622   5.101  16.736  0.00  0.00    +0.000 A 
ATOM     27  C   UNL     1       6.358   5.660  18.111  0.00  0.00    +0.000 C 
ENDBRANCH  17  19
ENDBRANCH   1  17
TORSDOF 3
ENDMDL
MODEL 6
REMARK VINA RESULT:      -8.0      4.948      7.407
REMARK  Name = 
REMARK  3 active torsions:
REMARK  status: ('A' for Active; 'I' for Inactive)
REMARK    1  A    between atoms: C_8  and  S_9
REMARK    2  A    between atoms: S_9  and  N_12
REMARK    3  A    between atoms: N_12  and  C_13
REMARK                            x       y       z     vdW  Elec       q    Type
REMARK                         _______ _______ _______ _____ _____    ______ ____
ROOT
ATOM      1  S   UNL     1       7.541   7.106  17.672  0.00  0.00    +0.000 S 
ATOM      2  O   UNL     1       8.347   6.747  18.822  0.00  0.00    +0.000 OA
ATOM      3  O   UNL     1       7.984   6.797  16.331  0.00  0.00    +0.000 OA
ENDROOT
BRANCH   1  11
ATOM      4  O   UNL     1       0.501   3.180  18.022  0.00  0.00    +0.000 OA
ATOM      5  C   UNL     1       1.661   3.343  18.423  0.00  0.00    +0.000 C 
ATOM      6  C   UNL     1       2.405   2.157  18.982  0.00  0.00    +0.000 C 
ATOM      7  C   UNL     1       3.916   2.134  18.935  0.00  0.00    +0.000 C 
ATOM      8  C   UNL     1       4.526   3.289  19.702  0.00  0.00    +0.000 C 
ATOM      9  C   UNL     1       4.578   4.531  18.857  0.00  0.00    +0.000 A 
ATOM     10  C   UNL     1       5.834   5.134  18.613  0.00  0.00    +0.000 A 
ATOM     11  C   UNL     1       5.939   6.346  17.907  0.00  0.00    +0.000 A 
ATOM     12  C   UNL     1       4.787   6.991  17.479  0.00  0.00    +0.000 A 
ATOM     13  C   UNL     1       3.541   6.400  17.723  0.00  0.00    +0.000 A 
ATOM     14  C   UNL     1       3.426   5.150  18.366  0.00  0.00    +0.000 A 
ATOM     15  N   UNL     1       2.128   4.616  18.394  0.00  0.00    +0.000 N 
ATOM     16  H   UNL     1       1.395   5.226  18.046  0.00  0.00    +0.000 HD
ENDBRANCH   1  11
BRANCH   1  17
ATOM     17  N   UNL     1       7.303   8.757  17.761  0.00  0.00    +0.000 NA
ATOM     18  H   UNL     1       6.379   9.013  18.108  0.00  0.00    +0.000 HD
BRANCH  17  19
ATOM     19  C   UNL     1       8.440   9.647  17.970  0.00  0.00    +0.000 C 
ATOM     20  C   UNL     1       8.961   9.785  19.422  0.00  0.00    +0.000 C 
ATOM     21  C   UNL     1       9.881  10.955  19.192  0.00  0.00    +0.000 A 
ATOM     22  C   UNL     1      11.126  11.181  19.738  0.00  0.00    +0.000 A 
ATOM     23  C   UNL     1      12.003  11.963  18.991  0.00  0.00    +0.000 A 
ATOM     24  C   UNL     1      11.567  12.504  17.779  0.00  0.00    +0.000 A 
ATOM     25  N   UNL     1      10.302  12.403  17.305  0.00  0.00    +0.000 NA
ATOM     26  C   UNL     1       9.481  11.653  18.050  0.00  0.00    +0.000 A 
ATOM     27  C   UNL     1       8.164  11.101  17.564  0.00  0.00    +0.000 C 
ENDBRANCH  17  19
ENDBRANCH   1  17
TORSDOF 3
ENDMDL
MODEL 7
REMARK VINA RESULT:      -8.0      4.140      8.435
REMARK  Name = 
REMARK  3 active torsions:
REMARK  status: ('A' for Active; 'I' for Inactive)
REMARK    1  A    between atoms: C_8  and  S_9
REMARK    2  A    between atoms: S_9  and  N_12
REMARK    3  A    between atoms: N_12  and  C_13
REMARK                            x       y       z     vdW  Elec       q    Type
REMARK                         _______ _______ _______ _____ _____    ______ ____
ROOT
ATOM      1  S   UNL     1       6.659   5.319  16.211  0.00  0.00    +0.000 S 
ATOM      2  O   UNL     1       6.845   6.711  16.569  0.00  0.00    +0.000 OA
ATOM      3  O   UNL     1       7.795   4.440  16.045  0.00  0.00    +0.000 OA
ENDROOT
BRANCH   1  11
ATOM      4  O   UNL     1       1.424   2.875  21.843  0.00  0.00    +0.000 OA
ATOM      5  C   UNL     1       1.791   2.911  20.660  0.00  0.00    +0.000 C 
ATOM      6  C   UNL     1       0.747   2.808  19.577  0.00  0.00    +0.000 C 
ATOM      7  C   UNL     1       1.022   3.409  18.218  0.00  0.00    +0.000 C 
ATOM      8  C   UNL     1       2.236   2.789  17.557  0.00  0.00    +0.000 C 
ATOM      9  C   UNL     1       3.503   3.441  18.034  0.00  0.00    +0.000 A 
ATOM     10  C   UNL     1       4.350   4.057  17.083  0.00  0.00    +0.000 A 
ATOM     11  C   UNL     1       5.591   4.604  17.454  0.00  0.00    +0.000 A 
ATOM     12  C   UNL     1       6.019   4.500  18.771  0.00  0.00    +0.000 A 
ATOM     13  C   UNL     1       5.185   3.887  19.715  0.00  0.00    +0.000 A 
ATOM     14  C   UNL     1       3.908   3.399  19.370  0.00  0.00    +0.000 A 
ATOM     15  N   UNL     1       3.131   2.960  20.453  0.00  0.00    +0.000 N 
ATOM     16  H   UNL     1       3.602   2.939  21.352  0.00  0.00    +0.000 HD
ENDBRANCH   1  11
BRANCH   1  17
ATOM     17  N   UNL     1       5.798   5.312  14.780  0.00  0.00    +0.000 NA
ATOM     18  H   UNL     1       5.468   6.236  14.504  0.00  0.00    +0.000 HD
BRANCH  17  19
ATOM     19  C   UNL     1       6.073   4.297  13.768  0.00  0.00    +0.000 C 
ATOM     20  C   UNL     1       7.218   4.598  12.770  0.00  0.00    +0.000 C 
ATOM     21  C   UNL     1       6.942   3.474  11.806  0.00  0.00    +0.000 A 
ATOM     22  C   UNL     1       7.849   2.684  11.135  0.00  0.00    +0.000 A 
ATOM     23  C   UNL     1       7.425   1.406  10.783  0.00  0.00    +0.000 A 
ATOM     24  C   UNL     1       6.115   1.019  11.080  0.00  0.00    +0.000 A 
ATOM     25  N   UNL     1       5.176   1.837  11.612  0.00  0.00    +0.000 NA
ATOM     26  C   UNL     1       5.613   3.061  11.931  0.00  0.00    +0.000 A 
ATOM     27  C   UNL     1       4.881   4.009  12.847  0.00  0.00    +0.000 C 
ENDBRANCH  17  19
ENDBRANCH   1  17
TORSDOF 3
ENDMDL
MODEL 8
REMARK VINA RESULT:      -7.9      2.431      7.810
REMARK  Name = 
REMARK  3 active torsions:
REMARK  status: ('A' for Active; 'I' for Inactive)
REMARK    1  A    between atoms: C_8  and  S_9
REMARK    2  A    between atoms: S_9  and  N_12
REMARK    3  A    between atoms: N_12  and  C_13
REMARK                            x       y       z     vdW  Elec       q    Type
REMARK                         _______ _______ _______ _____ _____    ______ ____
ROOT
ATOM      1  S   UNL     1       2.339   5.631  19.884  0.00  0.00    +0.000 S 
ATOM      2  O   UNL     1       2.025   4.924  21.110  0.00  0.00    +0.000 OA
ATOM      3  O   UNL     1       1.871   5.143  18.607  0.00  0.00    +0.000 OA
ENDROOT
BRANCH   1  11
ATOM      4  O   UNL     1      -1.187  12.840  20.716  0.00  0.00    +0.000 OA
ATOM      5  C   UNL     1      -0.635  11.849  21.215  0.00  0.00    +0.000 C 
ATOM      6  C   UNL     1      -0.996  11.457  22.626  0.00  0.00    +0.000 C 
ATOM      7  C   UNL     1      -0.838  10.018  23.063  0.00  0.00    +0.000 C 
ATOM      8  C   UNL     1       0.596   9.545  22.953  0.00  0.00    +0.000 C 
ATOM      9  C   UNL     1       0.910   9.092  21.554  0.00  0.00    +0.000 A 
ATOM     10  C   UNL     1       1.345   7.761  21.354  0.00  0.00    +0.000 A 
ATOM     11  C   UNL     1       1.739   7.304  20.084  0.00  0.00    +0.000 A 
ATOM     12  C   UNL     1       1.748   8.185  19.011  0.00  0.00    +0.000 A 
ATOM     13  C   UNL     1       1.323   9.505  19.207  0.00  0.00    +0.000 A 
ATOM     14  C   UNL     1       0.857   9.956  20.458  0.00  0.00    +0.000 A 
ATOM     15  N   UNL     1       0.317  11.252  20.457  0.00  0.00    +0.000 N 
ATOM     16  H   UNL     1       0.413  11.767  19.587  0.00  0.00    +0.000 HD
ENDBRANCH   1  11
BRANCH   1  17
ATOM     17  N   UNL     1       4.005   5.727  19.810  0.00  0.00    +0.000 NA
ATOM     18  H   UNL     1       4.462   5.495  20.692  0.00  0.00    +0.000 HD
BRANCH  17  19
ATOM     19  C   UNL     1       4.693   5.500  18.543  0.00  0.00    +0.000 C 
ATOM     20  C   UNL     1       6.168   5.034  18.623  0.00  0.00    +0.000 C 
ATOM     21  C   UNL     1       6.511   5.211  17.167  0.00  0.00    +0.000 A 
ATOM     22  C   UNL     1       7.298   4.406  16.373  0.00  0.00    +0.000 A 
ATOM     23  C   UNL     1       7.021   4.414  15.008  0.00  0.00    +0.000 A 
ATOM     24  C   UNL     1       6.017   5.256  14.523  0.00  0.00    +0.000 A 
ATOM     25  N   UNL     1       5.337   6.153  15.277  0.00  0.00    +0.000 NA
ATOM     26  C   UNL     1       5.632   6.126  16.583  0.00  0.00    +0.000 A 
ATOM     27  C   UNL     1       4.776   6.749  17.657  0.00  0.00    +0.000 C 
ENDBRANCH  17  19
ENDBRANCH   1  17
TORSDOF 3
ENDMDL
MODEL 9
REMARK VINA RESULT:      -7.9      3.411      8.098
REMARK  Name = 
REMARK  3 active torsions:
REMARK  status: ('A' for Active; 'I' for Inactive)
REMARK    1  A    between atoms: C_8  and  S_9
REMARK    2  A    between atoms: S_9  and  N_12
REMARK    3  A    between atoms: N_12  and  C_13
REMARK                            x       y       z     vdW  Elec       q    Type
REMARK                         _______ _______ _______ _____ _____    ______ ____
ROOT
ATOM      1  S   UNL     1       7.111   5.260  16.764  0.00  0.00    +0.000 S 
ATOM      2  O   UNL     1       7.377   6.465  17.524  0.00  0.00    +0.000 OA
ATOM      3  O   UNL     1       8.000   4.123  16.844  0.00  0.00    +0.000 OA
ENDROOT
BRANCH   1  11
ATOM      4  O   UNL     1       0.117   2.340  19.531  0.00  0.00    +0.000 OA
ATOM      5  C   UNL     1       0.928   3.271  19.431  0.00  0.00    +0.000 C 
ATOM      6  C   UNL     1       0.994   4.293  20.538  0.00  0.00    +0.000 C 
ATOM      7  C   UNL     1       2.277   5.058  20.770  0.00  0.00    +0.000 C 
ATOM      8  C   UNL     1       2.682   5.869  19.557  0.00  0.00    +0.000 C 
ATOM      9  C   UNL     1       3.436   5.024  18.569  0.00  0.00    +0.000 A 
ATOM     10  C   UNL     1       4.751   5.405  18.213  0.00  0.00    +0.000 A 
ATOM     11  C   UNL     1       5.474   4.708  17.229  0.00  0.00    +0.000 A 
ATOM     12  C   UNL     1       4.874   3.652  16.558  0.00  0.00    +0.000 A 
ATOM     13  C   UNL     1       3.570   3.274  16.905  0.00  0.00    +0.000 A 
ATOM     14  C   UNL     1       2.862   3.918  17.939  0.00  0.00    +0.000 A 
ATOM     15  N   UNL     1       1.635   3.324  18.275  0.00  0.00    +0.000 N 
ATOM     16  H   UNL     1       1.337   2.562  17.674  0.00  0.00    +0.000 HD
ENDBRANCH   1  11
BRANCH   1  17
ATOM     17  N   UNL     1       7.021   5.723  15.162  0.00  0.00    +0.000 NA
ATOM     18  H   UNL     1       7.494   6.607  14.972  0.00  0.00    +0.000 HD
BRANCH  17  19
ATOM     19  C   UNL     1       6.901   4.713  14.117  0.00  0.00    +0.000 C 
ATOM     20  C   UNL     1       7.851   4.850  12.900  0.00  0.00    +0.000 C 
ATOM     21  C   UNL     1       7.190   3.824  12.017  0.00  0.00    +0.000 A 
ATOM     22  C   UNL     1       7.788   2.915  11.171  0.00  0.00    +0.000 A 
ATOM     23  C   UNL     1       7.084   1.741  10.918  0.00  0.00    +0.000 A 
ATOM     24  C   UNL     1       5.817   1.573  11.482  0.00  0.00    +0.000 A 
ATOM     25  N   UNL     1       5.164   2.520  12.198  0.00  0.00    +0.000 NA
ATOM     26  C   UNL     1       5.865   3.640  12.418  0.00  0.00    +0.000 A 
ATOM     27  C   UNL     1       5.513   4.666  13.465  0.00  0.00    +0.000 C 
ENDBRANCH  17  19
ENDBRANCH   1  17
TORSDOF 3
ENDMDL
