MODEL 1
REMARK VINA RESULT:      -8.4      0.000      0.000
REMARK  Name = 
REMARK  7 active torsions:
REMARK  status: ('A' for Active; 'I' for Inactive)
REMARK    1  A    between atoms: C_2  and  C_4
REMARK    2  A    between atoms: C_7  and  S_8
REMARK    3  A    between atoms: S_8  and  N_11
REMARK    4  A    between atoms: N_11  and  C_12
REMARK    5  A    between atoms: C_14  and  C_15
REMARK    6  A    between atoms: C_15  and  C_16
REMARK    7  A    between atoms: C_24  and  O_25
REMARK                            x       y       z     vdW  Elec       q    Type
REMARK                         _______ _______ _______ _____ _____    ______ ____
ROOT
ATOM      1  N   UNL     1       5.595   3.572  18.468  0.00  0.00    +0.000 N 
ATOM      2  H   UNL     1       6.358   3.662  19.139  0.00  0.00    +0.000 HD
ENDROOT
BRANCH   1   3
ATOM      3  C   UNL     1       4.309   3.519  19.103  0.00  0.00    +0.000 A 
ATOM      4  C   UNL     1       3.803   4.624  19.789  0.00  0.00    +0.000 A 
ATOM      5  C   UNL     1       2.441   4.693  20.150  0.00  0.00    +0.000 A 
ATOM      6  C   UNL     1       1.632   3.573  19.923  0.00  0.00    +0.000 A 
ATOM      7  C   UNL     1       2.161   2.422  19.327  0.00  0.00    +0.000 A 
ATOM      8  C   UNL     1       3.493   2.406  18.910  0.00  0.00    +0.000 A 
BRANCH   8   9
ATOM      9  O   UNL     1       4.006   1.312  18.270  0.00  0.00    +0.000 OA
ATOM     10  H   UNL     1       4.912   1.532  17.986  0.00  0.00    +0.000 HD
ENDBRANCH   8   9
BRANCH   5  11
ATOM     11  C   UNL     1       1.843   5.978  20.706  0.00  0.00    +0.000 C 
BRANCH  11  12
ATOM     12  C   UNL     1       1.962   7.186  19.794  0.00  0.00    +0.000 A 
ATOM     13  C   UNL     1       1.388   8.416  20.160  0.00  0.00    +0.000 A 
ATOM     14  C   UNL     1       1.363   9.490  19.264  0.00  0.00    +0.000 A 
ATOM     15  C   UNL     1       1.954   9.361  18.010  0.00  0.00    +0.000 A 
ATOM     16  C   UNL     1       2.579   8.167  17.655  0.00  0.00    +0.000 A 
ATOM     17  C   UNL     1       2.577   7.083  18.538  0.00  0.00    +0.000 A 
ENDBRANCH  11  12
ENDBRANCH   5  11
ENDBRANCH   1   3
BRANCH   1  18
ATOM     18  S   UNL     1       5.812   4.471  17.057  0.00  0.00    +0.000 S 
ATOM     19  O   UNL     1       4.496   4.852  16.565  0.00  0.00    +0.000 OA
ATOM     20  O   UNL     1       6.744   3.779  16.203  0.00  0.00    +0.000 OA
BRANCH  18  24
ATOM     21  C   UNL     1       7.947   8.355  18.143  0.00  0.00    +0.000 A 
ATOM     22  C   UNL     1       8.330   7.166  18.784  0.00  0.00    +0.000 A 
ATOM     23  C   UNL     1       7.682   5.959  18.487  0.00  0.00    +0.000 A 
ATOM     24  C   UNL     1       6.624   5.969  17.566  0.00  0.00    +0.000 A 
ATOM     25  C   UNL     1       6.252   7.146  16.919  0.00  0.00    +0.000 A 
ATOM     26  C   UNL     1       6.902   8.339  17.210  0.00  0.00    +0.000 A 
BRANCH  21  28
ATOM     27  N   UNL     1       9.406   9.697  19.547  0.00  0.00    +0.000 N 
ATOM     28  C   UNL     1       8.608   9.642  18.444  0.00  0.00    +0.000 C 
ATOM     29  O   UNL     1       8.468  10.625  17.711  0.00  0.00    +0.000 OA
ATOM     30  H   UNL     1       9.937  10.549  19.675  0.00  0.00    +0.000 HD
ATOM     31  H   UNL     1       9.759   8.859  19.993  0.00  0.00    +0.000 HD
ENDBRANCH  21  28
ENDBRANCH  18  24
ENDBRANCH   1  18
TORSDOF 7
ENDMDL
MODEL 2
REMARK VINA RESULT:      -8.4      3.108      4.587
REMARK  Name = 
REMARK  7 active torsions:
REMARK  status: ('A' for Active; 'I' for Inactive)
REMARK    1  A    between atoms: C_2  and  C_4
REMARK    2  A    between atoms: C_7  and  S_8
REMARK    3  A    between atoms: S_8  and  N_11
REMARK    4  A    between atoms: N_11  and  C_12
REMARK    5  A    between atoms: C_14  and  C_15
REMARK    6  A    between atoms: C_15  and  C_16
REMARK    7  A    between atoms: C_24  and  O_25
REMARK                            x       y       z     vdW  Elec       q    Type
REMARK                         _______ _______ _______ _____ _____    ______ ____
ROOT
ATOM      1  N   UNL     1       3.293   4.849  18.712  0.00  0.00    +0.000 N 
ATOM      2  H   UNL     1       2.654   4.072  18.883  0.00  0.00    +0.000 HD
ENDROOT
BRANCH   1   3
ATOM      3  C   UNL     1       2.796   6.092  19.229  0.00  0.00    +0.000 A 
ATOM      4  C   UNL     1       2.703   7.221  18.413  0.00  0.00    +0.000 A 
ATOM      5  C   UNL     1       1.948   8.344  18.810  0.00  0.00    +0.000 A 
ATOM      6  C   UNL     1       1.398   8.358  20.098  0.00  0.00    +0.000 A 
ATOM      7  C   UNL     1       1.575   7.268  20.959  0.00  0.00    +0.000 A 
ATOM      8  C   UNL     1       2.262   6.137  20.516  0.00  0.00    +0.000 A 
BRANCH   8   9
ATOM      9  O   UNL     1       2.389   5.041  21.324  0.00  0.00    +0.000 OA
ATOM     10  H   UNL     1       1.492   4.728  21.541  0.00  0.00    +0.000 HD
ENDBRANCH   8   9
BRANCH   5  11
ATOM     11  C   UNL     1       1.672   9.484  17.840  0.00  0.00    +0.000 C 
BRANCH  11  12
ATOM     12  C   UNL     1       0.420  10.288  18.137  0.00  0.00    +0.000 A 
ATOM     13  C   UNL     1       0.488  11.455  18.918  0.00  0.00    +0.000 A 
ATOM     14  C   UNL     1      -0.677  12.117  19.318  0.00  0.00    +0.000 A 
ATOM     15  C   UNL     1      -1.920  11.649  18.904  0.00  0.00    +0.000 A 
ATOM     16  C   UNL     1      -2.001  10.527  18.081  0.00  0.00    +0.000 A 
ATOM     17  C   UNL     1      -0.839   9.846  17.705  0.00  0.00    +0.000 A 
ENDBRANCH  11  12
ENDBRANCH   5  11
ENDBRANCH   1   3
BRANCH   1  18
ATOM     18  S   UNL     1       4.923   4.447  18.881  0.00  0.00    +0.000 S 
ATOM     19  O   UNL     1       4.997   3.068  19.341  0.00  0.00    +0.000 OA
ATOM     20  O   UNL     1       5.589   5.501  19.606  0.00  0.00    +0.000 OA
BRANCH  18  24
ATOM     21  C   UNL     1       6.721   4.739  14.697  0.00  0.00    +0.000 A 
ATOM     22  C   UNL     1       5.367   4.395  14.834  0.00  0.00    +0.000 A 
ATOM     23  C   UNL     1       4.788   4.278  16.104  0.00  0.00    +0.000 A 
ATOM     24  C   UNL     1       5.594   4.478  17.235  0.00  0.00    +0.000 A 
ATOM     25  C   UNL     1       6.935   4.835  17.101  0.00  0.00    +0.000 A 
ATOM     26  C   UNL     1       7.503   4.957  15.839  0.00  0.00    +0.000 A 
BRANCH  21  28
ATOM     27  N   UNL     1       8.378   5.753  13.239  0.00  0.00    +0.000 N 
ATOM     28  C   UNL     1       7.358   4.860  13.369  0.00  0.00    +0.000 C 
ATOM     29  O   UNL     1       7.001   4.159  12.417  0.00  0.00    +0.000 OA
ATOM     30  H   UNL     1       8.876   5.743  12.358  0.00  0.00    +0.000 HD
ATOM     31  H   UNL     1       8.870   6.123  14.044  0.00  0.00    +0.000 HD
ENDBRANCH  21  28
ENDBRANCH  18  24
ENDBRANCH   1  18
TORSDOF 7
ENDMDL
MODEL 3
REMARK VINA RESULT:      -8.3      6.522      9.546
REMARK  Name = 
REMARK  7 active torsions:
REMARK  status: ('A' for Active; 'I' for Inactive)
REMARK    1  A    between atoms: C_2  and  C_4
REMARK    2  A    between atoms: C_7  and  S_8
REMARK    3  A    between atoms: S_8  and  N_11
REMARK    4  A    between atoms: N_11  and  C_12
REMARK    5  A    between atoms: C_14  and  C_15
REMARK    6  A    between atoms: C_15  and  C_16
REMARK    7  A    between atoms: C_24  and  O_25
REMARK                            x       y       z     vdW  Elec       q    Type
REMARK                         _______ _______ _______ _____ _____    ______ ____
ROOT
ATOM      1  N   UNL     1      -0.129   9.650  20.668  0.00  0.00    +0.000 N 
ATOM      2  H   UNL     1      -0.999   9.780  20.152  0.00  0.00    +0.000 HD
ENDROOT
BRANCH   1   3
ATOM      3  C   UNL     1       0.941   9.187  19.831  0.00  0.00    +0.000 A 
ATOM      4  C   UNL     1       1.698   8.070  20.188  0.00  0.00    +0.000 A 
ATOM      5  C   UNL     1       2.535   7.431  19.250  0.00  0.00    +0.000 A 
ATOM      6  C   UNL     1       2.696   8.016  17.988  0.00  0.00    +0.000 A 
ATOM      7  C   UNL     1       2.016   9.196  17.660  0.00  0.00    +0.000 A 
ATOM      8  C   UNL     1       1.134   9.768  18.579  0.00  0.00    +0.000 A 
BRANCH   8   9
ATOM      9  O   UNL     1       0.417  10.885  18.249  0.00  0.00    +0.000 OA
ATOM     10  H   UNL     1       0.972  11.430  17.662  0.00  0.00    +0.000 HD
ENDBRANCH   8   9
BRANCH   5  11
ATOM     11  C   UNL     1       3.194   6.097  19.572  0.00  0.00    +0.000 C 
BRANCH  11  12
ATOM     12  C   UNL     1       2.270   4.894  19.507  0.00  0.00    +0.000 A 
ATOM     13  C   UNL     1       1.763   4.318  20.684  0.00  0.00    +0.000 A 
ATOM     14  C   UNL     1       1.034   3.125  20.642  0.00  0.00    +0.000 A 
ATOM     15  C   UNL     1       0.764   2.520  19.418  0.00  0.00    +0.000 A 
ATOM     16  C   UNL     1       1.210   3.110  18.237  0.00  0.00    +0.000 A 
ATOM     17  C   UNL     1       1.965   4.286  18.280  0.00  0.00    +0.000 A 
ENDBRANCH  11  12
ENDBRANCH   5  11
ENDBRANCH   1   3
BRANCH   1  18
ATOM     18  S   UNL     1       0.156  10.826  21.843  0.00  0.00    +0.000 S 
ATOM     19  O   UNL     1       1.098  11.789  21.291  0.00  0.00    +0.000 OA
ATOM     20  O   UNL     1       0.425  10.173  23.100  0.00  0.00    +0.000 OA
BRANCH  18  24
ATOM     21  C   UNL     1      -3.901  12.822  22.457  0.00  0.00    +0.000 A 
ATOM     22  C   UNL     1      -3.312  12.856  21.184  0.00  0.00    +0.000 A 
ATOM     23  C   UNL     1      -2.059  12.269  20.965  0.00  0.00    +0.000 A 
ATOM     24  C   UNL     1      -1.390  11.679  22.048  0.00  0.00    +0.000 A 
ATOM     25  C   UNL     1      -1.980  11.632  23.311  0.00  0.00    +0.000 A 
ATOM     26  C   UNL     1      -3.227  12.209  23.521  0.00  0.00    +0.000 A 
BRANCH  21  28
ATOM     27  N   UNL     1      -6.280  12.609  22.896  0.00  0.00    +0.000 N 
ATOM     28  C   UNL     1      -5.218  13.441  22.717  0.00  0.00    +0.000 C 
ATOM     29  O   UNL     1      -5.349  14.666  22.798  0.00  0.00    +0.000 OA
ATOM     30  H   UNL     1      -7.149  13.043  23.183  0.00  0.00    +0.000 HD
ATOM     31  H   UNL     1      -6.159  11.627  23.115  0.00  0.00    +0.000 HD
ENDBRANCH  21  28
ENDBRANCH  18  24
ENDBRANCH   1  18
TORSDOF 7
ENDMDL
MODEL 4
REMARK VINA RESULT:      -8.2      2.945      4.605
REMARK  Name = 
REMARK  7 active torsions:
REMARK  status: ('A' for Active; 'I' for Inactive)
REMARK    1  A    between atoms: C_2  and  C_4
REMARK    2  A    between atoms: C_7  and  S_8
REMARK    3  A    between atoms: S_8  and  N_11
REMARK    4  A    between atoms: N_11  and  C_12
REMARK    5  A    between atoms: C_14  and  C_15
REMARK    6  A    between atoms: C_15  and  C_16
REMARK    7  A    between atoms: C_24  and  O_25
REMARK                            x       y       z     vdW  Elec       q    Type
REMARK                         _______ _______ _______ _____ _____    ______ ____
ROOT
ATOM      1  N   UNL     1       6.195   4.176  18.750  0.00  0.00    +0.000 N 
ATOM      2  H   UNL     1       6.497   4.072  19.718  0.00  0.00    +0.000 HD
ENDROOT
BRANCH   1   3
ATOM      3  C   UNL     1       4.819   4.571  18.644  0.00  0.00    +0.000 A 
ATOM      4  C   UNL     1       4.468   5.913  18.494  0.00  0.00    +0.000 A 
ATOM      5  C   UNL     1       3.169   6.284  18.089  0.00  0.00    +0.000 A 
ATOM      6  C   UNL     1       2.196   5.284  17.967  0.00  0.00    +0.000 A 
ATOM      7  C   UNL     1       2.519   3.944  18.215  0.00  0.00    +0.000 A 
ATOM      8  C   UNL     1       3.830   3.594  18.541  0.00  0.00    +0.000 A 
BRANCH   8   9
ATOM      9  O   UNL     1       4.173   2.283  18.725  0.00  0.00    +0.000 OA
ATOM     10  H   UNL     1       4.886   2.253  19.388  0.00  0.00    +0.000 HD
ENDBRANCH   8   9
BRANCH   5  11
ATOM     11  C   UNL     1       2.845   7.725  17.723  0.00  0.00    +0.000 C 
BRANCH  11  12
ATOM     12  C   UNL     1       1.893   8.429  18.672  0.00  0.00    +0.000 A 
ATOM     13  C   UNL     1       1.134   9.529  18.238  0.00  0.00    +0.000 A 
ATOM     14  C   UNL     1       0.369  10.273  19.142  0.00  0.00    +0.000 A 
ATOM     15  C   UNL     1       0.316   9.897  20.481  0.00  0.00    +0.000 A 
ATOM     16  C   UNL     1       1.016   8.773  20.915  0.00  0.00    +0.000 A 
ATOM     17  C   UNL     1       1.805   8.047  20.019  0.00  0.00    +0.000 A 
ENDBRANCH  11  12
ENDBRANCH   5  11
ENDBRANCH   1   3
BRANCH   1  18
ATOM     18  S   UNL     1       7.357   4.860  17.736  0.00  0.00    +0.000 S 
ATOM     19  O   UNL     1       8.607   4.145  17.945  0.00  0.00    +0.000 OA
ATOM     20  O   UNL     1       7.300   6.295  17.865  0.00  0.00    +0.000 OA
BRANCH  18  24
ATOM     21  C   UNL     1       6.018   3.686  13.535  0.00  0.00    +0.000 A 
ATOM     22  C   UNL     1       7.051   4.625  13.682  0.00  0.00    +0.000 A 
ATOM     23  C   UNL     1       7.474   5.021  14.958  0.00  0.00    +0.000 A 
ATOM     24  C   UNL     1       6.823   4.489  16.081  0.00  0.00    +0.000 A 
ATOM     25  C   UNL     1       5.807   3.546  15.937  0.00  0.00    +0.000 A 
ATOM     26  C   UNL     1       5.396   3.150  14.670  0.00  0.00    +0.000 A 
BRANCH  21  28
ATOM     27  N   UNL     1       6.254   2.279  11.569  0.00  0.00    +0.000 N 
ATOM     28  C   UNL     1       5.548   3.258  12.201  0.00  0.00    +0.000 C 
ATOM     29  O   UNL     1       4.537   3.745  11.687  0.00  0.00    +0.000 OA
ATOM     30  H   UNL     1       5.855   1.920  10.710  0.00  0.00    +0.000 HD
ATOM     31  H   UNL     1       6.897   1.676  12.068  0.00  0.00    +0.000 HD
ENDBRANCH  21  28
ENDBRANCH  18  24
ENDBRANCH   1  18
TORSDOF 7
ENDMDL
MODEL 5
REMARK VINA RESULT:      -8.2      2.683      4.129
REMARK  Name = 
REMARK  7 active torsions:
REMARK  status: ('A' for Active; 'I' for Inactive)
REMARK    1  A    between atoms: C_2  and  C_4
REMARK    2  A    between atoms: C_7  and  S_8
REMARK    3  A    between atoms: S_8  and  N_11
REMARK    4  A    between atoms: N_11  and  C_12
REMARK    5  A    between atoms: C_14  and  C_15
REMARK    6  A    between atoms: C_15  and  C_16
REMARK    7  A    between atoms: C_24  and  O_25
REMARK                            x       y       z     vdW  Elec       q    Type
REMARK                         _______ _______ _______ _____ _____    ______ ____
ROOT
ATOM      1  N   UNL     1       5.592   3.558  18.960  0.00  0.00    +0.000 N 
ATOM      2  H   UNL     1       6.140   3.052  19.655  0.00  0.00    +0.000 HD
ENDROOT
BRANCH   1   3
ATOM      3  C   UNL     1       4.204   3.645  19.314  0.00  0.00    +0.000 A 
ATOM      4  C   UNL     1       3.714   4.737  20.032  0.00  0.00    +0.000 A 
ATOM      5  C   UNL     1       2.329   4.986  20.122  0.00  0.00    +0.000 A 
ATOM      6  C   UNL     1       1.444   4.042  19.586  0.00  0.00    +0.000 A 
ATOM      7  C   UNL     1       1.930   2.891  18.952  0.00  0.00    +0.000 A 
ATOM      8  C   UNL     1       3.306   2.705  18.809  0.00  0.00    +0.000 A 
BRANCH   8   9
ATOM      9  O   UNL     1       3.793   1.618  18.138  0.00  0.00    +0.000 OA
ATOM     10  H   UNL     1       3.031   1.094  17.831  0.00  0.00    +0.000 HD
ENDBRANCH   8   9
BRANCH   5  11
ATOM     11  C   UNL     1       1.804   6.282  20.721  0.00  0.00    +0.000 C 
BRANCH  11  12
ATOM     12  C   UNL     1       1.739   7.453  19.757  0.00  0.00    +0.000 A 
ATOM     13  C   UNL     1       2.340   7.369  18.489  0.00  0.00    +0.000 A 
ATOM     14  C   UNL     1       2.413   8.489  17.655  0.00  0.00    +0.000 A 
ATOM     15  C   UNL     1       1.843   9.694  18.059  0.00  0.00    +0.000 A 
ATOM     16  C   UNL     1       1.192   9.777  19.288  0.00  0.00    +0.000 A 
ATOM     17  C   UNL     1       1.145   8.666  20.136  0.00  0.00    +0.000 A 
ENDBRANCH  11  12
ENDBRANCH   5  11
ENDBRANCH   1   3
BRANCH   1  18
ATOM     18  S   UNL     1       6.386   4.889  18.295  0.00  0.00    +0.000 S 
ATOM     19  O   UNL     1       7.782   4.825  18.700  0.00  0.00    +0.000 OA
ATOM     20  O   UNL     1       5.601   6.073  18.546  0.00  0.00    +0.000 OA
BRANCH  18  24
ATOM     21  C   UNL     1       6.263   4.013  13.818  0.00  0.00    +0.000 A 
ATOM     22  C   UNL     1       7.356   4.719  14.343  0.00  0.00    +0.000 A 
ATOM     23  C   UNL     1       7.416   5.021  15.710  0.00  0.00    +0.000 A 
ATOM     24  C   UNL     1       6.349   4.635  16.535  0.00  0.00    +0.000 A 
ATOM     25  C   UNL     1       5.270   3.921  16.018  0.00  0.00    +0.000 A 
ATOM     26  C   UNL     1       5.218   3.617  14.663  0.00  0.00    +0.000 A 
BRANCH  21  28
ATOM     27  N   UNL     1       4.970   3.257  11.906  0.00  0.00    +0.000 N 
ATOM     28  C   UNL     1       6.172   3.689  12.379  0.00  0.00    +0.000 C 
ATOM     29  O   UNL     1       7.138   3.832  11.624  0.00  0.00    +0.000 OA
ATOM     30  H   UNL     1       4.893   3.148  10.903  0.00  0.00    +0.000 HD
ATOM     31  H   UNL     1       4.110   3.398  12.423  0.00  0.00    +0.000 HD
ENDBRANCH  21  28
ENDBRANCH  18  24
ENDBRANCH   1  18
TORSDOF 7
ENDMDL
MODEL 6
REMARK VINA RESULT:      -8.2      6.547      9.565
REMARK  Name = 
REMARK  7 active torsions:
REMARK  status: ('A' for Active; 'I' for Inactive)
REMARK    1  A    between atoms: C_2  and  C_4
REMARK    2  A    between atoms: C_7  and  S_8
REMARK    3  A    between atoms: S_8  and  N_11
REMARK    4  A    between atoms: N_11  and  C_12
REMARK    5  A    between atoms: C_14  and  C_15
REMARK    6  A    between atoms: C_15  and  C_16
REMARK    7  A    between atoms: C_24  and  O_25
REMARK                            x       y       z     vdW  Elec       q    Type
REMARK                         _______ _______ _______ _____ _____    ______ ____
ROOT
ATOM      1  N   UNL     1      -0.224   9.667  20.657  0.00  0.00    +0.000 N 
ATOM      2  H   UNL     1      -1.073   9.857  20.126  0.00  0.00    +0.000 HD
ENDROOT
BRANCH   1   3
ATOM      3  C   UNL     1       0.834   9.153  19.836  0.00  0.00    +0.000 A 
ATOM      4  C   UNL     1       1.631   8.094  20.273  0.00  0.00    +0.000 A 
ATOM      5  C   UNL     1       2.459   7.388  19.375  0.00  0.00    +0.000 A 
ATOM      6  C   UNL     1       2.567   7.855  18.059  0.00  0.00    +0.000 A 
ATOM      7  C   UNL     1       1.847   8.980  17.642  0.00  0.00    +0.000 A 
ATOM      8  C   UNL     1       0.976   9.616  18.529  0.00  0.00    +0.000 A 
BRANCH   8   9
ATOM      9  O   UNL     1       0.220  10.679  18.117  0.00  0.00    +0.000 OA
ATOM     10  H   UNL     1      -0.697  10.367  18.013  0.00  0.00    +0.000 HD
ENDBRANCH   8   9
BRANCH   5  11
ATOM     11  C   UNL     1       3.162   6.108  19.801  0.00  0.00    +0.000 C 
BRANCH  11  12
ATOM     12  C   UNL     1       2.396   4.830  19.512  0.00  0.00    +0.000 A 
ATOM     13  C   UNL     1       2.520   4.187  18.268  0.00  0.00    +0.000 A 
ATOM     14  C   UNL     1       1.709   3.097  17.941  0.00  0.00    +0.000 A 
ATOM     15  C   UNL     1       0.797   2.606  18.871  0.00  0.00    +0.000 A 
ATOM     16  C   UNL     1       0.704   3.195  20.131  0.00  0.00    +0.000 A 
ATOM     17  C   UNL     1       1.493   4.304  20.448  0.00  0.00    +0.000 A 
ENDBRANCH  11  12
ENDBRANCH   5  11
ENDBRANCH   1   3
BRANCH   1  18
ATOM     18  S   UNL     1       0.106  10.808  21.855  0.00  0.00    +0.000 S 
ATOM     19  O   UNL     1       1.085  11.743  21.323  0.00  0.00    +0.000 OA
ATOM     20  O   UNL     1       0.347  10.121  23.100  0.00  0.00    +0.000 OA
BRANCH  18  24
ATOM     21  C   UNL     1      -3.871  12.950  22.506  0.00  0.00    +0.000 A 
ATOM     22  C   UNL     1      -3.278  12.988  21.235  0.00  0.00    +0.000 A 
ATOM     23  C   UNL     1      -2.048  12.356  21.005  0.00  0.00    +0.000 A 
ATOM     24  C   UNL     1      -1.406  11.717  22.077  0.00  0.00    +0.000 A 
ATOM     25  C   UNL     1      -2.001  11.666  23.337  0.00  0.00    +0.000 A 
ATOM     26  C   UNL     1      -3.224  12.287  23.557  0.00  0.00    +0.000 A 
BRANCH  21  28
ATOM     27  N   UNL     1      -5.391  14.054  24.046  0.00  0.00    +0.000 N 
ATOM     28  C   UNL     1      -5.163  13.615  22.777  0.00  0.00    +0.000 C 
ATOM     29  O   UNL     1      -5.994  13.795  21.883  0.00  0.00    +0.000 OA
ATOM     30  H   UNL     1      -6.228  14.605  24.188  0.00  0.00    +0.000 HD
ATOM     31  H   UNL     1      -4.638  14.176  24.713  0.00  0.00    +0.000 HD
ENDBRANCH  21  28
ENDBRANCH  18  24
ENDBRANCH   1  18
TORSDOF 7
ENDMDL
MODEL 7
REMARK VINA RESULT:      -8.2      6.683      9.633
REMARK  Name = 
REMARK  7 active torsions:
REMARK  status: ('A' for Active; 'I' for Inactive)
REMARK    1  A    between atoms: C_2  and  C_4
REMARK    2  A    between atoms: C_7  and  S_8
REMARK    3  A    between atoms: S_8  and  N_11
REMARK    4  A    between atoms: N_11  and  C_12
REMARK    5  A    between atoms: C_14  and  C_15
REMARK    6  A    between atoms: C_15  and  C_16
REMARK    7  A    between atoms: C_24  and  O_25
REMARK                            x       y       z     vdW  Elec       q    Type
REMARK                         _______ _______ _______ _____ _____    ______ ____
ROOT
ATOM      1  N   UNL     1      -0.313   9.788  20.707  0.00  0.00    +0.000 N 
ATOM      2  H   UNL     1      -1.182   9.927  20.194  0.00  0.00    +0.000 HD
ENDROOT
BRANCH   1   3
ATOM      3  C   UNL     1       0.758   9.340  19.863  0.00  0.00    +0.000 A 
ATOM      4  C   UNL     1       1.537   8.237  20.217  0.00  0.00    +0.000 A 
ATOM      5  C   UNL     1       2.376   7.608  19.275  0.00  0.00    +0.000 A 
ATOM      6  C   UNL     1       2.516   8.191  18.009  0.00  0.00    +0.000 A 
ATOM      7  C   UNL     1       1.813   9.357  17.682  0.00  0.00    +0.000 A 
ATOM      8  C   UNL     1       0.930   9.918  18.606  0.00  0.00    +0.000 A 
BRANCH   8   9
ATOM      9  O   UNL     1       0.191  11.021  18.278  0.00  0.00    +0.000 OA
ATOM     10  H   UNL     1      -0.596  10.717  17.791  0.00  0.00    +0.000 HD
ENDBRANCH   8   9
BRANCH   5  11
ATOM     11  C   UNL     1       3.061   6.287  19.596  0.00  0.00    +0.000 C 
BRANCH  11  12
ATOM     12  C   UNL     1       2.190   5.056  19.424  0.00  0.00    +0.000 A 
ATOM     13  C   UNL     1       1.552   4.472  20.532  0.00  0.00    +0.000 A 
ATOM     14  C   UNL     1       0.871   3.257  20.408  0.00  0.00    +0.000 A 
ATOM     15  C   UNL     1       0.779   2.636  19.165  0.00  0.00    +0.000 A 
ATOM     16  C   UNL     1       1.357   3.233  18.046  0.00  0.00    +0.000 A 
ATOM     17  C   UNL     1       2.064   4.432  18.174  0.00  0.00    +0.000 A 
ENDBRANCH  11  12
ENDBRANCH   5  11
ENDBRANCH   1   3
BRANCH   1  18
ATOM     18  S   UNL     1      -0.028  10.943  21.902  0.00  0.00    +0.000 S 
ATOM     19  O   UNL     1       0.859  11.953  21.344  0.00  0.00    +0.000 OA
ATOM     20  O   UNL     1       0.309  10.269  23.132  0.00  0.00    +0.000 OA
BRANCH  18  24
ATOM     21  C   UNL     1      -3.956  13.171  22.559  0.00  0.00    +0.000 A 
ATOM     22  C   UNL     1      -3.419  12.413  23.612  0.00  0.00    +0.000 A 
ATOM     23  C   UNL     1      -2.224  11.702  23.438  0.00  0.00    +0.000 A 
ATOM     24  C   UNL     1      -1.595  11.734  22.184  0.00  0.00    +0.000 A 
ATOM     25  C   UNL     1      -2.119  12.497  21.142  0.00  0.00    +0.000 A 
ATOM     26  C   UNL     1      -3.300  13.207  21.322  0.00  0.00    +0.000 A 
BRANCH  21  28
ATOM     27  N   UNL     1      -5.650  14.175  23.981  0.00  0.00    +0.000 N 
ATOM     28  C   UNL     1      -5.219  13.922  22.714  0.00  0.00    +0.000 C 
ATOM     29  O   UNL     1      -5.848  14.333  21.734  0.00  0.00    +0.000 OA
ATOM     30  H   UNL     1      -6.453  14.786  24.070  0.00  0.00    +0.000 HD
ATOM     31  H   UNL     1      -5.031  14.106  24.780  0.00  0.00    +0.000 HD
ENDBRANCH  21  28
ENDBRANCH  18  24
ENDBRANCH   1  18
TORSDOF 7
ENDMDL
MODEL 8
REMARK VINA RESULT:      -8.2      2.757      3.959
REMARK  Name = 
REMARK  7 active torsions:
REMARK  status: ('A' for Active; 'I' for Inactive)
REMARK    1  A    between atoms: C_2  and  C_4
REMARK    2  A    between atoms: C_7  and  S_8
REMARK    3  A    between atoms: S_8  and  N_11
REMARK    4  A    between atoms: N_11  and  C_12
REMARK    5  A    between atoms: C_14  and  C_15
REMARK    6  A    between atoms: C_15  and  C_16
REMARK    7  A    between atoms: C_24  and  O_25
REMARK                            x       y       z     vdW  Elec       q    Type
REMARK                         _______ _______ _______ _____ _____    ______ ____
ROOT
ATOM      1  N   UNL     1       5.166   3.415  19.008  0.00  0.00    +0.000 N 
ATOM      2  H   UNL     1       5.708   2.796  19.611  0.00  0.00    +0.000 HD
ENDROOT
BRANCH   1   3
ATOM      3  C   UNL     1       3.807   3.556  19.446  0.00  0.00    +0.000 A 
ATOM      4  C   UNL     1       3.398   4.681  20.163  0.00  0.00    +0.000 A 
ATOM      5  C   UNL     1       2.029   4.977  20.333  0.00  0.00    +0.000 A 
ATOM      6  C   UNL     1       1.084   4.048  19.880  0.00  0.00    +0.000 A 
ATOM      7  C   UNL     1       1.493   2.867  19.250  0.00  0.00    +0.000 A 
ATOM      8  C   UNL     1       2.850   2.633  19.026  0.00  0.00    +0.000 A 
BRANCH   8   9
ATOM      9  O   UNL     1       3.260   1.513  18.356  0.00  0.00    +0.000 OA
ATOM     10  H   UNL     1       2.868   0.741  18.802  0.00  0.00    +0.000 HD
ENDBRANCH   8   9
BRANCH   5  11
ATOM     11  C   UNL     1       1.583   6.305  20.927  0.00  0.00    +0.000 C 
BRANCH  11  12
ATOM     12  C   UNL     1       1.672   7.491  19.983  0.00  0.00    +0.000 A 
ATOM     13  C   UNL     1       1.099   8.726  20.332  0.00  0.00    +0.000 A 
ATOM     14  C   UNL     1       1.046   9.777  19.411  0.00  0.00    +0.000 A 
ATOM     15  C   UNL     1       1.607   9.621  18.147  0.00  0.00    +0.000 A 
ATOM     16  C   UNL     1       2.231   8.422  17.807  0.00  0.00    +0.000 A 
ATOM     17  C   UNL     1       2.258   7.360  18.716  0.00  0.00    +0.000 A 
ENDBRANCH  11  12
ENDBRANCH   5  11
ENDBRANCH   1   3
BRANCH   1  18
ATOM     18  S   UNL     1       6.025   4.757  18.452  0.00  0.00    +0.000 S 
ATOM     19  O   UNL     1       7.380   4.667  18.975  0.00  0.00    +0.000 OA
ATOM     20  O   UNL     1       5.230   5.940  18.669  0.00  0.00    +0.000 OA
BRANCH  18  24
ATOM     21  C   UNL     1       6.277   4.007  13.958  0.00  0.00    +0.000 A 
ATOM     22  C   UNL     1       7.344   4.652  14.601  0.00  0.00    +0.000 A 
ATOM     23  C   UNL     1       7.291   4.914  15.976  0.00  0.00    +0.000 A 
ATOM     24  C   UNL     1       6.139   4.552  16.690  0.00  0.00    +0.000 A 
ATOM     25  C   UNL     1       5.083   3.898  16.056  0.00  0.00    +0.000 A 
ATOM     26  C   UNL     1       5.144   3.633  14.693  0.00  0.00    +0.000 A 
BRANCH  21  28
ATOM     27  N   UNL     1       7.252   4.359  11.762  0.00  0.00    +0.000 N 
ATOM     28  C   UNL     1       6.304   3.727  12.507  0.00  0.00    +0.000 C 
ATOM     29  O   UNL     1       5.517   2.928  11.990  0.00  0.00    +0.000 OA
ATOM     30  H   UNL     1       7.330   4.072  10.794  0.00  0.00    +0.000 HD
ATOM     31  H   UNL     1       8.069   4.784  12.185  0.00  0.00    +0.000 HD
ENDBRANCH  21  28
ENDBRANCH  18  24
ENDBRANCH   1  18
TORSDOF 7
ENDMDL
MODEL 9
REMARK VINA RESULT:      -8.1      3.117      4.661
REMARK  Name = 
REMARK  7 active torsions:
REMARK  status: ('A' for Active; 'I' for Inactive)
REMARK    1  A    between atoms: C_2  and  C_4
REMARK    2  A    between atoms: C_7  and  S_8
REMARK    3  A    between atoms: S_8  and  N_11
REMARK    4  A    between atoms: N_11  and  C_12
REMARK    5  A    between atoms: C_14  and  C_15
REMARK    6  A    between atoms: C_15  and  C_16
REMARK    7  A    between atoms: C_24  and  O_25
REMARK                            x       y       z     vdW  Elec       q    Type
REMARK                         _______ _______ _______ _____ _____    ______ ____
ROOT
ATOM      1  N   UNL     1       3.040   4.981  18.585  0.00  0.00    +0.000 N 
ATOM      2  H   UNL     1       2.328   4.256  18.655  0.00  0.00    +0.000 HD
ENDROOT
BRANCH   1   3
ATOM      3  C   UNL     1       2.613   6.228  19.154  0.00  0.00    +0.000 A 
ATOM      4  C   UNL     1       2.484   7.370  18.364  0.00  0.00    +0.000 A 
ATOM      5  C   UNL     1       1.787   8.503  18.832  0.00  0.00    +0.000 A 
ATOM      6  C   UNL     1       1.338   8.511  20.159  0.00  0.00    +0.000 A 
ATOM      7  C   UNL     1       1.556   7.404  20.989  0.00  0.00    +0.000 A 
ATOM      8  C   UNL     1       2.181   6.265  20.479  0.00  0.00    +0.000 A 
BRANCH   8   9
ATOM      9  O   UNL     1       2.344   5.155  21.261  0.00  0.00    +0.000 OA
ATOM     10  H   UNL     1       2.898   4.524  20.767  0.00  0.00    +0.000 HD
ENDBRANCH   8   9
BRANCH   5  11
ATOM     11  C   UNL     1       1.464   9.663  17.901  0.00  0.00    +0.000 C 
BRANCH  11  12
ATOM     12  C   UNL     1       0.112  10.314  18.134  0.00  0.00    +0.000 A 
ATOM     13  C   UNL     1      -1.058   9.738  17.609  0.00  0.00    +0.000 A 
ATOM     14  C   UNL     1      -2.284  10.406  17.692  0.00  0.00    +0.000 A 
ATOM     15  C   UNL     1      -2.363  11.634  18.343  0.00  0.00    +0.000 A 
ATOM     16  C   UNL     1      -1.222  12.189  18.920  0.00  0.00    +0.000 A 
ATOM     17  C   UNL     1       0.009  11.538  18.811  0.00  0.00    +0.000 A 
ENDBRANCH  11  12
ENDBRANCH   5  11
ENDBRANCH   1   3
BRANCH   1  18
ATOM     18  S   UNL     1       4.614   4.426  18.835  0.00  0.00    +0.000 S 
ATOM     19  O   UNL     1       4.549   2.991  19.064  0.00  0.00    +0.000 OA
ATOM     20  O   UNL     1       5.268   5.293  19.783  0.00  0.00    +0.000 OA
BRANCH  18  24
ATOM     21  C   UNL     1       6.744   4.808  14.817  0.00  0.00    +0.000 A 
ATOM     22  C   UNL     1       7.386   5.273  15.975  0.00  0.00    +0.000 A 
ATOM     23  C   UNL     1       6.753   5.188  17.222  0.00  0.00    +0.000 A 
ATOM     24  C   UNL     1       5.454   4.662  17.285  0.00  0.00    +0.000 A 
ATOM     25  C   UNL     1       4.820   4.186  16.139  0.00  0.00    +0.000 A 
ATOM     26  C   UNL     1       5.455   4.266  14.906  0.00  0.00    +0.000 A 
BRANCH  21  28
ATOM     27  N   UNL     1       6.911   4.080  12.506  0.00  0.00    +0.000 N 
ATOM     28  C   UNL     1       7.386   4.894  13.489  0.00  0.00    +0.000 C 
ATOM     29  O   UNL     1       8.300   5.693  13.266  0.00  0.00    +0.000 OA
ATOM     30  H   UNL     1       7.284   4.231  11.577  0.00  0.00    +0.000 HD
ATOM     31  H   UNL     1       6.003   3.634  12.573  0.00  0.00    +0.000 HD
ENDBRANCH  21  28
ENDBRANCH  18  24
ENDBRANCH   1  18
TORSDOF 7
ENDMDL
