MODEL 1
REMARK VINA RESULT:      -8.5      0.000      0.000
REMARK  Name = 
REMARK  8 active torsions:
REMARK  status: ('A' for Active; 'I' for Inactive)
REMARK    1  A    between atoms: C_1  and  N_2
REMARK    2  A    between atoms: C_6  and  C_7
REMARK    3  A    between atoms: C_7  and  C_8
REMARK    4  A    between atoms: C_8  and  C_9
REMARK    5  A    between atoms: C_13  and  N_14
REMARK    6  A    between atoms: C_15  and  C_17
REMARK    7  A    between atoms: C_18  and  C_19
REMARK    8  A    between atoms: C_19  and  C_20
REMARK                            x       y       z     vdW  Elec       q    Type
REMARK                         _______ _______ _______ _____ _____    ______ ____
ROOT
ATOM      1  C   UNL     1       5.026   4.296  17.055  0.00  0.00    +0.000 A 
ATOM      2  C   UNL     1       5.526   3.614  15.927  0.00  0.00    +0.000 A 
ATOM      3  C   UNL     1       6.496   4.173  15.105  0.00  0.00    +0.000 A 
ATOM      4  C   UNL     1       6.993   5.441  15.387  0.00  0.00    +0.000 A 
ATOM      5  C   UNL     1       6.531   6.164  16.487  0.00  0.00    +0.000 A 
ATOM      6  C   UNL     1       5.572   5.572  17.319  0.00  0.00    +0.000 A 
ENDROOT
BRANCH   1   7
ATOM      7  C   UNL     1       3.875   3.652  17.971  0.00  0.00    +0.000 C 
ATOM      8  C   UNL     1       3.736   2.102  17.982  0.00  0.00    +0.000 C 
ATOM      9  O   UNL     1       4.036   2.022  19.392  0.00  0.00    +0.000 OA
ATOM     10  C   UNL     1       4.257   3.441  19.466  0.00  0.00    +0.000 C 
BRANCH   7  11
ATOM     11  C   UNL     1       2.557   4.438  17.815  0.00  0.00    +0.000 C 
BRANCH  11  17
ATOM     12  C   UNL     1       0.946   3.966  20.514  0.00  0.00    +0.000 C 
ATOM     13  N   UNL     1       1.569   5.182  20.062  0.00  0.00    +0.000 N 
ATOM     14  C   UNL     1       1.521   6.371  20.727  0.00  0.00    +0.000 A 
ATOM     15  N   UNL     1       2.202   7.272  20.063  0.00  0.00    +0.000 NA
ATOM     16  N   UNL     1       2.690   6.671  18.930  0.00  0.00    +0.000 NA
ATOM     17  C   UNL     1       2.298   5.411  18.920  0.00  0.00    +0.000 A 
ENDBRANCH  11  17
ENDBRANCH   7  11
ENDBRANCH   1   7
BRANCH   5  18
ATOM     18  N   UNL     1       6.956   7.478  16.798  0.00  0.00    +0.000 N 
ATOM     19  C   UNL     1       7.777   7.817  17.850  0.00  0.00    +0.000 C 
ATOM     20  O   UNL     1       8.232   7.052  18.691  0.00  0.00    +0.000 OA
ATOM     21  H   UNL     1       6.654   8.208  16.167  0.00  0.00    +0.000 HD
BRANCH  19  22
ATOM     22  C   UNL     1       8.114   9.270  17.921  0.00  0.00    +0.000 C 
ATOM     23  C   UNL     1       9.144   9.609  18.710  0.00  0.00    +0.000 C 
BRANCH  23  24
ATOM     24  C   UNL     1       9.637  10.995  19.008  0.00  0.00    +0.000 C 
BRANCH  24  25
ATOM     25  C   UNL     1       9.597  11.344  20.496  0.00  0.00    +0.000 C 
ATOM     26  F   UNL     1       9.159  10.322  21.265  0.00  0.00    +0.000 F 
ATOM     27  F   UNL     1      10.825  11.688  20.945  0.00  0.00    +0.000 F 
ATOM     28  F   UNL     1       8.773  12.394  20.719  0.00  0.00    +0.000 F 
ENDBRANCH  24  25
ENDBRANCH  23  24
ENDBRANCH  19  22
ENDBRANCH   5  18
TORSDOF 7
ENDMDL
MODEL 2
REMARK VINA RESULT:      -8.5      2.080      2.625
REMARK  Name = 
REMARK  8 active torsions:
REMARK  status: ('A' for Active; 'I' for Inactive)
REMARK    1  A    between atoms: C_1  and  N_2
REMARK    2  A    between atoms: C_6  and  C_7
REMARK    3  A    between atoms: C_7  and  C_8
REMARK    4  A    between atoms: C_8  and  C_9
REMARK    5  A    between atoms: C_13  and  N_14
REMARK    6  A    between atoms: C_15  and  C_17
REMARK    7  A    between atoms: C_18  and  C_19
REMARK    8  A    between atoms: C_19  and  C_20
REMARK                            x       y       z     vdW  Elec       q    Type
REMARK                         _______ _______ _______ _____ _____    ______ ____
ROOT
ATOM      1  C   UNL     1       4.956   5.006  17.591  0.00  0.00    +0.000 A 
ATOM      2  C   UNL     1       5.508   4.095  16.667  0.00  0.00    +0.000 A 
ATOM      3  C   UNL     1       6.624   4.413  15.905  0.00  0.00    +0.000 A 
ATOM      4  C   UNL     1       7.222   5.661  16.042  0.00  0.00    +0.000 A 
ATOM      5  C   UNL     1       6.715   6.604  16.936  0.00  0.00    +0.000 A 
ATOM      6  C   UNL     1       5.604   6.256  17.715  0.00  0.00    +0.000 A 
ENDROOT
BRANCH   1   7
ATOM      7  C   UNL     1       3.640   4.638  18.434  0.00  0.00    +0.000 C 
ATOM      8  C   UNL     1       3.245   5.574  19.612  0.00  0.00    +0.000 C 
ATOM      9  O   UNL     1       1.991   5.930  18.993  0.00  0.00    +0.000 OA
ATOM     10  C   UNL     1       2.299   5.147  17.827  0.00  0.00    +0.000 C 
BRANCH   7  11
ATOM     11  C   UNL     1       3.600   3.126  18.741  0.00  0.00    +0.000 C 
BRANCH  11  17
ATOM     12  C   UNL     1       0.510   2.549  19.209  0.00  0.00    +0.000 C 
ATOM     13  N   UNL     1       1.559   2.573  20.194  0.00  0.00    +0.000 N 
ATOM     14  C   UNL     1       1.372   2.390  21.531  0.00  0.00    +0.000 A 
ATOM     15  N   UNL     1       2.527   2.451  22.148  0.00  0.00    +0.000 NA
ATOM     16  N   UNL     1       3.489   2.699  21.201  0.00  0.00    +0.000 NA
ATOM     17  C   UNL     1       2.906   2.787  20.021  0.00  0.00    +0.000 A 
ENDBRANCH  11  17
ENDBRANCH   7  11
ENDBRANCH   1   7
BRANCH   5  18
ATOM     18  N   UNL     1       7.242   7.910  17.084  0.00  0.00    +0.000 N 
ATOM     19  C   UNL     1       8.151   8.293  18.045  0.00  0.00    +0.000 C 
ATOM     20  O   UNL     1       8.611   7.585  18.932  0.00  0.00    +0.000 OA
ATOM     21  H   UNL     1       6.947   8.592  16.399  0.00  0.00    +0.000 HD
BRANCH  19  22
ATOM     22  C   UNL     1       8.584   9.718  17.945  0.00  0.00    +0.000 C 
ATOM     23  C   UNL     1       9.238  10.222  19.001  0.00  0.00    +0.000 C 
BRANCH  23  24
ATOM     24  C   UNL     1       9.715  11.634  19.181  0.00  0.00    +0.000 C 
BRANCH  24  25
ATOM     25  C   UNL     1      11.182  11.830  18.797  0.00  0.00    +0.000 C 
ATOM     26  F   UNL     1      11.473  11.351  17.567  0.00  0.00    +0.000 F 
ATOM     27  F   UNL     1      11.513  13.141  18.807  0.00  0.00    +0.000 F 
ATOM     28  F   UNL     1      11.994  11.198  19.675  0.00  0.00    +0.000 F 
ENDBRANCH  24  25
ENDBRANCH  23  24
ENDBRANCH  19  22
ENDBRANCH   5  18
TORSDOF 7
ENDMDL
MODEL 3
REMARK VINA RESULT:      -8.5      1.129      1.333
REMARK  Name = 
REMARK  8 active torsions:
REMARK  status: ('A' for Active; 'I' for Inactive)
REMARK    1  A    between atoms: C_1  and  N_2
REMARK    2  A    between atoms: C_6  and  C_7
REMARK    3  A    between atoms: C_7  and  C_8
REMARK    4  A    between atoms: C_8  and  C_9
REMARK    5  A    between atoms: C_13  and  N_14
REMARK    6  A    between atoms: C_15  and  C_17
REMARK    7  A    between atoms: C_18  and  C_19
REMARK    8  A    between atoms: C_19  and  C_20
REMARK                            x       y       z     vdW  Elec       q    Type
REMARK                         _______ _______ _______ _____ _____    ______ ____
ROOT
ATOM      1  C   UNL     1       5.019   4.170  16.919  0.00  0.00    +0.000 A 
ATOM      2  C   UNL     1       5.504   3.507  15.773  0.00  0.00    +0.000 A 
ATOM      3  C   UNL     1       6.480   4.069  14.961  0.00  0.00    +0.000 A 
ATOM      4  C   UNL     1       7.000   5.321  15.270  0.00  0.00    +0.000 A 
ATOM      5  C   UNL     1       6.553   6.026  16.389  0.00  0.00    +0.000 A 
ATOM      6  C   UNL     1       5.587   5.431  17.210  0.00  0.00    +0.000 A 
ENDROOT
BRANCH   1   7
ATOM      7  C   UNL     1       3.861   3.525  17.824  0.00  0.00    +0.000 C 
ATOM      8  C   UNL     1       3.719   1.975  17.828  0.00  0.00    +0.000 C 
ATOM      9  O   UNL     1       4.008   1.889  19.239  0.00  0.00    +0.000 OA
ATOM     10  C   UNL     1       4.232   3.307  19.321  0.00  0.00    +0.000 C 
BRANCH   7  11
ATOM     11  C   UNL     1       2.545   4.314  17.661  0.00  0.00    +0.000 C 
BRANCH  11  17
ATOM     12  C   UNL     1       1.007   3.669  20.367  0.00  0.00    +0.000 C 
ATOM     13  N   UNL     1       1.552   4.933  19.944  0.00  0.00    +0.000 N 
ATOM     14  C   UNL     1       1.447   6.096  20.645  0.00  0.00    +0.000 A 
ATOM     15  N   UNL     1       2.064   7.055  19.999  0.00  0.00    +0.000 NA
ATOM     16  N   UNL     1       2.567   6.516  18.842  0.00  0.00    +0.000 NA
ATOM     17  C   UNL     1       2.248   5.237  18.798  0.00  0.00    +0.000 A 
ENDBRANCH  11  17
ENDBRANCH   7  11
ENDBRANCH   1   7
BRANCH   5  18
ATOM     18  N   UNL     1       7.001   7.325  16.729  0.00  0.00    +0.000 N 
ATOM     19  C   UNL     1       7.776   7.635  17.823  0.00  0.00    +0.000 C 
ATOM     20  O   UNL     1       8.163   6.853  18.682  0.00  0.00    +0.000 OA
ATOM     21  H   UNL     1       6.755   8.066  16.086  0.00  0.00    +0.000 HD
BRANCH  19  22
ATOM     22  C   UNL     1       8.152   9.077  17.919  0.00  0.00    +0.000 C 
ATOM     23  C   UNL     1       8.935   9.425  18.951  0.00  0.00    +0.000 C 
BRANCH  23  24
ATOM     24  C   UNL     1       9.394  10.808  19.312  0.00  0.00    +0.000 C 
BRANCH  24  25
ATOM     25  C   UNL     1       9.442  11.760  18.116  0.00  0.00    +0.000 C 
ATOM     26  F   UNL     1       9.707  13.037  18.469  0.00  0.00    +0.000 F 
ATOM     27  F   UNL     1      10.395  11.380  17.234  0.00  0.00    +0.000 F 
ATOM     28  F   UNL     1       8.259  11.762  17.460  0.00  0.00    +0.000 F 
ENDBRANCH  24  25
ENDBRANCH  23  24
ENDBRANCH  19  22
ENDBRANCH   5  18
TORSDOF 7
ENDMDL
MODEL 4
REMARK VINA RESULT:      -8.4      1.883      2.444
REMARK  Name = 
REMARK  8 active torsions:
REMARK  status: ('A' for Active; 'I' for Inactive)
REMARK    1  A    between atoms: C_1  and  N_2
REMARK    2  A    between atoms: C_6  and  C_7
REMARK    3  A    between atoms: C_7  and  C_8
REMARK    4  A    between atoms: C_8  and  C_9
REMARK    5  A    between atoms: C_13  and  N_14
REMARK    6  A    between atoms: C_15  and  C_17
REMARK    7  A    between atoms: C_18  and  C_19
REMARK    8  A    between atoms: C_19  and  C_20
REMARK                            x       y       z     vdW  Elec       q    Type
REMARK                         _______ _______ _______ _____ _____    ______ ____
ROOT
ATOM      1  C   UNL     1       4.341   4.895  17.237  0.00  0.00    +0.000 A 
ATOM      2  C   UNL     1       4.807   3.992  16.260  0.00  0.00    +0.000 A 
ATOM      3  C   UNL     1       5.943   4.253  15.505  0.00  0.00    +0.000 A 
ATOM      4  C   UNL     1       6.647   5.436  15.703  0.00  0.00    +0.000 A 
ATOM      5  C   UNL     1       6.228   6.369  16.652  0.00  0.00    +0.000 A 
ATOM      6  C   UNL     1       5.095   6.076  17.422  0.00  0.00    +0.000 A 
ENDROOT
BRANCH   1   7
ATOM      7  C   UNL     1       3.002   4.596  18.071  0.00  0.00    +0.000 C 
ATOM      8  C   UNL     1       1.688   5.293  17.614  0.00  0.00    +0.000 C 
ATOM      9  O   UNL     1       1.045   4.033  17.327  0.00  0.00    +0.000 OA
ATOM     10  C   UNL     1       2.238   3.303  17.659  0.00  0.00    +0.000 C 
BRANCH   7  11
ATOM     11  C   UNL     1       3.288   4.643  19.587  0.00  0.00    +0.000 C 
BRANCH  11  17
ATOM     12  C   UNL     1       1.867   2.660  21.625  0.00  0.00    +0.000 C 
ATOM     13  N   UNL     1       3.181   2.538  21.050  0.00  0.00    +0.000 N 
ATOM     14  C   UNL     1       4.064   1.541  21.339  0.00  0.00    +0.000 A 
ATOM     15  N   UNL     1       5.157   1.707  20.636  0.00  0.00    +0.000 NA
ATOM     16  N   UNL     1       4.999   2.845  19.886  0.00  0.00    +0.000 NA
ATOM     17  C   UNL     1       3.811   3.358  20.144  0.00  0.00    +0.000 A 
ENDBRANCH  11  17
ENDBRANCH   7  11
ENDBRANCH   1   7
BRANCH   5  18
ATOM     18  N   UNL     1       6.867   7.614  16.865  0.00  0.00    +0.000 N 
ATOM     19  C   UNL     1       7.814   7.864  17.833  0.00  0.00    +0.000 C 
ATOM     20  O   UNL     1       8.218   7.070  18.673  0.00  0.00    +0.000 OA
ATOM     21  H   UNL     1       6.626   8.357  16.222  0.00  0.00    +0.000 HD
BRANCH  19  22
ATOM     22  C   UNL     1       8.366   9.251  17.806  0.00  0.00    +0.000 C 
ATOM     23  C   UNL     1       9.017   9.658  18.905  0.00  0.00    +0.000 C 
BRANCH  23  24
ATOM     24  C   UNL     1       9.602  11.017  19.159  0.00  0.00    +0.000 C 
BRANCH  24  25
ATOM     25  C   UNL     1       9.578  11.419  20.635  0.00  0.00    +0.000 C 
ATOM     26  F   UNL     1       9.183  10.414  21.448  0.00  0.00    +0.000 F 
ATOM     27  F   UNL     1      10.804  11.813  21.048  0.00  0.00    +0.000 F 
ATOM     28  F   UNL     1       8.729  12.453  20.835  0.00  0.00    +0.000 F 
ENDBRANCH  24  25
ENDBRANCH  23  24
ENDBRANCH  19  22
ENDBRANCH   5  18
TORSDOF 7
ENDMDL
MODEL 5
REMARK VINA RESULT:      -8.4      5.532      7.142
REMARK  Name = 
REMARK  8 active torsions:
REMARK  status: ('A' for Active; 'I' for Inactive)
REMARK    1  A    between atoms: C_1  and  N_2
REMARK    2  A    between atoms: C_6  and  C_7
REMARK    3  A    between atoms: C_7  and  C_8
REMARK    4  A    between atoms: C_8  and  C_9
REMARK    5  A    between atoms: C_13  and  N_14
REMARK    6  A    between atoms: C_15  and  C_17
REMARK    7  A    between atoms: C_18  and  C_19
REMARK    8  A    between atoms: C_19  and  C_20
REMARK                            x       y       z     vdW  Elec       q    Type
REMARK                         _______ _______ _______ _____ _____    ______ ____
ROOT
ATOM      1  C   UNL     1       4.328   4.895  18.307  0.00  0.00    +0.000 A 
ATOM      2  C   UNL     1       5.522   5.103  19.027  0.00  0.00    +0.000 A 
ATOM      3  C   UNL     1       6.768   4.998  18.421  0.00  0.00    +0.000 A 
ATOM      4  C   UNL     1       6.855   4.676  17.071  0.00  0.00    +0.000 A 
ATOM      5  C   UNL     1       5.706   4.454  16.312  0.00  0.00    +0.000 A 
ATOM      6  C   UNL     1       4.459   4.590  16.934  0.00  0.00    +0.000 A 
ENDROOT
BRANCH   1   7
ATOM      7  C   UNL     1       2.898   4.979  19.032  0.00  0.00    +0.000 C 
ATOM      8  C   UNL     1       1.634   4.634  18.192  0.00  0.00    +0.000 C 
ATOM      9  O   UNL     1       1.300   3.513  19.038  0.00  0.00    +0.000 OA
ATOM     10  C   UNL     1       2.483   3.708  19.831  0.00  0.00    +0.000 C 
BRANCH   7  11
ATOM     11  C   UNL     1       2.799   6.259  19.888  0.00  0.00    +0.000 C 
BRANCH  11  17
ATOM     12  C   UNL     1       0.959   8.690  20.785  0.00  0.00    +0.000 C 
ATOM     13  N   UNL     1       1.612   8.502  19.517  0.00  0.00    +0.000 N 
ATOM     14  C   UNL     1       1.499   9.348  18.454  0.00  0.00    +0.000 A 
ATOM     15  N   UNL     1       2.231   8.904  17.461  0.00  0.00    +0.000 NA
ATOM     16  N   UNL     1       2.820   7.736  17.872  0.00  0.00    +0.000 NA
ATOM     17  C   UNL     1       2.438   7.482  19.109  0.00  0.00    +0.000 A 
ENDBRANCH  11  17
ENDBRANCH   7  11
ENDBRANCH   1   7
BRANCH   5  18
ATOM     18  N   UNL     1       5.727   4.070  14.949  0.00  0.00    +0.000 N 
ATOM     19  C   UNL     1       6.661   4.481  14.025  0.00  0.00    +0.000 C 
ATOM     20  O   UNL     1       7.584   5.260  14.224  0.00  0.00    +0.000 OA
ATOM     21  H   UNL     1       5.016   3.413  14.658  0.00  0.00    +0.000 HD
BRANCH  19  22
ATOM     22  C   UNL     1       6.482   3.885  12.667  0.00  0.00    +0.000 C 
ATOM     23  C   UNL     1       5.251   3.450  12.361  0.00  0.00    +0.000 C 
BRANCH  23  24
ATOM     24  C   UNL     1       4.826   2.754  11.100  0.00  0.00    +0.000 C 
BRANCH  24  25
ATOM     25  C   UNL     1       3.505   3.279  10.537  0.00  0.00    +0.000 C 
ATOM     26  F   UNL     1       3.352   3.017   9.219  0.00  0.00    +0.000 F 
ATOM     27  F   UNL     1       2.452   2.727  11.181  0.00  0.00    +0.000 F 
ATOM     28  F   UNL     1       3.419   4.620  10.692  0.00  0.00    +0.000 F 
ENDBRANCH  24  25
ENDBRANCH  23  24
ENDBRANCH  19  22
ENDBRANCH   5  18
TORSDOF 7
ENDMDL
MODEL 6
REMARK VINA RESULT:      -8.4      5.614      7.311
REMARK  Name = 
REMARK  8 active torsions:
REMARK  status: ('A' for Active; 'I' for Inactive)
REMARK    1  A    between atoms: C_1  and  N_2
REMARK    2  A    between atoms: C_6  and  C_7
REMARK    3  A    between atoms: C_7  and  C_8
REMARK    4  A    between atoms: C_8  and  C_9
REMARK    5  A    between atoms: C_13  and  N_14
REMARK    6  A    between atoms: C_15  and  C_17
REMARK    7  A    between atoms: C_18  and  C_19
REMARK    8  A    between atoms: C_19  and  C_20
REMARK                            x       y       z     vdW  Elec       q    Type
REMARK                         _______ _______ _______ _____ _____    ______ ____
ROOT
ATOM      1  C   UNL     1       4.266   5.529  18.212  0.00  0.00    +0.000 A 
ATOM      2  C   UNL     1       5.411   5.534  19.035  0.00  0.00    +0.000 A 
ATOM      3  C   UNL     1       6.652   5.127  18.563  0.00  0.00    +0.000 A 
ATOM      4  C   UNL     1       6.784   4.695  17.247  0.00  0.00    +0.000 A 
ATOM      5  C   UNL     1       5.683   4.663  16.390  0.00  0.00    +0.000 A 
ATOM      6  C   UNL     1       4.446   5.102  16.877  0.00  0.00    +0.000 A 
ENDROOT
BRANCH   1   7
ATOM      7  C   UNL     1       2.831   5.963  18.786  0.00  0.00    +0.000 C 
ATOM      8  C   UNL     1       2.796   6.959  19.981  0.00  0.00    +0.000 C 
ATOM      9  O   UNL     1       2.095   7.958  19.211  0.00  0.00    +0.000 OA
ATOM     10  C   UNL     1       2.142   7.139  18.030  0.00  0.00    +0.000 C 
BRANCH   7  11
ATOM     11  C   UNL     1       1.905   4.735  18.914  0.00  0.00    +0.000 C 
BRANCH  11  17
ATOM     12  C   UNL     1       3.667   2.090  18.961  0.00  0.00    +0.000 C 
ATOM     13  N   UNL     1       2.965   2.700  20.060  0.00  0.00    +0.000 N 
ATOM     14  C   UNL     1       2.911   2.191  21.323  0.00  0.00    +0.000 A 
ATOM     15  N   UNL     1       2.211   2.993  22.089  0.00  0.00    +0.000 NA
ATOM     16  N   UNL     1       1.781   4.037  21.310  0.00  0.00    +0.000 NA
ATOM     17  C   UNL     1       2.223   3.857  20.081  0.00  0.00    +0.000 A 
ENDBRANCH  11  17
ENDBRANCH   7  11
ENDBRANCH   1   7
BRANCH   5  18
ATOM     18  N   UNL     1       5.738   4.184  15.059  0.00  0.00    +0.000 N 
ATOM     19  C   UNL     1       6.697   4.526  14.133  0.00  0.00    +0.000 C 
ATOM     20  O   UNL     1       7.618   5.316  14.301  0.00  0.00    +0.000 OA
ATOM     21  H   UNL     1       5.032   3.510  14.796  0.00  0.00    +0.000 HD
BRANCH  19  22
ATOM     22  C   UNL     1       6.552   3.837  12.817  0.00  0.00    +0.000 C 
ATOM     23  C   UNL     1       5.314   3.449  12.476  0.00  0.00    +0.000 C 
BRANCH  23  24
ATOM     24  C   UNL     1       4.911   2.682  11.251  0.00  0.00    +0.000 C 
BRANCH  24  25
ATOM     25  C   UNL     1       3.640   3.219  10.592  0.00  0.00    +0.000 C 
ATOM     26  F   UNL     1       3.572   2.941   9.271  0.00  0.00    +0.000 F 
ATOM     27  F   UNL     1       2.536   2.693  11.171  0.00  0.00    +0.000 F 
ATOM     28  F   UNL     1       3.566   4.564  10.723  0.00  0.00    +0.000 F 
ENDBRANCH  24  25
ENDBRANCH  23  24
ENDBRANCH  19  22
ENDBRANCH   5  18
TORSDOF 7
ENDMDL
MODEL 7
REMARK VINA RESULT:      -8.3      1.509      1.815
REMARK  Name = 
REMARK  8 active torsions:
REMARK  status: ('A' for Active; 'I' for Inactive)
REMARK    1  A    between atoms: C_1  and  N_2
REMARK    2  A    between atoms: C_6  and  C_7
REMARK    3  A    between atoms: C_7  and  C_8
REMARK    4  A    between atoms: C_8  and  C_9
REMARK    5  A    between atoms: C_13  and  N_14
REMARK    6  A    between atoms: C_15  and  C_17
REMARK    7  A    between atoms: C_18  and  C_19
REMARK    8  A    between atoms: C_19  and  C_20
REMARK                            x       y       z     vdW  Elec       q    Type
REMARK                         _______ _______ _______ _____ _____    ______ ____
ROOT
ATOM      1  C   UNL     1       5.097   3.971  17.225  0.00  0.00    +0.000 A 
ATOM      2  C   UNL     1       5.305   3.702  15.857  0.00  0.00    +0.000 A 
ATOM      3  C   UNL     1       6.340   4.293  15.145  0.00  0.00    +0.000 A 
ATOM      4  C   UNL     1       7.200   5.180  15.784  0.00  0.00    +0.000 A 
ATOM      5  C   UNL     1       7.038   5.487  17.135  0.00  0.00    +0.000 A 
ATOM      6  C   UNL     1       6.004   4.861  17.842  0.00  0.00    +0.000 A 
ENDROOT
BRANCH   1   7
ATOM      7  C   UNL     1       3.870   3.311  18.023  0.00  0.00    +0.000 C 
ATOM      8  C   UNL     1       2.448   3.435  17.403  0.00  0.00    +0.000 C 
ATOM      9  O   UNL     1       2.314   2.004  17.264  0.00  0.00    +0.000 OA
ATOM     10  C   UNL     1       3.647   1.792  17.759  0.00  0.00    +0.000 C 
BRANCH   7  11
ATOM     11  C   UNL     1       3.970   3.629  19.529  0.00  0.00    +0.000 C 
BRANCH  11  17
ATOM     12  C   UNL     1       1.391   3.371  21.369  0.00  0.00    +0.000 C 
ATOM     13  N   UNL     1       1.918   4.561  20.754  0.00  0.00    +0.000 N 
ATOM     14  C   UNL     1       1.343   5.794  20.834  0.00  0.00    +0.000 A 
ATOM     15  N   UNL     1       2.079   6.663  20.185  0.00  0.00    +0.000 NA
ATOM     16  N   UNL     1       3.146   5.985  19.651  0.00  0.00    +0.000 NA
ATOM     17  C   UNL     1       3.045   4.712  19.982  0.00  0.00    +0.000 A 
ENDBRANCH  11  17
ENDBRANCH   7  11
ENDBRANCH   1   7
BRANCH   5  18
ATOM     18  N   UNL     1       7.844   6.421  17.831  0.00  0.00    +0.000 N 
ATOM     19  C   UNL     1       7.730   7.789  17.738  0.00  0.00    +0.000 C 
ATOM     20  O   UNL     1       6.952   8.405  17.021  0.00  0.00    +0.000 OA
ATOM     21  H   UNL     1       8.526   6.035  18.471  0.00  0.00    +0.000 HD
BRANCH  19  22
ATOM     22  C   UNL     1       8.671   8.543  18.619  0.00  0.00    +0.000 C 
ATOM     23  C   UNL     1       8.721   9.872  18.445  0.00  0.00    +0.000 C 
BRANCH  23  24
ATOM     24  C   UNL     1       9.625  10.843  19.147  0.00  0.00    +0.000 C 
BRANCH  24  25
ATOM     25  C   UNL     1      10.320  11.818  18.195  0.00  0.00    +0.000 C 
ATOM     26  F   UNL     1      11.332  12.496  18.782  0.00  0.00    +0.000 F 
ATOM     27  F   UNL     1      10.837  11.166  17.129  0.00  0.00    +0.000 F 
ATOM     28  F   UNL     1       9.443  12.734  17.726  0.00  0.00    +0.000 F 
ENDBRANCH  24  25
ENDBRANCH  23  24
ENDBRANCH  19  22
ENDBRANCH   5  18
TORSDOF 7
ENDMDL
MODEL 8
REMARK VINA RESULT:      -8.2      1.924      2.463
REMARK  Name = 
REMARK  8 active torsions:
REMARK  status: ('A' for Active; 'I' for Inactive)
REMARK    1  A    between atoms: C_1  and  N_2
REMARK    2  A    between atoms: C_6  and  C_7
REMARK    3  A    between atoms: C_7  and  C_8
REMARK    4  A    between atoms: C_8  and  C_9
REMARK    5  A    between atoms: C_13  and  N_14
REMARK    6  A    between atoms: C_15  and  C_17
REMARK    7  A    between atoms: C_18  and  C_19
REMARK    8  A    between atoms: C_19  and  C_20
REMARK                            x       y       z     vdW  Elec       q    Type
REMARK                         _______ _______ _______ _____ _____    ______ ____
ROOT
ATOM      1  C   UNL     1       4.966   4.167  17.189  0.00  0.00    +0.000 A 
ATOM      2  C   UNL     1       5.203   3.785  15.853  0.00  0.00    +0.000 A 
ATOM      3  C   UNL     1       6.302   4.251  15.143  0.00  0.00    +0.000 A 
ATOM      4  C   UNL     1       7.199   5.122  15.751  0.00  0.00    +0.000 A 
ATOM      5  C   UNL     1       7.011   5.539  17.070  0.00  0.00    +0.000 A 
ATOM      6  C   UNL     1       5.912   5.037  17.778  0.00  0.00    +0.000 A 
ENDROOT
BRANCH   1   7
ATOM      7  C   UNL     1       3.669   3.651  17.982  0.00  0.00    +0.000 C 
ATOM      8  C   UNL     1       2.320   3.590  17.208  0.00  0.00    +0.000 C 
ATOM      9  O   UNL     1       2.218   2.160  17.370  0.00  0.00    +0.000 OA
ATOM     10  C   UNL     1       3.493   2.104  18.033  0.00  0.00    +0.000 C 
BRANCH   7  11
ATOM     11  C   UNL     1       3.603   4.289  19.385  0.00  0.00    +0.000 C 
BRANCH  11  17
ATOM     12  C   UNL     1       0.517   4.118  20.125  0.00  0.00    +0.000 C 
ATOM     13  N   UNL     1       1.608   3.398  20.729  0.00  0.00    +0.000 N 
ATOM     14  C   UNL     1       1.483   2.538  21.778  0.00  0.00    +0.000 A 
ATOM     15  N   UNL     1       2.657   2.035  22.075  0.00  0.00    +0.000 NA
ATOM     16  N   UNL     1       3.573   2.591  21.218  0.00  0.00    +0.000 NA
ATOM     17  C   UNL     1       2.945   3.425  20.413  0.00  0.00    +0.000 A 
ENDBRANCH  11  17
ENDBRANCH   7  11
ENDBRANCH   1   7
BRANCH   5  18
ATOM     18  N   UNL     1       7.855   6.464  17.729  0.00  0.00    +0.000 N 
ATOM     19  C   UNL     1       7.728   7.834  17.669  0.00  0.00    +0.000 C 
ATOM     20  O   UNL     1       6.902   8.458  17.016  0.00  0.00    +0.000 OA
ATOM     21  H   UNL     1       8.579   6.072  18.316  0.00  0.00    +0.000 HD
BRANCH  19  22
ATOM     22  C   UNL     1       8.720   8.578  18.501  0.00  0.00    +0.000 C 
ATOM     23  C   UNL     1       8.678   9.916  18.430  0.00  0.00    +0.000 C 
BRANCH  23  24
ATOM     24  C   UNL     1       9.602  10.887  19.107  0.00  0.00    +0.000 C 
BRANCH  24  25
ATOM     25  C   UNL     1      10.224  11.900  18.144  0.00  0.00    +0.000 C 
ATOM     26  F   UNL     1       9.308  12.714  17.572  0.00  0.00    +0.000 F 
ATOM     27  F   UNL     1      11.118  12.688  18.783  0.00  0.00    +0.000 F 
ATOM     28  F   UNL     1      10.879  11.268  17.144  0.00  0.00    +0.000 F 
ENDBRANCH  24  25
ENDBRANCH  23  24
ENDBRANCH  19  22
ENDBRANCH   5  18
TORSDOF 7
ENDMDL
MODEL 9
REMARK VINA RESULT:      -8.2      1.728      2.360
REMARK  Name = 
REMARK  8 active torsions:
REMARK  status: ('A' for Active; 'I' for Inactive)
REMARK    1  A    between atoms: C_1  and  N_2
REMARK    2  A    between atoms: C_6  and  C_7
REMARK    3  A    between atoms: C_7  and  C_8
REMARK    4  A    between atoms: C_8  and  C_9
REMARK    5  A    between atoms: C_13  and  N_14
REMARK    6  A    between atoms: C_15  and  C_17
REMARK    7  A    between atoms: C_18  and  C_19
REMARK    8  A    between atoms: C_19  and  C_20
REMARK                            x       y       z     vdW  Elec       q    Type
REMARK                         _______ _______ _______ _____ _____    ______ ____
ROOT
ATOM      1  C   UNL     1       4.914   4.283  17.039  0.00  0.00    +0.000 A 
ATOM      2  C   UNL     1       5.394   3.541  15.941  0.00  0.00    +0.000 A 
ATOM      3  C   UNL     1       6.415   4.015  15.128  0.00  0.00    +0.000 A 
ATOM      4  C   UNL     1       6.986   5.256  15.388  0.00  0.00    +0.000 A 
ATOM      5  C   UNL     1       6.547   6.037  16.458  0.00  0.00    +0.000 A 
ATOM      6  C   UNL     1       5.534   5.530  17.282  0.00  0.00    +0.000 A 
ENDROOT
BRANCH   1   7
ATOM      7  C   UNL     1       3.705   3.739  17.944  0.00  0.00    +0.000 C 
ATOM      8  C   UNL     1       2.279   3.725  17.321  0.00  0.00    +0.000 C 
ATOM      9  O   UNL     1       2.179   2.289  17.425  0.00  0.00    +0.000 OA
ATOM     10  C   UNL     1       3.518   2.192  17.940  0.00  0.00    +0.000 C 
BRANCH   7  11
ATOM     11  C   UNL     1       3.802   4.307  19.375  0.00  0.00    +0.000 C 
BRANCH  11  17
ATOM     12  C   UNL     1       0.762   4.485  20.286  0.00  0.00    +0.000 C 
ATOM     13  N   UNL     1       1.783   3.608  20.795  0.00  0.00    +0.000 N 
ATOM     14  C   UNL     1       1.605   2.720  21.813  0.00  0.00    +0.000 A 
ATOM     15  N   UNL     1       2.720   2.062  22.021  0.00  0.00    +0.000 NA
ATOM     16  N   UNL     1       3.653   2.540  21.136  0.00  0.00    +0.000 NA
ATOM     17  C   UNL     1       3.095   3.484  20.403  0.00  0.00    +0.000 A 
ENDBRANCH  11  17
ENDBRANCH   7  11
ENDBRANCH   1   7
BRANCH   5  18
ATOM     18  N   UNL     1       7.047   7.330  16.745  0.00  0.00    +0.000 N 
ATOM     19  C   UNL     1       7.824   7.655  17.834  0.00  0.00    +0.000 C 
ATOM     20  O   UNL     1       8.167   6.897  18.732  0.00  0.00    +0.000 OA
ATOM     21  H   UNL     1       6.841   8.051  16.066  0.00  0.00    +0.000 HD
BRANCH  19  22
ATOM     22  C   UNL     1       8.262   9.082  17.870  0.00  0.00    +0.000 C 
ATOM     23  C   UNL     1       8.945   9.472  18.956  0.00  0.00    +0.000 C 
BRANCH  23  24
ATOM     24  C   UNL     1       9.434  10.857  19.267  0.00  0.00    +0.000 C 
BRANCH  24  25
ATOM     25  C   UNL     1       9.120  11.871  18.166  0.00  0.00    +0.000 C 
ATOM     26  F   UNL     1      10.138  12.030  17.290  0.00  0.00    +0.000 F 
ATOM     27  F   UNL     1       8.034  11.491  17.455  0.00  0.00    +0.000 F 
ATOM     28  F   UNL     1       8.854  13.086  18.697  0.00  0.00    +0.000 F 
ENDBRANCH  24  25
ENDBRANCH  23  24
ENDBRANCH  19  22
ENDBRANCH   5  18
TORSDOF 7
ENDMDL
