MODEL 1
REMARK VINA RESULT:      -8.8      0.000      0.000
REMARK  Name = 
REMARK  4 active torsions:
REMARK  status: ('A' for Active; 'I' for Inactive)
REMARK    1  A    between atoms: C_1  and  C_2
REMARK    2  A    between atoms: C_6  and  C_7
REMARK    3  A    between atoms: C_7  and  C_8
REMARK    4  A    between atoms: N_10  and  C_11
REMARK                            x       y       z     vdW  Elec       q    Type
REMARK                         _______ _______ _______ _____ _____    ______ ____
ROOT
ATOM      1  C   UNL     1       2.696   5.124  18.387  0.00  0.00    +0.000 C 
ATOM      2  O   UNL     1       1.619   4.864  17.867  0.00  0.00    +0.000 OA
ATOM      3  N   UNL     1       3.098   6.334  18.934  0.00  0.00    +0.000 N 
ATOM      4  H   UNL     1       4.069   6.403  19.213  0.00  0.00    +0.000 HD
ENDROOT
BRANCH   3   5
ATOM      5  C   UNL     1       2.318   7.513  18.997  0.00  0.00    +0.000 A 
ATOM      6  C   UNL     1       2.058   8.298  17.869  0.00  0.00    +0.000 A 
ATOM      7  C   UNL     1       1.309   9.472  17.959  0.00  0.00    +0.000 A 
ATOM      8  C   UNL     1       0.790   9.887  19.178  0.00  0.00    +0.000 A 
ATOM      9  N   UNL     1       0.045  11.075  19.222  0.00  0.00    +0.000 NA
ATOM     10  C   UNL     1      -0.427  11.438  20.364  0.00  0.00    +0.000 A 
ATOM     11  N   UNL     1      -0.242  10.737  21.520  0.00  0.00    +0.000 N 
ATOM     12  C   UNL     1       0.468   9.567  21.580  0.00  0.00    +0.000 A 
ATOM     13  O   UNL     1       0.624   8.947  22.630  0.00  0.00    +0.000 OA
ATOM     14  C   UNL     1       1.036   9.095  20.306  0.00  0.00    +0.000 A 
ATOM     15  C   UNL     1       1.793   7.914  20.228  0.00  0.00    +0.000 A 
ATOM     16  H   UNL     1      -0.642  11.068  22.388  0.00  0.00    +0.000 HD
ENDBRANCH   3   5
BRANCH   1  17
ATOM     17  C   UNL     1       3.763   4.054  18.393  0.00  0.00    +0.000 C 
ATOM     18  C   UNL     1       3.923   3.191  19.639  0.00  0.00    +0.000 C 
ATOM     19  C   UNL     1       3.271   2.610  18.425  0.00  0.00    +0.000 C 
BRANCH  17  25
ATOM     20  C   UNL     1       5.997   3.951  13.921  0.00  0.00    +0.000 C 
ATOM     21  C   UNL     1       6.100   4.283  15.378  0.00  0.00    +0.000 A 
ATOM     22  C   UNL     1       7.338   4.434  16.008  0.00  0.00    +0.000 A 
ATOM     23  C   UNL     1       7.403   4.630  17.386  0.00  0.00    +0.000 A 
ATOM     24  C   UNL     1       6.233   4.615  18.146  0.00  0.00    +0.000 A 
ATOM     25  C   UNL     1       4.977   4.412  17.549  0.00  0.00    +0.000 A 
ATOM     26  C   UNL     1       4.931   4.318  16.149  0.00  0.00    +0.000 A 
ENDBRANCH  17  25
ENDBRANCH   1  17
TORSDOF 3
ENDMDL
MODEL 2
REMARK VINA RESULT:      -8.5      0.633      1.596
REMARK  Name = 
REMARK  4 active torsions:
REMARK  status: ('A' for Active; 'I' for Inactive)
REMARK    1  A    between atoms: C_1  and  C_2
REMARK    2  A    between atoms: C_6  and  C_7
REMARK    3  A    between atoms: C_7  and  C_8
REMARK    4  A    between atoms: N_10  and  C_11
REMARK                            x       y       z     vdW  Elec       q    Type
REMARK                         _______ _______ _______ _____ _____    ______ ____
ROOT
ATOM      1  C   UNL     1       2.476   4.927  18.310  0.00  0.00    +0.000 C 
ATOM      2  O   UNL     1       1.454   4.825  17.645  0.00  0.00    +0.000 OA
ATOM      3  N   UNL     1       2.944   6.053  18.970  0.00  0.00    +0.000 N 
ATOM      4  H   UNL     1       3.871   5.989  19.373  0.00  0.00    +0.000 HD
ENDROOT
BRANCH   3   5
ATOM      5  C   UNL     1       2.310   7.318  19.000  0.00  0.00    +0.000 A 
ATOM      6  C   UNL     1       2.191   8.121  17.862  0.00  0.00    +0.000 A 
ATOM      7  C   UNL     1       1.585   9.378  17.921  0.00  0.00    +0.000 A 
ATOM      8  C   UNL     1       1.071   9.858  19.117  0.00  0.00    +0.000 A 
ATOM      9  N   UNL     1       0.473  11.127  19.130  0.00  0.00    +0.000 NA
ATOM     10  C   UNL     1       0.002  11.550  20.252  0.00  0.00    +0.000 A 
ATOM     11  N   UNL     1       0.055  10.839  21.415  0.00  0.00    +0.000 N 
ATOM     12  C   UNL     1       0.616   9.593  21.505  0.00  0.00    +0.000 A 
ATOM     13  O   UNL     1       0.654   8.964  22.561  0.00  0.00    +0.000 OA
ATOM     14  C   UNL     1       1.174   9.049  20.255  0.00  0.00    +0.000 A 
ATOM     15  C   UNL     1       1.787   7.785  20.209  0.00  0.00    +0.000 A 
ATOM     16  H   UNL     1      -0.337  11.221  22.266  0.00  0.00    +0.000 HD
ENDBRANCH   3   5
BRANCH   1  17
ATOM     17  C   UNL     1       3.397   3.731  18.391  0.00  0.00    +0.000 C 
ATOM     18  C   UNL     1       3.225   2.755  19.547  0.00  0.00    +0.000 C 
ATOM     19  C   UNL     1       2.750   2.365  18.183  0.00  0.00    +0.000 C 
BRANCH  17  25
ATOM     20  C   UNL     1       7.943   5.717  19.022  0.00  0.00    +0.000 C 
ATOM     21  C   UNL     1       6.974   5.046  18.097  0.00  0.00    +0.000 A 
ATOM     22  C   UNL     1       7.125   5.107  16.710  0.00  0.00    +0.000 A 
ATOM     23  C   UNL     1       6.147   4.572  15.875  0.00  0.00    +0.000 A 
ATOM     24  C   UNL     1       4.986   4.027  16.424  0.00  0.00    +0.000 A 
ATOM     25  C   UNL     1       4.780   3.999  17.814  0.00  0.00    +0.000 A 
ATOM     26  C   UNL     1       5.825   4.452  18.634  0.00  0.00    +0.000 A 
ENDBRANCH  17  25
ENDBRANCH   1  17
TORSDOF 3
ENDMDL
MODEL 3
REMARK VINA RESULT:      -8.4      1.342      1.931
REMARK  Name = 
REMARK  4 active torsions:
REMARK  status: ('A' for Active; 'I' for Inactive)
REMARK    1  A    between atoms: C_1  and  C_2
REMARK    2  A    between atoms: C_6  and  C_7
REMARK    3  A    between atoms: C_7  and  C_8
REMARK    4  A    between atoms: N_10  and  C_11
REMARK                            x       y       z     vdW  Elec       q    Type
REMARK                         _______ _______ _______ _____ _____    ______ ____
ROOT
ATOM      1  C   UNL     1       2.758   4.749  18.608  0.00  0.00    +0.000 C 
ATOM      2  O   UNL     1       1.709   4.616  17.993  0.00  0.00    +0.000 OA
ATOM      3  N   UNL     1       3.115   5.790  19.452  0.00  0.00    +0.000 N 
ATOM      4  H   UNL     1       4.072   5.795  19.783  0.00  0.00    +0.000 HD
ENDROOT
BRANCH   3   5
ATOM      5  C   UNL     1       2.313   6.912  19.767  0.00  0.00    +0.000 A 
ATOM      6  C   UNL     1       1.526   6.967  20.921  0.00  0.00    +0.000 A 
ATOM      7  C   UNL     1       0.721   8.074  21.198  0.00  0.00    +0.000 A 
ATOM      8  C   UNL     1       0.691   9.159  20.333  0.00  0.00    +0.000 A 
ATOM      9  N   UNL     1      -0.134  10.249  20.650  0.00  0.00    +0.000 NA
ATOM     10  C   UNL     1      -0.143  11.244  19.833  0.00  0.00    +0.000 A 
ATOM     11  N   UNL     1       0.597  11.295  18.688  0.00  0.00    +0.000 N 
ATOM     12  C   UNL     1       1.432  10.284  18.293  0.00  0.00    +0.000 A 
ATOM     13  O   UNL     1       2.094  10.345  17.259  0.00  0.00    +0.000 OA
ATOM     14  C   UNL     1       1.491   9.113  19.185  0.00  0.00    +0.000 A 
ATOM     15  C   UNL     1       2.300   8.002  18.893  0.00  0.00    +0.000 A 
ATOM     16  H   UNL     1       0.554  12.106  18.087  0.00  0.00    +0.000 HD
ENDBRANCH   3   5
BRANCH   1  17
ATOM     17  C   UNL     1       3.843   3.717  18.400  0.00  0.00    +0.000 C 
ATOM     18  C   UNL     1       4.115   2.710  19.511  0.00  0.00    +0.000 C 
ATOM     19  C   UNL     1       3.383   2.267  18.284  0.00  0.00    +0.000 C 
BRANCH  17  25
ATOM     20  C   UNL     1       5.882   3.963  13.840  0.00  0.00    +0.000 C 
ATOM     21  C   UNL     1       6.017   4.258  15.303  0.00  0.00    +0.000 A 
ATOM     22  C   UNL     1       7.262   4.504  15.888  0.00  0.00    +0.000 A 
ATOM     23  C   UNL     1       7.368   4.661  17.268  0.00  0.00    +0.000 A 
ATOM     24  C   UNL     1       6.239   4.513  18.074  0.00  0.00    +0.000 A 
ATOM     25  C   UNL     1       4.982   4.213  17.521  0.00  0.00    +0.000 A 
ATOM     26  C   UNL     1       4.884   4.160  16.121  0.00  0.00    +0.000 A 
ENDBRANCH  17  25
ENDBRANCH   1  17
TORSDOF 3
ENDMDL
MODEL 4
REMARK VINA RESULT:      -8.1      1.489      2.507
REMARK  Name = 
REMARK  4 active torsions:
REMARK  status: ('A' for Active; 'I' for Inactive)
REMARK    1  A    between atoms: C_1  and  C_2
REMARK    2  A    between atoms: C_6  and  C_7
REMARK    3  A    between atoms: C_7  and  C_8
REMARK    4  A    between atoms: N_10  and  C_11
REMARK                            x       y       z     vdW  Elec       q    Type
REMARK                         _______ _______ _______ _____ _____    ______ ____
ROOT
ATOM      1  C   UNL     1       2.628   4.612  18.852  0.00  0.00    +0.000 C 
ATOM      2  O   UNL     1       1.542   4.442  18.314  0.00  0.00    +0.000 OA
ATOM      3  N   UNL     1       3.040   5.712  19.589  0.00  0.00    +0.000 N 
ATOM      4  H   UNL     1       4.016   5.735  19.859  0.00  0.00    +0.000 HD
ENDROOT
BRANCH   3   5
ATOM      5  C   UNL     1       2.263   6.862  19.865  0.00  0.00    +0.000 A 
ATOM      6  C   UNL     1       1.480   6.977  21.017  0.00  0.00    +0.000 A 
ATOM      7  C   UNL     1       0.700   8.110  21.255  0.00  0.00    +0.000 A 
ATOM      8  C   UNL     1       0.693   9.164  20.353  0.00  0.00    +0.000 A 
ATOM      9  N   UNL     1      -0.108  10.282  20.632  0.00  0.00    +0.000 NA
ATOM     10  C   UNL     1      -0.096  11.248  19.780  0.00  0.00    +0.000 A 
ATOM     11  N   UNL     1       0.642  11.241  18.633  0.00  0.00    +0.000 N 
ATOM     12  C   UNL     1       1.455  10.198  18.273  0.00  0.00    +0.000 A 
ATOM     13  O   UNL     1       2.115  10.208  17.236  0.00  0.00    +0.000 OA
ATOM     14  C   UNL     1       1.489   9.059  19.206  0.00  0.00    +0.000 A 
ATOM     15  C   UNL     1       2.273   7.921  18.953  0.00  0.00    +0.000 A 
ATOM     16  H   UNL     1       0.616  12.032  18.003  0.00  0.00    +0.000 HD
ENDBRANCH   3   5
BRANCH   1  17
ATOM     17  C   UNL     1       3.693   3.558  18.658  0.00  0.00    +0.000 C 
ATOM     18  C   UNL     1       3.855   2.480  19.722  0.00  0.00    +0.000 C 
ATOM     19  C   UNL     1       3.199   2.134  18.424  0.00  0.00    +0.000 C 
BRANCH  17  25
ATOM     20  C   UNL     1       7.919   6.232  18.693  0.00  0.00    +0.000 C 
ATOM     21  C   UNL     1       6.928   5.444  17.891  0.00  0.00    +0.000 A 
ATOM     22  C   UNL     1       6.841   5.574  16.503  0.00  0.00    +0.000 A 
ATOM     23  C   UNL     1       5.835   4.915  15.800  0.00  0.00    +0.000 A 
ATOM     24  C   UNL     1       4.877   4.171  16.489  0.00  0.00    +0.000 A 
ATOM     25  C   UNL     1       4.906   4.065  17.891  0.00  0.00    +0.000 A 
ATOM     26  C   UNL     1       5.987   4.655  18.564  0.00  0.00    +0.000 A 
ENDBRANCH  17  25
ENDBRANCH   1  17
TORSDOF 3
ENDMDL
MODEL 5
REMARK VINA RESULT:      -8.0      1.041      1.176
REMARK  Name = 
REMARK  4 active torsions:
REMARK  status: ('A' for Active; 'I' for Inactive)
REMARK    1  A    between atoms: C_1  and  C_2
REMARK    2  A    between atoms: C_6  and  C_7
REMARK    3  A    between atoms: C_7  and  C_8
REMARK    4  A    between atoms: N_10  and  C_11
REMARK                            x       y       z     vdW  Elec       q    Type
REMARK                         _______ _______ _______ _____ _____    ______ ____
ROOT
ATOM      1  C   UNL     1       2.519   5.982  18.838  0.00  0.00    +0.000 C 
ATOM      2  O   UNL     1       1.922   6.126  17.779  0.00  0.00    +0.000 OA
ATOM      3  N   UNL     1       2.506   6.831  19.935  0.00  0.00    +0.000 N 
ATOM      4  H   UNL     1       3.156   6.615  20.681  0.00  0.00    +0.000 HD
ENDROOT
BRANCH   3   5
ATOM      5  C   UNL     1       1.781   8.042  20.035  0.00  0.00    +0.000 A 
ATOM      6  C   UNL     1       1.576   8.883  18.938  0.00  0.00    +0.000 A 
ATOM      7  C   UNL     1       0.880  10.087  19.067  0.00  0.00    +0.000 A 
ATOM      8  C   UNL     1       0.362  10.475  20.294  0.00  0.00    +0.000 A 
ATOM      9  N   UNL     1      -0.328  11.694  20.377  0.00  0.00    +0.000 NA
ATOM     10  C   UNL     1      -0.802  12.031  21.526  0.00  0.00    +0.000 A 
ATOM     11  N   UNL     1      -0.669  11.276  22.655  0.00  0.00    +0.000 N 
ATOM     12  C   UNL     1      -0.015  10.072  22.676  0.00  0.00    +0.000 A 
ATOM     13  O   UNL     1       0.095   9.402  23.701  0.00  0.00    +0.000 OA
ATOM     14  C   UNL     1       0.551   9.626  21.391  0.00  0.00    +0.000 A 
ATOM     15  C   UNL     1       1.255   8.415  21.275  0.00  0.00    +0.000 A 
ATOM     16  H   UNL     1      -1.067  11.589  23.530  0.00  0.00    +0.000 HD
ENDBRANCH   3   5
BRANCH   1  17
ATOM     17  C   UNL     1       3.441   4.793  18.982  0.00  0.00    +0.000 C 
ATOM     18  C   UNL     1       3.383   3.977  20.267  0.00  0.00    +0.000 C 
ATOM     19  C   UNL     1       2.773   3.422  19.020  0.00  0.00    +0.000 C 
BRANCH  17  25
ATOM     20  C   UNL     1       6.126   3.938  14.851  0.00  0.00    +0.000 C 
ATOM     21  C   UNL     1       6.096   4.468  16.252  0.00  0.00    +0.000 A 
ATOM     22  C   UNL     1       7.267   4.641  16.994  0.00  0.00    +0.000 A 
ATOM     23  C   UNL     1       7.198   5.027  18.331  0.00  0.00    +0.000 A 
ATOM     24  C   UNL     1       5.956   5.182  18.947  0.00  0.00    +0.000 A 
ATOM     25  C   UNL     1       4.760   4.963  18.242  0.00  0.00    +0.000 A 
ATOM     26  C   UNL     1       4.857   4.674  16.872  0.00  0.00    +0.000 A 
ENDBRANCH  17  25
ENDBRANCH   1  17
TORSDOF 3
ENDMDL
MODEL 6
REMARK VINA RESULT:      -8.0      1.859      3.644
REMARK  Name = 
REMARK  4 active torsions:
REMARK  status: ('A' for Active; 'I' for Inactive)
REMARK    1  A    between atoms: C_1  and  C_2
REMARK    2  A    between atoms: C_6  and  C_7
REMARK    3  A    between atoms: C_7  and  C_8
REMARK    4  A    between atoms: N_10  and  C_11
REMARK                            x       y       z     vdW  Elec       q    Type
REMARK                         _______ _______ _______ _____ _____    ______ ____
ROOT
ATOM      1  C   UNL     1       2.999   7.091  18.310  0.00  0.00    +0.000 C 
ATOM      2  O   UNL     1       3.202   7.839  17.363  0.00  0.00    +0.000 OA
ATOM      3  N   UNL     1       2.205   7.334  19.421  0.00  0.00    +0.000 N 
ATOM      4  H   UNL     1       2.249   6.648  20.166  0.00  0.00    +0.000 HD
ENDROOT
BRANCH   3   5
ATOM      5  C   UNL     1       1.466   8.515  19.668  0.00  0.00    +0.000 A 
ATOM      6  C   UNL     1       1.106   9.398  18.646  0.00  0.00    +0.000 A 
ATOM      7  C   UNL     1       0.399  10.571  18.917  0.00  0.00    +0.000 A 
ATOM      8  C   UNL     1       0.024  10.886  20.215  0.00  0.00    +0.000 A 
ATOM      9  N   UNL     1      -0.684  12.076  20.440  0.00  0.00    +0.000 NA
ATOM     10  C   UNL     1      -1.023  12.345  21.653  0.00  0.00    +0.000 A 
ATOM     11  N   UNL     1      -0.733  11.544  22.719  0.00  0.00    +0.000 N 
ATOM     12  C   UNL     1      -0.049  10.363  22.602  0.00  0.00    +0.000 A 
ATOM     13  O   UNL     1       0.203   9.651  23.572  0.00  0.00    +0.000 OA
ATOM     14  C   UNL     1       0.368   9.995  21.238  0.00  0.00    +0.000 A 
ATOM     15  C   UNL     1       1.085   8.814  20.978  0.00  0.00    +0.000 A 
ATOM     16  H   UNL     1      -1.030  11.804  23.650  0.00  0.00    +0.000 HD
ENDBRANCH   3   5
BRANCH   1  17
ATOM     17  C   UNL     1       3.731   5.769  18.345  0.00  0.00    +0.000 C 
ATOM     18  C   UNL     1       4.998   5.614  17.513  0.00  0.00    +0.000 C 
ATOM     19  C   UNL     1       5.110   5.777  18.996  0.00  0.00    +0.000 C 
BRANCH  17  25
ATOM     20  C   UNL     1       1.384   2.758  21.575  0.00  0.00    +0.000 C 
ATOM     21  C   UNL     1       1.731   3.057  20.148  0.00  0.00    +0.000 A 
ATOM     22  C   UNL     1       1.648   2.078  19.155  0.00  0.00    +0.000 A 
ATOM     23  C   UNL     1       2.085   2.355  17.862  0.00  0.00    +0.000 A 
ATOM     24  C   UNL     1       2.662   3.591  17.572  0.00  0.00    +0.000 A 
ATOM     25  C   UNL     1       2.808   4.578  18.563  0.00  0.00    +0.000 A 
ATOM     26  C   UNL     1       2.268   4.311  19.830  0.00  0.00    +0.000 A 
ENDBRANCH  17  25
ENDBRANCH   1  17
TORSDOF 3
ENDMDL
MODEL 7
REMARK VINA RESULT:      -8.0      2.659      7.941
REMARK  Name = 
REMARK  4 active torsions:
REMARK  status: ('A' for Active; 'I' for Inactive)
REMARK    1  A    between atoms: C_1  and  C_2
REMARK    2  A    between atoms: C_6  and  C_7
REMARK    3  A    between atoms: C_7  and  C_8
REMARK    4  A    between atoms: N_10  and  C_11
REMARK                            x       y       z     vdW  Elec       q    Type
REMARK                         _______ _______ _______ _____ _____    ______ ____
ROOT
ATOM      1  C   UNL     1       1.467   9.087  18.701  0.00  0.00    +0.000 C 
ATOM      2  O   UNL     1       1.732   8.728  17.561  0.00  0.00    +0.000 OA
ATOM      3  N   UNL     1       1.573   8.343  19.866  0.00  0.00    +0.000 N 
ATOM      4  H   UNL     1       1.196   8.763  20.706  0.00  0.00    +0.000 HD
ENDROOT
BRANCH   3   5
ATOM      5  C   UNL     1       2.019   7.003  19.954  0.00  0.00    +0.000 A 
ATOM      6  C   UNL     1       1.297   6.018  20.634  0.00  0.00    +0.000 A 
ATOM      7  C   UNL     1       1.770   4.708  20.731  0.00  0.00    +0.000 A 
ATOM      8  C   UNL     1       2.972   4.346  20.140  0.00  0.00    +0.000 A 
ATOM      9  N   UNL     1       3.410   3.019  20.265  0.00  0.00    +0.000 NA
ATOM     10  C   UNL     1       4.528   2.707  19.706  0.00  0.00    +0.000 A 
ATOM     11  N   UNL     1       5.301   3.589  19.009  0.00  0.00    +0.000 N 
ATOM     12  C   UNL     1       4.960   4.903  18.831  0.00  0.00    +0.000 A 
ATOM     13  O   UNL     1       5.667   5.685  18.198  0.00  0.00    +0.000 OA
ATOM     14  C   UNL     1       3.690   5.327  19.444  0.00  0.00    +0.000 A 
ATOM     15  C   UNL     1       3.226   6.649  19.346  0.00  0.00    +0.000 A 
ATOM     16  H   UNL     1       6.169   3.285  18.587  0.00  0.00    +0.000 HD
ENDBRANCH   3   5
BRANCH   1  17
ATOM     17  C   UNL     1       0.893  10.472  18.897  0.00  0.00    +0.000 C 
ATOM     18  C   UNL     1       1.518  11.378  19.950  0.00  0.00    +0.000 C 
ATOM     19  C   UNL     1       1.793  11.639  18.503  0.00  0.00    +0.000 C 
BRANCH  17  25
ATOM     20  C   UNL     1      -2.835   9.818  15.629  0.00  0.00    +0.000 C 
ATOM     21  C   UNL     1      -2.409  10.307  16.980  0.00  0.00    +0.000 A 
ATOM     22  C   UNL     1      -3.192  11.201  17.714  0.00  0.00    +0.000 A 
ATOM     23  C   UNL     1      -2.717  11.724  18.914  0.00  0.00    +0.000 A 
ATOM     24  C   UNL     1      -1.432  11.403  19.353  0.00  0.00    +0.000 A 
ATOM     25  C   UNL     1      -0.600  10.548  18.610  0.00  0.00    +0.000 A 
ATOM     26  C   UNL     1      -1.141   9.955  17.458  0.00  0.00    +0.000 A 
ENDBRANCH  17  25
ENDBRANCH   1  17
TORSDOF 3
ENDMDL
MODEL 8
REMARK VINA RESULT:      -7.9      2.733      7.834
REMARK  Name = 
REMARK  4 active torsions:
REMARK  status: ('A' for Active; 'I' for Inactive)
REMARK    1  A    between atoms: C_1  and  C_2
REMARK    2  A    between atoms: C_6  and  C_7
REMARK    3  A    between atoms: C_7  and  C_8
REMARK    4  A    between atoms: N_10  and  C_11
REMARK                            x       y       z     vdW  Elec       q    Type
REMARK                         _______ _______ _______ _____ _____    ______ ____
ROOT
ATOM      1  C   UNL     1       1.431   9.432  18.510  0.00  0.00    +0.000 C 
ATOM      2  O   UNL     1       1.692   9.422  17.315  0.00  0.00    +0.000 OA
ATOM      3  N   UNL     1       1.704   8.440  19.441  0.00  0.00    +0.000 N 
ATOM      4  H   UNL     1       1.308   8.566  20.364  0.00  0.00    +0.000 HD
ENDROOT
BRANCH   3   5
ATOM      5  C   UNL     1       2.352   7.211  19.175  0.00  0.00    +0.000 A 
ATOM      6  C   UNL     1       3.177   7.027  18.061  0.00  0.00    +0.000 A 
ATOM      7  C   UNL     1       3.785   5.797  17.804  0.00  0.00    +0.000 A 
ATOM      8  C   UNL     1       3.593   4.722  18.660  0.00  0.00    +0.000 A 
ATOM      9  N   UNL     1       4.222   3.504  18.360  0.00  0.00    +0.000 NA
ATOM     10  C   UNL     1       4.029   2.521  19.171  0.00  0.00    +0.000 A 
ATOM     11  N   UNL     1       3.255   2.600  20.291  0.00  0.00    +0.000 N 
ATOM     12  C   UNL     1       2.601   3.744  20.669  0.00  0.00    +0.000 A 
ATOM     13  O   UNL     1       1.908   3.799  21.682  0.00  0.00    +0.000 OA
ATOM     14  C   UNL     1       2.780   4.908  19.784  0.00  0.00    +0.000 A 
ATOM     15  C   UNL     1       2.158   6.139  20.050  0.00  0.00    +0.000 A 
ATOM     16  H   UNL     1       3.144   1.796  20.894  0.00  0.00    +0.000 HD
ENDBRANCH   3   5
BRANCH   1  17
ATOM     17  C   UNL     1       0.663  10.610  19.063  0.00  0.00    +0.000 C 
ATOM     18  C   UNL     1       1.089  11.194  20.405  0.00  0.00    +0.000 C 
ATOM     19  C   UNL     1       1.421  11.931  19.147  0.00  0.00    +0.000 C 
BRANCH  17  25
ATOM     20  C   UNL     1      -2.759   9.766  15.516  0.00  0.00    +0.000 C 
ATOM     21  C   UNL     1      -2.465  10.280  16.892  0.00  0.00    +0.000 A 
ATOM     22  C   UNL     1      -3.345  11.138  17.555  0.00  0.00    +0.000 A 
ATOM     23  C   UNL     1      -2.992  11.689  18.785  0.00  0.00    +0.000 A 
ATOM     24  C   UNL     1      -1.732  11.431  19.327  0.00  0.00    +0.000 A 
ATOM     25  C   UNL     1      -0.804  10.614  18.658  0.00  0.00    +0.000 A 
ATOM     26  C   UNL     1      -1.223   9.991  17.472  0.00  0.00    +0.000 A 
ENDBRANCH  17  25
ENDBRANCH   1  17
TORSDOF 3
ENDMDL
MODEL 9
REMARK VINA RESULT:      -7.8      2.673      7.880
REMARK  Name = 
REMARK  4 active torsions:
REMARK  status: ('A' for Active; 'I' for Inactive)
REMARK    1  A    between atoms: C_1  and  C_2
REMARK    2  A    between atoms: C_6  and  C_7
REMARK    3  A    between atoms: C_7  and  C_8
REMARK    4  A    between atoms: N_10  and  C_11
REMARK                            x       y       z     vdW  Elec       q    Type
REMARK                         _______ _______ _______ _____ _____    ______ ____
ROOT
ATOM      1  C   UNL     1       1.802   8.601  18.981  0.00  0.00    +0.000 C 
ATOM      2  O   UNL     1       2.060   9.251  17.977  0.00  0.00    +0.000 OA
ATOM      3  N   UNL     1       2.205   7.306  19.274  0.00  0.00    +0.000 N 
ATOM      4  H   UNL     1       1.797   6.882  20.098  0.00  0.00    +0.000 HD
ENDROOT
BRANCH   3   5
ATOM      5  C   UNL     1       3.010   6.484  18.451  0.00  0.00    +0.000 A 
ATOM      6  C   UNL     1       2.598   5.217  18.029  0.00  0.00    +0.000 A 
ATOM      7  C   UNL     1       3.421   4.412  17.239  0.00  0.00    +0.000 A 
ATOM      8  C   UNL     1       4.673   4.857  16.841  0.00  0.00    +0.000 A 
ATOM      9  N   UNL     1       5.466   4.014  16.050  0.00  0.00    +0.000 NA
ATOM     10  C   UNL     1       6.624   4.451  15.692  0.00  0.00    +0.000 A 
ATOM     11  N   UNL     1       7.115   5.676  16.038  0.00  0.00    +0.000 N 
ATOM     12  C   UNL     1       6.417   6.570  16.806  0.00  0.00    +0.000 A 
ATOM     13  O   UNL     1       6.873   7.671  17.108  0.00  0.00    +0.000 OA
ATOM     14  C   UNL     1       5.082   6.133  17.249  0.00  0.00    +0.000 A 
ATOM     15  C   UNL     1       4.265   6.949  18.049  0.00  0.00    +0.000 A 
ATOM     16  H   UNL     1       8.030   5.968  15.723  0.00  0.00    +0.000 HD
ENDBRANCH   3   5
BRANCH   1  17
ATOM     17  C   UNL     1       0.885   9.215  20.013  0.00  0.00    +0.000 C 
ATOM     18  C   UNL     1       0.515   8.394  21.242  0.00  0.00    +0.000 C 
ATOM     19  C   UNL     1       1.503   9.509  21.377  0.00  0.00    +0.000 C 
BRANCH  17  25
ATOM     20  C   UNL     1      -2.976   9.991  16.931  0.00  0.00    +0.000 C 
ATOM     21  C   UNL     1      -1.950  10.586  17.846  0.00  0.00    +0.000 A 
ATOM     22  C   UNL     1      -1.609  11.939  17.781  0.00  0.00    +0.000 A 
ATOM     23  C   UNL     1      -0.571  12.438  18.565  0.00  0.00    +0.000 A 
ATOM     24  C   UNL     1       0.169  11.573  19.372  0.00  0.00    +0.000 A 
ATOM     25  C   UNL     1      -0.115  10.197  19.419  0.00  0.00    +0.000 A 
ATOM     26  C   UNL     1      -1.229   9.739  18.697  0.00  0.00    +0.000 A 
ENDBRANCH  17  25
ENDBRANCH   1  17
TORSDOF 3
ENDMDL
