MODEL 1
REMARK VINA RESULT:      -8.1      0.000      0.000
REMARK  Name = 
REMARK  3 active torsions:
REMARK  status: ('A' for Active; 'I' for Inactive)
REMARK    1  A    between atoms: C_2  and  C_3
REMARK    2  A    between atoms: C_3  and  N_4
REMARK    3  A    between atoms: N_16  and  C_17
REMARK                            x       y       z     vdW  Elec       q    Type
REMARK                         _______ _______ _______ _____ _____    ______ ____
ROOT
ATOM      1  O   UNL     1      -0.140   7.368  20.913  0.00  0.00    +0.000 OA
ATOM      2  C   UNL     1       1.057   7.568  21.125  0.00  0.00    +0.000 C 
ATOM      3  N   UNL     1       2.096   6.695  20.848  0.00  0.00    +0.000 N 
ATOM      4  H   UNL     1       3.002   6.926  21.225  0.00  0.00    +0.000 HD
ENDROOT
BRANCH   3   5
ATOM      5  C   UNL     1       1.988   5.462  20.147  0.00  0.00    +0.000 A 
ATOM      6  C   UNL     1       1.096   4.471  20.585  0.00  0.00    +0.000 A 
ATOM      7  C   UNL     1       0.985   3.254  19.921  0.00  0.00    +0.000 A 
ATOM      8  C   UNL     1       1.764   3.007  18.799  0.00  0.00    +0.000 A 
ATOM      9  C   UNL     1       2.646   3.985  18.317  0.00  0.00    +0.000 A 
ATOM     10  C   UNL     1       3.426   3.744  17.185  0.00  0.00    +0.000 A 
ATOM     11  N   UNL     1       4.300   4.623  16.649  0.00  0.00    +0.000 NA
ATOM     12  C   UNL     1       4.406   5.810  17.271  0.00  0.00    +0.000 A 
ATOM     13  C   UNL     1       3.684   6.156  18.406  0.00  0.00    +0.000 A 
ATOM     14  C   UNL     1       2.768   5.236  18.971  0.00  0.00    +0.000 A 
ENDBRANCH   3   5
BRANCH   2  15
ATOM     15  C   UNL     1       1.498   8.899  21.723  0.00  0.00    +0.000 C 
BRANCH  15  16
ATOM     16  N   UNL     1       0.448   9.887  21.517  0.00  0.00    +0.000 N 
ATOM     17  N   UNL     1       0.397  10.440  20.227  0.00  0.00    +0.000 N 
ATOM     18  C   UNL     1      -0.395  11.522  19.922  0.00  0.00    +0.000 A 
ATOM     19  O   UNL     1      -0.302  12.113  18.853  0.00  0.00    +0.000 OA
ATOM     20  C   UNL     1      -1.368  11.939  20.946  0.00  0.00    +0.000 A 
ATOM     21  C   UNL     1      -2.365  12.869  20.622  0.00  0.00    +0.000 A 
ATOM     22  C   UNL     1      -3.304  13.244  21.584  0.00  0.00    +0.000 A 
ATOM     23  C   UNL     1      -3.238  12.710  22.871  0.00  0.00    +0.000 A 
ATOM     24  C   UNL     1      -2.228  11.805  23.203  0.00  0.00    +0.000 A 
ATOM     25  C   UNL     1      -1.295  11.415  22.234  0.00  0.00    +0.000 A 
ATOM     26  C   UNL     1      -0.250  10.428  22.578  0.00  0.00    +0.000 A 
ATOM     27  O   UNL     1      -0.060  10.098  23.745  0.00  0.00    +0.000 OA
ATOM     28  H   UNL     1       1.209  10.313  19.622  0.00  0.00    +0.000 HD
ENDBRANCH  15  16
ENDBRANCH   2  15
TORSDOF 3
ENDMDL
MODEL 2
REMARK VINA RESULT:      -8.1      2.505      3.664
REMARK  Name = 
REMARK  3 active torsions:
REMARK  status: ('A' for Active; 'I' for Inactive)
REMARK    1  A    between atoms: C_2  and  C_3
REMARK    2  A    between atoms: C_3  and  N_4
REMARK    3  A    between atoms: N_16  and  C_17
REMARK                            x       y       z     vdW  Elec       q    Type
REMARK                         _______ _______ _______ _____ _____    ______ ____
ROOT
ATOM      1  O   UNL     1       1.956   9.817  17.448  0.00  0.00    +0.000 OA
ATOM      2  C   UNL     1       1.596   9.511  18.585  0.00  0.00    +0.000 C 
ATOM      3  N   UNL     1       1.818   8.298  19.218  0.00  0.00    +0.000 N 
ATOM      4  H   UNL     1       1.325   8.134  20.081  0.00  0.00    +0.000 HD
ENDROOT
BRANCH   3   5
ATOM      5  C   UNL     1       2.615   7.229  18.720  0.00  0.00    +0.000 A 
ATOM      6  C   UNL     1       3.466   7.428  17.623  0.00  0.00    +0.000 A 
ATOM      7  C   UNL     1       4.242   6.392  17.114  0.00  0.00    +0.000 A 
ATOM      8  C   UNL     1       4.186   5.135  17.700  0.00  0.00    +0.000 A 
ATOM      9  C   UNL     1       3.368   4.908  18.816  0.00  0.00    +0.000 A 
ATOM     10  C   UNL     1       3.313   3.648  19.414  0.00  0.00    +0.000 A 
ATOM     11  N   UNL     1       2.557   3.336  20.489  0.00  0.00    +0.000 NA
ATOM     12  C   UNL     1       1.813   4.331  21.001  0.00  0.00    +0.000 A 
ATOM     13  C   UNL     1       1.785   5.621  20.485  0.00  0.00    +0.000 A 
ATOM     14  C   UNL     1       2.576   5.951  19.359  0.00  0.00    +0.000 A 
ENDBRANCH   3   5
BRANCH   2  15
ATOM     15  C   UNL     1       0.857  10.536  19.438  0.00  0.00    +0.000 C 
BRANCH  15  16
ATOM     16  N   UNL     1      -0.510  10.663  18.953  0.00  0.00    +0.000 N 
ATOM     17  N   UNL     1      -0.779   9.992  17.748  0.00  0.00    +0.000 N 
ATOM     18  C   UNL     1      -1.951  10.172  17.053  0.00  0.00    +0.000 A 
ATOM     19  O   UNL     1      -2.107   9.732  15.920  0.00  0.00    +0.000 OA
ATOM     20  C   UNL     1      -3.019  10.921  17.737  0.00  0.00    +0.000 A 
ATOM     21  C   UNL     1      -4.312  10.940  17.199  0.00  0.00    +0.000 A 
ATOM     22  C   UNL     1      -5.331  11.626  17.861  0.00  0.00    +0.000 A 
ATOM     23  C   UNL     1      -5.057  12.311  19.046  0.00  0.00    +0.000 A 
ATOM     24  C   UNL     1      -3.762  12.316  19.568  0.00  0.00    +0.000 A 
ATOM     25  C   UNL     1      -2.742  11.614  18.913  0.00  0.00    +0.000 A 
ATOM     26  C   UNL     1      -1.382  11.590  19.488  0.00  0.00    +0.000 A 
ATOM     27  O   UNL     1      -1.081  12.337  20.416  0.00  0.00    +0.000 OA
ATOM     28  H   UNL     1       0.017   9.686  17.186  0.00  0.00    +0.000 HD
ENDBRANCH  15  16
ENDBRANCH   2  15
TORSDOF 3
ENDMDL
MODEL 3
REMARK VINA RESULT:      -8.1      2.247      8.125
REMARK  Name = 
REMARK  3 active torsions:
REMARK  status: ('A' for Active; 'I' for Inactive)
REMARK    1  A    between atoms: C_2  and  C_3
REMARK    2  A    between atoms: C_3  and  N_4
REMARK    3  A    between atoms: N_16  and  C_17
REMARK                            x       y       z     vdW  Elec       q    Type
REMARK                         _______ _______ _______ _____ _____    ______ ____
ROOT
ATOM      1  O   UNL     1      -0.173   8.188  21.224  0.00  0.00    +0.000 OA
ATOM      2  C   UNL     1       0.692   8.783  20.580  0.00  0.00    +0.000 C 
ATOM      3  N   UNL     1       0.518   9.952  19.855  0.00  0.00    +0.000 N 
ATOM      4  H   UNL     1       1.272  10.232  19.248  0.00  0.00    +0.000 HD
ENDROOT
BRANCH   3   5
ATOM      5  C   UNL     1      -0.660  10.750  19.827  0.00  0.00    +0.000 A 
ATOM      6  C   UNL     1      -0.956  11.617  20.890  0.00  0.00    +0.000 A 
ATOM      7  C   UNL     1      -2.109  12.396  20.888  0.00  0.00    +0.000 A 
ATOM      8  C   UNL     1      -2.986  12.325  19.814  0.00  0.00    +0.000 A 
ATOM      9  C   UNL     1      -2.707  11.492  18.722  0.00  0.00    +0.000 A 
ATOM     10  C   UNL     1      -3.582  11.423  17.637  0.00  0.00    +0.000 A 
ATOM     11  N   UNL     1      -3.397  10.651  16.544  0.00  0.00    +0.000 NA
ATOM     12  C   UNL     1      -2.280   9.905  16.525  0.00  0.00    +0.000 A 
ATOM     13  C   UNL     1      -1.343   9.890  17.550  0.00  0.00    +0.000 A 
ATOM     14  C   UNL     1      -1.534  10.697  18.697  0.00  0.00    +0.000 A 
ENDBRANCH   3   5
BRANCH   2  15
ATOM     15  C   UNL     1       2.119   8.245  20.566  0.00  0.00    +0.000 C 
BRANCH  15  16
ATOM     16  N   UNL     1       2.094   6.840  20.186  0.00  0.00    +0.000 N 
ATOM     17  N   UNL     1       1.935   5.937  21.251  0.00  0.00    +0.000 N 
ATOM     18  C   UNL     1       2.092   4.581  21.094  0.00  0.00    +0.000 A 
ATOM     19  O   UNL     1       2.133   3.818  22.052  0.00  0.00    +0.000 OA
ATOM     20  C   UNL     1       2.206   4.082  19.713  0.00  0.00    +0.000 A 
ATOM     21  C   UNL     1       2.127   2.707  19.459  0.00  0.00    +0.000 A 
ATOM     22  C   UNL     1       2.208   2.236  18.148  0.00  0.00    +0.000 A 
ATOM     23  C   UNL     1       2.388   3.132  17.093  0.00  0.00    +0.000 A 
ATOM     24  C   UNL     1       2.496   4.500  17.348  0.00  0.00    +0.000 A 
ATOM     25  C   UNL     1       2.398   4.976  18.662  0.00  0.00    +0.000 A 
ATOM     26  C   UNL     1       2.474   6.428  18.924  0.00  0.00    +0.000 A 
ATOM     27  O   UNL     1       2.823   7.206  18.040  0.00  0.00    +0.000 OA
ATOM     28  H   UNL     1       2.093   6.286  22.197  0.00  0.00    +0.000 HD
ENDBRANCH  15  16
ENDBRANCH   2  15
TORSDOF 3
ENDMDL
MODEL 4
REMARK VINA RESULT:      -8.0      3.383      8.296
REMARK  Name = 
REMARK  3 active torsions:
REMARK  status: ('A' for Active; 'I' for Inactive)
REMARK    1  A    between atoms: C_2  and  C_3
REMARK    2  A    between atoms: C_3  and  N_4
REMARK    3  A    between atoms: N_16  and  C_17
REMARK                            x       y       z     vdW  Elec       q    Type
REMARK                         _______ _______ _______ _____ _____    ______ ____
ROOT
ATOM      1  O   UNL     1       0.747   4.332  20.154  0.00  0.00    +0.000 OA
ATOM      2  C   UNL     1       1.943   4.620  20.211  0.00  0.00    +0.000 C 
ATOM      3  N   UNL     1       2.478   5.896  20.285  0.00  0.00    +0.000 N 
ATOM      4  H   UNL     1       3.474   5.984  20.161  0.00  0.00    +0.000 HD
ENDROOT
BRANCH   3   5
ATOM      5  C   UNL     1       1.741   7.103  20.441  0.00  0.00    +0.000 A 
ATOM      6  C   UNL     1       0.951   7.312  21.582  0.00  0.00    +0.000 A 
ATOM      7  C   UNL     1       0.213   8.480  21.746  0.00  0.00    +0.000 A 
ATOM      8  C   UNL     1       0.257   9.466  20.771  0.00  0.00    +0.000 A 
ATOM      9  C   UNL     1       1.058   9.303  19.631  0.00  0.00    +0.000 A 
ATOM     10  C   UNL     1       1.111  10.295  18.651  0.00  0.00    +0.000 A 
ATOM     11  N   UNL     1       1.852  10.227  17.524  0.00  0.00    +0.000 NA
ATOM     12  C   UNL     1       2.583   9.111  17.359  0.00  0.00    +0.000 A 
ATOM     13  C   UNL     1       2.603   8.059  18.265  0.00  0.00    +0.000 A 
ATOM     14  C   UNL     1       1.827   8.127  19.447  0.00  0.00    +0.000 A 
ENDBRANCH   3   5
BRANCH   2  15
ATOM     15  C   UNL     1       2.981   3.503  20.235  0.00  0.00    +0.000 C 
BRANCH  15  16
ATOM     16  N   UNL     1       4.027   3.802  19.267  0.00  0.00    +0.000 N 
ATOM     17  N   UNL     1       5.226   4.288  19.816  0.00  0.00    +0.000 N 
ATOM     18  C   UNL     1       6.234   4.805  19.039  0.00  0.00    +0.000 A 
ATOM     19  O   UNL     1       7.193   5.392  19.526  0.00  0.00    +0.000 OA
ATOM     20  C   UNL     1       6.109   4.620  17.583  0.00  0.00    +0.000 A 
ATOM     21  C   UNL     1       7.198   4.901  16.748  0.00  0.00    +0.000 A 
ATOM     22  C   UNL     1       7.089   4.700  15.371  0.00  0.00    +0.000 A 
ATOM     23  C   UNL     1       5.891   4.238  14.825  0.00  0.00    +0.000 A 
ATOM     24  C   UNL     1       4.796   3.985  15.653  0.00  0.00    +0.000 A 
ATOM     25  C   UNL     1       4.908   4.171  17.037  0.00  0.00    +0.000 A 
ATOM     26  C   UNL     1       3.760   3.865  17.914  0.00  0.00    +0.000 A 
ATOM     27  O   UNL     1       2.649   3.646  17.438  0.00  0.00    +0.000 OA
ATOM     28  H   UNL     1       5.205   4.623  20.781  0.00  0.00    +0.000 HD
ENDBRANCH  15  16
ENDBRANCH   2  15
TORSDOF 3
ENDMDL
MODEL 5
REMARK VINA RESULT:      -8.0      1.240      2.224
REMARK  Name = 
REMARK  3 active torsions:
REMARK  status: ('A' for Active; 'I' for Inactive)
REMARK    1  A    between atoms: C_2  and  C_3
REMARK    2  A    between atoms: C_3  and  N_4
REMARK    3  A    between atoms: N_16  and  C_17
REMARK                            x       y       z     vdW  Elec       q    Type
REMARK                         _______ _______ _______ _____ _____    ______ ____
ROOT
ATOM      1  O   UNL     1       1.208   8.763  19.468  0.00  0.00    +0.000 OA
ATOM      2  C   UNL     1       1.649   8.240  20.492  0.00  0.00    +0.000 C 
ATOM      3  N   UNL     1       2.277   7.008  20.579  0.00  0.00    +0.000 N 
ATOM      4  H   UNL     1       2.436   6.639  21.504  0.00  0.00    +0.000 HD
ENDROOT
BRANCH   3   5
ATOM      5  C   UNL     1       2.645   6.178  19.484  0.00  0.00    +0.000 A 
ATOM      6  C   UNL     1       3.570   6.628  18.530  0.00  0.00    +0.000 A 
ATOM      7  C   UNL     1       3.933   5.837  17.445  0.00  0.00    +0.000 A 
ATOM      8  C   UNL     1       3.379   4.573  17.299  0.00  0.00    +0.000 A 
ATOM      9  C   UNL     1       2.474   4.079  18.248  0.00  0.00    +0.000 A 
ATOM     10  C   UNL     1       1.919   2.805  18.109  0.00  0.00    +0.000 A 
ATOM     11  N   UNL     1       1.042   2.247  18.970  0.00  0.00    +0.000 NA
ATOM     12  C   UNL     1       0.694   2.994  20.032  0.00  0.00    +0.000 A 
ATOM     13  C   UNL     1       1.178   4.274  20.269  0.00  0.00    +0.000 A 
ATOM     14  C   UNL     1       2.097   4.863  19.367  0.00  0.00    +0.000 A 
ENDBRANCH   3   5
BRANCH   2  15
ATOM     15  C   UNL     1       1.548   8.988  21.817  0.00  0.00    +0.000 C 
BRANCH  15  16
ATOM     16  N   UNL     1       0.629  10.106  21.665  0.00  0.00    +0.000 N 
ATOM     17  N   UNL     1       0.938  10.993  20.619  0.00  0.00    +0.000 N 
ATOM     18  C   UNL     1       0.297  12.199  20.465  0.00  0.00    +0.000 A 
ATOM     19  O   UNL     1       0.690  13.045  19.670  0.00  0.00    +0.000 OA
ATOM     20  C   UNL     1      -0.892  12.430  21.303  0.00  0.00    +0.000 A 
ATOM     21  C   UNL     1      -1.731  13.519  21.038  0.00  0.00    +0.000 A 
ATOM     22  C   UNL     1      -2.873  13.723  21.814  0.00  0.00    +0.000 A 
ATOM     23  C   UNL     1      -3.167  12.854  22.867  0.00  0.00    +0.000 A 
ATOM     24  C   UNL     1      -2.315  11.784  23.149  0.00  0.00    +0.000 A 
ATOM     25  C   UNL     1      -1.178  11.569  22.361  0.00  0.00    +0.000 A 
ATOM     26  C   UNL     1      -0.300  10.414  22.639  0.00  0.00    +0.000 A 
ATOM     27  O   UNL     1      -0.434   9.759  23.669  0.00  0.00    +0.000 OA
ATOM     28  H   UNL     1       1.874  10.944  20.216  0.00  0.00    +0.000 HD
ENDBRANCH  15  16
ENDBRANCH   2  15
TORSDOF 3
ENDMDL
MODEL 6
REMARK VINA RESULT:      -7.9      2.629      8.683
REMARK  Name = 
REMARK  3 active torsions:
REMARK  status: ('A' for Active; 'I' for Inactive)
REMARK    1  A    between atoms: C_2  and  C_3
REMARK    2  A    between atoms: C_3  and  N_4
REMARK    3  A    between atoms: N_16  and  C_17
REMARK                            x       y       z     vdW  Elec       q    Type
REMARK                         _______ _______ _______ _____ _____    ______ ____
ROOT
ATOM      1  O   UNL     1       0.890   5.816  20.493  0.00  0.00    +0.000 OA
ATOM      2  C   UNL     1       2.013   6.266  20.260  0.00  0.00    +0.000 C 
ATOM      3  N   UNL     1       2.311   7.556  19.853  0.00  0.00    +0.000 N 
ATOM      4  H   UNL     1       3.254   7.733  19.544  0.00  0.00    +0.000 HD
ENDROOT
BRANCH   3   5
ATOM      5  C   UNL     1       1.390   8.636  19.753  0.00  0.00    +0.000 A 
ATOM      6  C   UNL     1       1.009   9.131  18.496  0.00  0.00    +0.000 A 
ATOM      7  C   UNL     1       0.119  10.195  18.379  0.00  0.00    +0.000 A 
ATOM      8  C   UNL     1      -0.411  10.780  19.520  0.00  0.00    +0.000 A 
ATOM      9  C   UNL     1      -0.074  10.292  20.791  0.00  0.00    +0.000 A 
ATOM     10  C   UNL     1      -0.610  10.872  21.942  0.00  0.00    +0.000 A 
ATOM     11  N   UNL     1      -0.344  10.472  23.204  0.00  0.00    +0.000 NA
ATOM     12  C   UNL     1       0.501   9.434  23.333  0.00  0.00    +0.000 A 
ATOM     13  C   UNL     1       1.097   8.785  22.259  0.00  0.00    +0.000 A 
ATOM     14  C   UNL     1       0.822   9.203  20.936  0.00  0.00    +0.000 A 
ENDBRANCH   3   5
BRANCH   2  15
ATOM     15  C   UNL     1       3.232   5.371  20.452  0.00  0.00    +0.000 C 
BRANCH  15  16
ATOM     16  N   UNL     1       3.765   5.005  19.147  0.00  0.00    +0.000 N 
ATOM     17  N   UNL     1       2.865   4.333  18.303  0.00  0.00    +0.000 N 
ATOM     18  C   UNL     1       3.261   3.743  17.127  0.00  0.00    +0.000 A 
ATOM     19  O   UNL     1       2.519   3.005  16.489  0.00  0.00    +0.000 OA
ATOM     20  C   UNL     1       4.627   4.041  16.664  0.00  0.00    +0.000 A 
ATOM     21  C   UNL     1       5.019   3.678  15.369  0.00  0.00    +0.000 A 
ATOM     22  C   UNL     1       6.304   3.984  14.920  0.00  0.00    +0.000 A 
ATOM     23  C   UNL     1       7.204   4.633  15.767  0.00  0.00    +0.000 A 
ATOM     24  C   UNL     1       6.824   4.969  17.067  0.00  0.00    +0.000 A 
ATOM     25  C   UNL     1       5.529   4.677  17.513  0.00  0.00    +0.000 A 
ATOM     26  C   UNL     1       5.117   5.069  18.877  0.00  0.00    +0.000 A 
ATOM     27  O   UNL     1       5.947   5.462  19.693  0.00  0.00    +0.000 OA
ATOM     28  H   UNL     1       2.022   3.938  18.725  0.00  0.00    +0.000 HD
ENDBRANCH  15  16
ENDBRANCH   2  15
TORSDOF 3
ENDMDL
MODEL 7
REMARK VINA RESULT:      -7.9      2.151      8.390
REMARK  Name = 
REMARK  3 active torsions:
REMARK  status: ('A' for Active; 'I' for Inactive)
REMARK    1  A    between atoms: C_2  and  C_3
REMARK    2  A    between atoms: C_3  and  N_4
REMARK    3  A    between atoms: N_16  and  C_17
REMARK                            x       y       z     vdW  Elec       q    Type
REMARK                         _______ _______ _______ _____ _____    ______ ____
ROOT
ATOM      1  O   UNL     1       0.740   8.575  17.492  0.00  0.00    +0.000 OA
ATOM      2  C   UNL     1       1.779   8.959  18.031  0.00  0.00    +0.000 C 
ATOM      3  N   UNL     1       1.903  10.027  18.905  0.00  0.00    +0.000 N 
ATOM      4  H   UNL     1       2.838  10.323  19.137  0.00  0.00    +0.000 HD
ENDROOT
BRANCH   3   5
ATOM      5  C   UNL     1       0.834  10.796  19.444  0.00  0.00    +0.000 A 
ATOM      6  C   UNL     1       0.204  11.780  18.667  0.00  0.00    +0.000 A 
ATOM      7  C   UNL     1      -0.834  12.551  19.180  0.00  0.00    +0.000 A 
ATOM      8  C   UNL     1      -1.266  12.346  20.483  0.00  0.00    +0.000 A 
ATOM      9  C   UNL     1      -0.679  11.351  21.278  0.00  0.00    +0.000 A 
ATOM     10  C   UNL     1      -1.116  11.136  22.586  0.00  0.00    +0.000 A 
ATOM     11  N   UNL     1      -0.612  10.204  23.424  0.00  0.00    +0.000 NA
ATOM     12  C   UNL     1       0.381   9.440  22.937  0.00  0.00    +0.000 A 
ATOM     13  C   UNL     1       0.897   9.570  21.654  0.00  0.00    +0.000 A 
ATOM     14  C   UNL     1       0.373  10.546  20.774  0.00  0.00    +0.000 A 
ENDBRANCH   3   5
BRANCH   2  15
ATOM     15  C   UNL     1       3.079   8.207  17.771  0.00  0.00    +0.000 C 
BRANCH  15  16
ATOM     16  N   UNL     1       2.917   6.818  18.177  0.00  0.00    +0.000 N 
ATOM     17  N   UNL     1       2.219   6.628  19.382  0.00  0.00    +0.000 N 
ATOM     18  C   UNL     1       2.152   5.406  20.007  0.00  0.00    +0.000 A 
ATOM     19  O   UNL     1       1.704   5.281  21.141  0.00  0.00    +0.000 OA
ATOM     20  C   UNL     1       2.647   4.245  19.248  0.00  0.00    +0.000 A 
ATOM     21  C   UNL     1       2.395   2.948  19.714  0.00  0.00    +0.000 A 
ATOM     22  C   UNL     1       2.839   1.847  18.980  0.00  0.00    +0.000 A 
ATOM     23  C   UNL     1       3.551   2.038  17.795  0.00  0.00    +0.000 A 
ATOM     24  C   UNL     1       3.827   3.330  17.345  0.00  0.00    +0.000 A 
ATOM     25  C   UNL     1       3.368   4.436  18.071  0.00  0.00    +0.000 A 
ATOM     26  C   UNL     1       3.629   5.802  17.572  0.00  0.00    +0.000 A 
ATOM     27  O   UNL     1       4.411   5.991  16.644  0.00  0.00    +0.000 OA
ATOM     28  H   UNL     1       2.098   7.436  19.994  0.00  0.00    +0.000 HD
ENDBRANCH  15  16
ENDBRANCH   2  15
TORSDOF 3
ENDMDL
MODEL 8
REMARK VINA RESULT:      -7.8      2.306      2.944
REMARK  Name = 
REMARK  3 active torsions:
REMARK  status: ('A' for Active; 'I' for Inactive)
REMARK    1  A    between atoms: C_2  and  C_3
REMARK    2  A    between atoms: C_3  and  N_4
REMARK    3  A    between atoms: N_16  and  C_17
REMARK                            x       y       z     vdW  Elec       q    Type
REMARK                         _______ _______ _______ _____ _____    ______ ____
ROOT
ATOM      1  O   UNL     1       1.441   8.158  19.783  0.00  0.00    +0.000 OA
ATOM      2  C   UNL     1       1.976   8.664  18.796  0.00  0.00    +0.000 C 
ATOM      3  N   UNL     1       2.755   8.006  17.857  0.00  0.00    +0.000 N 
ATOM      4  H   UNL     1       3.258   8.577  17.197  0.00  0.00    +0.000 HD
ENDROOT
BRANCH   3   5
ATOM      5  C   UNL     1       2.973   6.601  17.788  0.00  0.00    +0.000 A 
ATOM      6  C   UNL     1       1.913   5.706  17.999  0.00  0.00    +0.000 A 
ATOM      7  C   UNL     1       2.110   4.330  17.949  0.00  0.00    +0.000 A 
ATOM      8  C   UNL     1       3.374   3.823  17.680  0.00  0.00    +0.000 A 
ATOM      9  C   UNL     1       4.449   4.689  17.437  0.00  0.00    +0.000 A 
ATOM     10  C   UNL     1       5.721   4.184  17.159  0.00  0.00    +0.000 A 
ATOM     11  N   UNL     1       6.814   4.938  16.913  0.00  0.00    +0.000 NA
ATOM     12  C   UNL     1       6.636   6.270  16.942  0.00  0.00    +0.000 A 
ATOM     13  C   UNL     1       5.418   6.882  17.212  0.00  0.00    +0.000 A 
ATOM     14  C   UNL     1       4.272   6.094  17.472  0.00  0.00    +0.000 A 
ENDBRANCH   3   5
BRANCH   2  15
ATOM     15  C   UNL     1       1.771  10.148  18.511  0.00  0.00    +0.000 C 
BRANCH  15  16
ATOM     16  N   UNL     1       0.346  10.445  18.530  0.00  0.00    +0.000 N 
ATOM     17  N   UNL     1      -0.410   9.796  17.539  0.00  0.00    +0.000 N 
ATOM     18  C   UNL     1      -1.723  10.117  17.289  0.00  0.00    +0.000 A 
ATOM     19  O   UNL     1      -2.322   9.684  16.312  0.00  0.00    +0.000 OA
ATOM     20  C   UNL     1      -2.382  11.011  18.256  0.00  0.00    +0.000 A 
ATOM     21  C   UNL     1      -3.771  11.191  18.206  0.00  0.00    +0.000 A 
ATOM     22  C   UNL     1      -4.400  12.016  19.139  0.00  0.00    +0.000 A 
ATOM     23  C   UNL     1      -3.644  12.677  20.109  0.00  0.00    +0.000 A 
ATOM     24  C   UNL     1      -2.257  12.521  20.142  0.00  0.00    +0.000 A 
ATOM     25  C   UNL     1      -1.627  11.680  19.216  0.00  0.00    +0.000 A 
ATOM     26  C   UNL     1      -0.163  11.487  19.279  0.00  0.00    +0.000 A 
ATOM     27  O   UNL     1       0.533  12.203  19.994  0.00  0.00    +0.000 OA
ATOM     28  H   UNL     1       0.092   9.380  16.754  0.00  0.00    +0.000 HD
ENDBRANCH  15  16
ENDBRANCH   2  15
TORSDOF 3
ENDMDL
MODEL 9
REMARK VINA RESULT:      -7.8      2.243      2.868
REMARK  Name = 
REMARK  3 active torsions:
REMARK  status: ('A' for Active; 'I' for Inactive)
REMARK    1  A    between atoms: C_2  and  C_3
REMARK    2  A    between atoms: C_3  and  N_4
REMARK    3  A    between atoms: N_16  and  C_17
REMARK                            x       y       z     vdW  Elec       q    Type
REMARK                         _______ _______ _______ _____ _____    ______ ____
ROOT
ATOM      1  O   UNL     1       0.989   9.003  20.540  0.00  0.00    +0.000 OA
ATOM      2  C   UNL     1       1.469   9.102  19.410  0.00  0.00    +0.000 C 
ATOM      3  N   UNL     1       2.221   8.143  18.751  0.00  0.00    +0.000 N 
ATOM      4  H   UNL     1       2.683   8.426  17.901  0.00  0.00    +0.000 HD
ENDROOT
BRANCH   3   5
ATOM      5  C   UNL     1       2.468   6.817  19.205  0.00  0.00    +0.000 A 
ATOM      6  C   UNL     1       1.760   6.297  20.299  0.00  0.00    +0.000 A 
ATOM      7  C   UNL     1       1.997   5.008  20.766  0.00  0.00    +0.000 A 
ATOM      8  C   UNL     1       2.945   4.211  20.139  0.00  0.00    +0.000 A 
ATOM      9  C   UNL     1       3.650   4.688  19.026  0.00  0.00    +0.000 A 
ATOM     10  C   UNL     1       4.600   3.888  18.388  0.00  0.00    +0.000 A 
ATOM     11  N   UNL     1       5.326   4.261  17.312  0.00  0.00    +0.000 NA
ATOM     12  C   UNL     1       5.097   5.499  16.840  0.00  0.00    +0.000 A 
ATOM     13  C   UNL     1       4.181   6.381  17.397  0.00  0.00    +0.000 A 
ATOM     14  C   UNL     1       3.419   5.994  18.526  0.00  0.00    +0.000 A 
ENDBRANCH   3   5
BRANCH   2  15
ATOM     15  C   UNL     1       1.219  10.369  18.599  0.00  0.00    +0.000 C 
BRANCH  15  16
ATOM     16  N   UNL     1      -0.216  10.586  18.483  0.00  0.00    +0.000 N 
ATOM     17  N   UNL     1      -0.830   9.936  17.399  0.00  0.00    +0.000 N 
ATOM     18  C   UNL     1      -2.128  10.193  17.028  0.00  0.00    +0.000 A 
ATOM     19  O   UNL     1      -2.600   9.767  15.981  0.00  0.00    +0.000 OA
ATOM     20  C   UNL     1      -2.932  11.010  17.954  0.00  0.00    +0.000 A 
ATOM     21  C   UNL     1      -4.317  11.114  17.768  0.00  0.00    +0.000 A 
ATOM     22  C   UNL     1      -5.083  11.865  18.661  0.00  0.00    +0.000 A 
ATOM     23  C   UNL     1      -4.469  12.528  19.724  0.00  0.00    +0.000 A 
ATOM     24  C   UNL     1      -3.085  12.448  19.893  0.00  0.00    +0.000 A 
ATOM     25  C   UNL     1      -2.317  11.681  19.008  0.00  0.00    +0.000 A 
ATOM     26  C   UNL     1      -0.858  11.567  19.211  0.00  0.00    +0.000 A 
ATOM     27  O   UNL     1      -0.280  12.292  20.017  0.00  0.00    +0.000 OA
ATOM     28  H   UNL     1      -0.229   9.580  16.655  0.00  0.00    +0.000 HD
ENDBRANCH  15  16
ENDBRANCH   2  15
TORSDOF 3
ENDMDL
