MODEL 1
REMARK VINA RESULT:      -9.1      0.000      0.000
REMARK  Name = 
REMARK  7 active torsions:
REMARK  status: ('A' for Active; 'I' for Inactive)
REMARK    1  A    between atoms: C_1  and  C_2
REMARK    2  A    between atoms: C_4  and  C_5
REMARK    3  A    between atoms: C_6  and  C_7
REMARK    4  A    between atoms: N_9  and  C_10
REMARK    5  A    between atoms: C_14  and  C_15
REMARK    6  A    between atoms: N_17  and  C_18
REMARK    7  A    between atoms: C_22  and  C_23
REMARK                            x       y       z     vdW  Elec       q    Type
REMARK                         _______ _______ _______ _____ _____    ______ ____
ROOT
ATOM      1  C   UNL     1       2.096   5.269  20.610  0.00  0.00    +0.000 A 
ATOM      2  C   UNL     1       1.759   4.055  21.224  0.00  0.00    +0.000 A 
ATOM      3  C   UNL     1       2.488   2.889  20.981  0.00  0.00    +0.000 A 
ATOM      4  C   UNL     1       3.559   2.906  20.095  0.00  0.00    +0.000 A 
ATOM      5  C   UNL     1       3.874   4.092  19.423  0.00  0.00    +0.000 A 
ATOM      6  C   UNL     1       3.143   5.270  19.682  0.00  0.00    +0.000 A 
ENDROOT
BRANCH   1   9
ATOM      7  C   UNL     1       1.661   7.699  20.249  0.00  0.00    +0.000 C 
ATOM      8  O   UNL     1       2.459   7.810  19.320  0.00  0.00    +0.000 OA
ATOM      9  N   UNL     1       1.430   6.491  20.898  0.00  0.00    +0.000 N 
ATOM     10  H   UNL     1       0.640   6.456  21.530  0.00  0.00    +0.000 HD
BRANCH   7  16
ATOM     11  C   UNL     1      -0.856  11.636  22.772  0.00  0.00    +0.000 C 
ATOM     12  C   UNL     1      -0.265  10.681  21.795  0.00  0.00    +0.000 A 
ATOM     13  N   UNL     1      -0.348  10.840  20.495  0.00  0.00    +0.000 NA
ATOM     14  C   UNL     1       0.309   9.811  19.848  0.00  0.00    +0.000 A 
ATOM     15  C   UNL     1       0.327   9.827  18.357  0.00  0.00    +0.000 C 
ATOM     16  C   UNL     1       0.893   8.861  20.677  0.00  0.00    +0.000 A 
ATOM     17  S   UNL     1       0.590   9.280  22.315  0.00  0.00    +0.000 S 
ENDBRANCH   7  16
ENDBRANCH   1   9
BRANCH   5  18
ATOM     18  C   UNL     1       5.022   4.156  18.472  0.00  0.00    +0.000 C 
ATOM     19  O   UNL     1       6.152   4.051  18.936  0.00  0.00    +0.000 OA
ATOM     20  N   UNL     1       4.693   4.394  17.145  0.00  0.00    +0.000 N 
ATOM     21  H   UNL     1       3.732   4.641  16.944  0.00  0.00    +0.000 HD
BRANCH  20  22
ATOM     22  C   UNL     1       5.597   4.497  16.063  0.00  0.00    +0.000 A 
ATOM     23  C   UNL     1       6.830   5.146  16.152  0.00  0.00    +0.000 A 
ATOM     24  C   UNL     1       7.666   5.246  15.037  0.00  0.00    +0.000 A 
ATOM     25  C   UNL     1       7.280   4.694  13.818  0.00  0.00    +0.000 A 
ATOM     26  C   UNL     1       6.060   4.015  13.708  0.00  0.00    +0.000 A 
ATOM     27  C   UNL     1       5.228   3.915  14.841  0.00  0.00    +0.000 A 
BRANCH  26  28
ATOM     28  C   UNL     1       5.631   3.405  12.396  0.00  0.00    +0.000 C 
ATOM     29  F   UNL     1       5.812   2.056  12.334  0.00  0.00    +0.000 F 
ATOM     30  F   UNL     1       4.312   3.617  12.132  0.00  0.00    +0.000 F 
ATOM     31  F   UNL     1       6.310   3.921  11.334  0.00  0.00    +0.000 F 
ENDBRANCH  26  28
ENDBRANCH  20  22
ENDBRANCH   5  18
TORSDOF 5
ENDMDL
MODEL 2
REMARK VINA RESULT:      -8.9      3.822      5.620
REMARK  Name = 
REMARK  7 active torsions:
REMARK  status: ('A' for Active; 'I' for Inactive)
REMARK    1  A    between atoms: C_1  and  C_2
REMARK    2  A    between atoms: C_4  and  C_5
REMARK    3  A    between atoms: C_6  and  C_7
REMARK    4  A    between atoms: N_9  and  C_10
REMARK    5  A    between atoms: C_14  and  C_15
REMARK    6  A    between atoms: N_17  and  C_18
REMARK    7  A    between atoms: C_22  and  C_23
REMARK                            x       y       z     vdW  Elec       q    Type
REMARK                         _______ _______ _______ _____ _____    ______ ____
ROOT
ATOM      1  C   UNL     1       0.250  10.651  20.503  0.00  0.00    +0.000 A 
ATOM      2  C   UNL     1      -0.017  10.056  21.742  0.00  0.00    +0.000 A 
ATOM      3  C   UNL     1       0.472   8.788  22.064  0.00  0.00    +0.000 A 
ATOM      4  C   UNL     1       1.221   8.074  21.136  0.00  0.00    +0.000 A 
ATOM      5  C   UNL     1       1.448   8.621  19.868  0.00  0.00    +0.000 A 
ATOM      6  C   UNL     1       0.963   9.909  19.555  0.00  0.00    +0.000 A 
ENDROOT
BRANCH   1   9
ATOM      7  C   UNL     1       0.445  13.135  20.637  0.00  0.00    +0.000 C 
ATOM      8  O   UNL     1       1.439  13.122  21.362  0.00  0.00    +0.000 OA
ATOM      9  N   UNL     1      -0.161  11.972  20.175  0.00  0.00    +0.000 N 
ATOM     10  H   UNL     1      -0.862  12.078  19.453  0.00  0.00    +0.000 HD
BRANCH   7  16
ATOM     11  C   UNL     1      -0.846  17.739  18.327  0.00  0.00    +0.000 C 
ATOM     12  C   UNL     1      -0.738  16.518  19.171  0.00  0.00    +0.000 A 
ATOM     13  N   UNL     1      -1.592  16.225  20.123  0.00  0.00    +0.000 NA
ATOM     14  C   UNL     1      -1.248  15.027  20.719  0.00  0.00    +0.000 A 
ATOM     15  C   UNL     1      -2.114  14.525  21.824  0.00  0.00    +0.000 C 
ATOM     16  C   UNL     1      -0.112  14.411  20.206  0.00  0.00    +0.000 A 
ATOM     17  S   UNL     1       0.536  15.383  18.948  0.00  0.00    +0.000 S 
ENDBRANCH   7  16
ENDBRANCH   1   9
BRANCH   5  18
ATOM     18  C   UNL     1       2.256   7.893  18.848  0.00  0.00    +0.000 C 
ATOM     19  O   UNL     1       2.401   8.423  17.752  0.00  0.00    +0.000 OA
ATOM     20  N   UNL     1       2.720   6.641  19.227  0.00  0.00    +0.000 N 
ATOM     21  H   UNL     1       2.366   6.261  20.095  0.00  0.00    +0.000 HD
BRANCH  20  22
ATOM     22  C   UNL     1       3.502   5.763  18.442  0.00  0.00    +0.000 A 
ATOM     23  C   UNL     1       2.964   4.709  17.702  0.00  0.00    +0.000 A 
ATOM     24  C   UNL     1       3.793   3.853  16.972  0.00  0.00    +0.000 A 
ATOM     25  C   UNL     1       5.172   4.044  16.970  0.00  0.00    +0.000 A 
ATOM     26  C   UNL     1       5.736   5.110  17.682  0.00  0.00    +0.000 A 
ATOM     27  C   UNL     1       4.889   5.970  18.409  0.00  0.00    +0.000 A 
BRANCH  26  28
ATOM     28  C   UNL     1       7.228   5.335  17.683  0.00  0.00    +0.000 C 
ATOM     29  F   UNL     1       7.734   5.649  18.908  0.00  0.00    +0.000 F 
ATOM     30  F   UNL     1       7.918   4.239  17.264  0.00  0.00    +0.000 F 
ATOM     31  F   UNL     1       7.602   6.349  16.854  0.00  0.00    +0.000 F 
ENDBRANCH  26  28
ENDBRANCH  20  22
ENDBRANCH   5  18
TORSDOF 5
ENDMDL
MODEL 3
REMARK VINA RESULT:      -8.9      3.922      5.551
REMARK  Name = 
REMARK  7 active torsions:
REMARK  status: ('A' for Active; 'I' for Inactive)
REMARK    1  A    between atoms: C_1  and  C_2
REMARK    2  A    between atoms: C_4  and  C_5
REMARK    3  A    between atoms: C_6  and  C_7
REMARK    4  A    between atoms: N_9  and  C_10
REMARK    5  A    between atoms: C_14  and  C_15
REMARK    6  A    between atoms: N_17  and  C_18
REMARK    7  A    between atoms: C_22  and  C_23
REMARK                            x       y       z     vdW  Elec       q    Type
REMARK                         _______ _______ _______ _____ _____    ______ ____
ROOT
ATOM      1  C   UNL     1       0.399  10.736  20.316  0.00  0.00    +0.000 A 
ATOM      2  C   UNL     1       0.102  10.177  21.566  0.00  0.00    +0.000 A 
ATOM      3  C   UNL     1       0.537   8.896  21.914  0.00  0.00    +0.000 A 
ATOM      4  C   UNL     1       1.260   8.134  21.004  0.00  0.00    +0.000 A 
ATOM      5  C   UNL     1       1.515   8.646  19.728  0.00  0.00    +0.000 A 
ATOM      6  C   UNL     1       1.085   9.947  19.387  0.00  0.00    +0.000 A 
ENDROOT
BRANCH   1   9
ATOM      7  C   UNL     1       0.623  13.216  20.488  0.00  0.00    +0.000 C 
ATOM      8  O   UNL     1       1.542  13.180  21.306  0.00  0.00    +0.000 OA
ATOM      9  N   UNL     1       0.045  12.066  19.961  0.00  0.00    +0.000 N 
ATOM     10  H   UNL     1      -0.581  12.190  19.175  0.00  0.00    +0.000 HD
BRANCH   7  16
ATOM     11  C   UNL     1      -1.962  17.729  19.420  0.00  0.00    +0.000 C 
ATOM     12  C   UNL     1      -1.016  16.584  19.508  0.00  0.00    +0.000 A 
ATOM     13  N   UNL     1       0.141  16.557  18.889  0.00  0.00    +0.000 NA
ATOM     14  C   UNL     1       0.805  15.380  19.171  0.00  0.00    +0.000 A 
ATOM     15  C   UNL     1       2.148  15.174  18.558  0.00  0.00    +0.000 C 
ATOM     16  C   UNL     1       0.133  14.504  20.016  0.00  0.00    +0.000 A 
ATOM     17  S   UNL     1      -1.380  15.189  20.450  0.00  0.00    +0.000 S 
ENDBRANCH   7  16
ENDBRANCH   1   9
BRANCH   5  18
ATOM     18  C   UNL     1       2.297   7.866  18.726  0.00  0.00    +0.000 C 
ATOM     19  O   UNL     1       2.425   8.345  17.605  0.00  0.00    +0.000 OA
ATOM     20  N   UNL     1       2.757   6.628  19.152  0.00  0.00    +0.000 N 
ATOM     21  H   UNL     1       2.417   6.290  20.043  0.00  0.00    +0.000 HD
BRANCH  20  22
ATOM     22  C   UNL     1       3.517   5.709  18.392  0.00  0.00    +0.000 A 
ATOM     23  C   UNL     1       2.955   4.624  17.715  0.00  0.00    +0.000 A 
ATOM     24  C   UNL     1       3.762   3.729  17.008  0.00  0.00    +0.000 A 
ATOM     25  C   UNL     1       5.143   3.910  16.967  0.00  0.00    +0.000 A 
ATOM     26  C   UNL     1       5.729   5.004  17.616  0.00  0.00    +0.000 A 
ATOM     27  C   UNL     1       4.903   5.904  18.320  0.00  0.00    +0.000 A 
BRANCH  26  28
ATOM     28  C   UNL     1       7.222   5.218  17.574  0.00  0.00    +0.000 C 
ATOM     29  F   UNL     1       7.795   5.326  18.805  0.00  0.00    +0.000 F 
ATOM     30  F   UNL     1       7.875   4.201  16.947  0.00  0.00    +0.000 F 
ATOM     31  F   UNL     1       7.567   6.351  16.902  0.00  0.00    +0.000 F 
ENDBRANCH  26  28
ENDBRANCH  20  22
ENDBRANCH   5  18
TORSDOF 5
ENDMDL
MODEL 4
REMARK VINA RESULT:      -8.8      3.953      6.009
REMARK  Name = 
REMARK  7 active torsions:
REMARK  status: ('A' for Active; 'I' for Inactive)
REMARK    1  A    between atoms: C_1  and  C_2
REMARK    2  A    between atoms: C_4  and  C_5
REMARK    3  A    between atoms: C_6  and  C_7
REMARK    4  A    between atoms: N_9  and  C_10
REMARK    5  A    between atoms: C_14  and  C_15
REMARK    6  A    between atoms: N_17  and  C_18
REMARK    7  A    between atoms: C_22  and  C_23
REMARK                            x       y       z     vdW  Elec       q    Type
REMARK                         _______ _______ _______ _____ _____    ______ ____
ROOT
ATOM      1  C   UNL     1       0.185  10.852  20.574  0.00  0.00    +0.000 A 
ATOM      2  C   UNL     1      -0.349  10.427  21.798  0.00  0.00    +0.000 A 
ATOM      3  C   UNL     1      -0.081   9.156  22.309  0.00  0.00    +0.000 A 
ATOM      4  C   UNL     1       0.710   8.267  21.590  0.00  0.00    +0.000 A 
ATOM      5  C   UNL     1       1.203   8.645  20.337  0.00  0.00    +0.000 A 
ATOM      6  C   UNL     1       0.940   9.937  19.832  0.00  0.00    +0.000 A 
ENDROOT
BRANCH   1   9
ATOM      7  C   UNL     1       0.699  13.292  20.490  0.00  0.00    +0.000 C 
ATOM      8  O   UNL     1       1.585  13.240  21.343  0.00  0.00    +0.000 OA
ATOM      9  N   UNL     1       0.003  12.166  20.065  0.00  0.00    +0.000 N 
ATOM     10  H   UNL     1      -0.583  12.274  19.247  0.00  0.00    +0.000 HD
BRANCH   7  16
ATOM     11  C   UNL     1       0.459  17.825  17.735  0.00  0.00    +0.000 C 
ATOM     12  C   UNL     1       0.229  16.646  18.613  0.00  0.00    +0.000 A 
ATOM     13  N   UNL     1      -0.891  16.443  19.266  0.00  0.00    +0.000 NA
ATOM     14  C   UNL     1      -0.819  15.263  19.980  0.00  0.00    +0.000 A 
ATOM     15  C   UNL     1      -2.010  14.861  20.782  0.00  0.00    +0.000 C 
ATOM     16  C   UNL     1       0.380  14.568  19.864  0.00  0.00    +0.000 A 
ATOM     17  S   UNL     1       1.440  15.441  18.834  0.00  0.00    +0.000 S 
ENDBRANCH   7  16
ENDBRANCH   1   9
BRANCH   5  18
ATOM     18  C   UNL     1       2.064   7.726  19.538  0.00  0.00    +0.000 C 
ATOM     19  O   UNL     1       2.288   8.026  18.370  0.00  0.00    +0.000 OA
ATOM     20  N   UNL     1       2.483   6.575  20.189  0.00  0.00    +0.000 N 
ATOM     21  H   UNL     1       2.068   6.376  21.090  0.00  0.00    +0.000 HD
BRANCH  20  22
ATOM     22  C   UNL     1       3.302   5.556  19.648  0.00  0.00    +0.000 A 
ATOM     23  C   UNL     1       4.660   5.727  19.375  0.00  0.00    +0.000 A 
ATOM     24  C   UNL     1       5.409   4.694  18.807  0.00  0.00    +0.000 A 
ATOM     25  C   UNL     1       4.809   3.473  18.509  0.00  0.00    +0.000 A 
ATOM     26  C   UNL     1       3.454   3.266  18.797  0.00  0.00    +0.000 A 
ATOM     27  C   UNL     1       2.710   4.315  19.375  0.00  0.00    +0.000 A 
BRANCH  26  28
ATOM     28  C   UNL     1       2.791   1.947  18.487  0.00  0.00    +0.000 C 
ATOM     29  F   UNL     1       3.641   0.883  18.527  0.00  0.00    +0.000 F 
ATOM     30  F   UNL     1       1.786   1.654  19.358  0.00  0.00    +0.000 F 
ATOM     31  F   UNL     1       2.226   1.926  17.248  0.00  0.00    +0.000 F 
ENDBRANCH  26  28
ENDBRANCH  20  22
ENDBRANCH   5  18
TORSDOF 5
ENDMDL
MODEL 5
REMARK VINA RESULT:      -8.8      4.392      6.004
REMARK  Name = 
REMARK  7 active torsions:
REMARK  status: ('A' for Active; 'I' for Inactive)
REMARK    1  A    between atoms: C_1  and  C_2
REMARK    2  A    between atoms: C_4  and  C_5
REMARK    3  A    between atoms: C_6  and  C_7
REMARK    4  A    between atoms: N_9  and  C_10
REMARK    5  A    between atoms: C_14  and  C_15
REMARK    6  A    between atoms: N_17  and  C_18
REMARK    7  A    between atoms: C_22  and  C_23
REMARK                            x       y       z     vdW  Elec       q    Type
REMARK                         _______ _______ _______ _____ _____    ______ ____
ROOT
ATOM      1  C   UNL     1       0.756  11.441  19.503  0.00  0.00    +0.000 A 
ATOM      2  C   UNL     1       0.236  11.000  20.727  0.00  0.00    +0.000 A 
ATOM      3  C   UNL     1       0.407   9.683  21.159  0.00  0.00    +0.000 A 
ATOM      4  C   UNL     1       1.082   8.768  20.359  0.00  0.00    +0.000 A 
ATOM      5  C   UNL     1       1.554   9.169  19.105  0.00  0.00    +0.000 A 
ATOM      6  C   UNL     1       1.392  10.505  18.680  0.00  0.00    +0.000 A 
ENDROOT
BRANCH   1   9
ATOM      7  C   UNL     1       1.512  13.819  19.494  0.00  0.00    +0.000 C 
ATOM      8  O   UNL     1       2.446  13.634  20.273  0.00  0.00    +0.000 OA
ATOM      9  N   UNL     1       0.674  12.793  19.071  0.00  0.00    +0.000 N 
ATOM     10  H   UNL     1       0.046  13.003  18.306  0.00  0.00    +0.000 HD
BRANCH   7  16
ATOM     11  C   UNL     1      -0.246  18.610  18.023  0.00  0.00    +0.000 C 
ATOM     12  C   UNL     1       0.516  17.355  18.268  0.00  0.00    +0.000 A 
ATOM     13  N   UNL     1       1.753  17.175  17.868  0.00  0.00    +0.000 NA
ATOM     14  C   UNL     1       2.201  15.926  18.254  0.00  0.00    +0.000 A 
ATOM     15  C   UNL     1       3.596  15.545  17.892  0.00  0.00    +0.000 C 
ATOM     16  C   UNL     1       1.282  15.153  18.954  0.00  0.00    +0.000 A 
ATOM     17  S   UNL     1      -0.186  16.030  19.114  0.00  0.00    +0.000 S 
ENDBRANCH   7  16
ENDBRANCH   1   9
BRANCH   5  18
ATOM     18  C   UNL     1       2.294   8.222  18.221  0.00  0.00    +0.000 C 
ATOM     19  O   UNL     1       2.484   8.560  17.058  0.00  0.00    +0.000 OA
ATOM     20  N   UNL     1       2.643   7.009  18.796  0.00  0.00    +0.000 N 
ATOM     21  H   UNL     1       2.257   6.801  19.708  0.00  0.00    +0.000 HD
BRANCH  20  22
ATOM     22  C   UNL     1       3.343   5.953  18.167  0.00  0.00    +0.000 A 
ATOM     23  C   UNL     1       2.746   4.745  17.805  0.00  0.00    +0.000 A 
ATOM     24  C   UNL     1       3.499   3.725  17.217  0.00  0.00    +0.000 A 
ATOM     25  C   UNL     1       4.859   3.903  16.980  0.00  0.00    +0.000 A 
ATOM     26  C   UNL     1       5.478   5.115  17.310  0.00  0.00    +0.000 A 
ATOM     27  C   UNL     1       4.707   6.139  17.897  0.00  0.00    +0.000 A 
BRANCH  26  28
ATOM     28  C   UNL     1       6.950   5.327  17.053  0.00  0.00    +0.000 C 
ATOM     29  F   UNL     1       7.495   6.335  17.789  0.00  0.00    +0.000 F 
ATOM     30  F   UNL     1       7.690   4.219  17.332  0.00  0.00    +0.000 F 
ATOM     31  F   UNL     1       7.213   5.631  15.752  0.00  0.00    +0.000 F 
ENDBRANCH  26  28
ENDBRANCH  20  22
ENDBRANCH   5  18
TORSDOF 5
ENDMDL
MODEL 6
REMARK VINA RESULT:      -8.8      3.913      5.619
REMARK  Name = 
REMARK  7 active torsions:
REMARK  status: ('A' for Active; 'I' for Inactive)
REMARK    1  A    between atoms: C_1  and  C_2
REMARK    2  A    between atoms: C_4  and  C_5
REMARK    3  A    between atoms: C_6  and  C_7
REMARK    4  A    between atoms: N_9  and  C_10
REMARK    5  A    between atoms: C_14  and  C_15
REMARK    6  A    between atoms: N_17  and  C_18
REMARK    7  A    between atoms: C_22  and  C_23
REMARK                            x       y       z     vdW  Elec       q    Type
REMARK                         _______ _______ _______ _____ _____    ______ ____
ROOT
ATOM      1  C   UNL     1       0.601  10.937  20.057  0.00  0.00    +0.000 A 
ATOM      2  C   UNL     1       0.300  10.411  21.320  0.00  0.00    +0.000 A 
ATOM      3  C   UNL     1       0.673   9.114  21.678  0.00  0.00    +0.000 A 
ATOM      4  C   UNL     1       1.336   8.301  20.765  0.00  0.00    +0.000 A 
ATOM      5  C   UNL     1       1.592   8.782  19.477  0.00  0.00    +0.000 A 
ATOM      6  C   UNL     1       1.226  10.099  19.126  0.00  0.00    +0.000 A 
ENDROOT
BRANCH   1   9
ATOM      7  C   UNL     1       0.819  13.408  20.322  0.00  0.00    +0.000 C 
ATOM      8  O   UNL     1       1.613  13.342  21.259  0.00  0.00    +0.000 OA
ATOM      9  N   UNL     1       0.312  12.279  19.689  0.00  0.00    +0.000 N 
ATOM     10  H   UNL     1      -0.197  12.428  18.827  0.00  0.00    +0.000 HD
BRANCH   7  16
ATOM     11  C   UNL     1       0.252  18.145  17.989  0.00  0.00    +0.000 C 
ATOM     12  C   UNL     1       0.111  16.881  18.762  0.00  0.00    +0.000 A 
ATOM     13  N   UNL     1      -0.982  16.552  19.410  0.00  0.00    +0.000 NA
ATOM     14  C   UNL     1      -0.825  15.320  20.015  0.00  0.00    +0.000 A 
ATOM     15  C   UNL     1      -1.972  14.777  20.795  0.00  0.00    +0.000 C 
ATOM     16  C   UNL     1       0.411  14.713  19.818  0.00  0.00    +0.000 A 
ATOM     17  S   UNL     1       1.395  15.738  18.854  0.00  0.00    +0.000 S 
ENDBRANCH   7  16
ENDBRANCH   1   9
BRANCH   5  18
ATOM     18  C   UNL     1       2.311   7.947  18.472  0.00  0.00    +0.000 C 
ATOM     19  O   UNL     1       2.404   8.385  17.330  0.00  0.00    +0.000 OA
ATOM     20  N   UNL     1       2.757   6.713  18.921  0.00  0.00    +0.000 N 
ATOM     21  H   UNL     1       2.445   6.414  19.837  0.00  0.00    +0.000 HD
BRANCH  20  22
ATOM     22  C   UNL     1       3.460   5.748  18.163  0.00  0.00    +0.000 A 
ATOM     23  C   UNL     1       2.882   4.563  17.704  0.00  0.00    +0.000 A 
ATOM     24  C   UNL     1       3.638   3.630  16.989  0.00  0.00    +0.000 A 
ATOM     25  C   UNL     1       4.982   3.875  16.719  0.00  0.00    +0.000 A 
ATOM     26  C   UNL     1       5.580   5.067  17.146  0.00  0.00    +0.000 A 
ATOM     27  C   UNL     1       4.805   6.003  17.861  0.00  0.00    +0.000 A 
BRANCH  26  28
ATOM     28  C   UNL     1       7.033   5.351  16.855  0.00  0.00    +0.000 C 
ATOM     29  F   UNL     1       7.312   5.480  15.529  0.00  0.00    +0.000 F 
ATOM     30  F   UNL     1       7.464   6.501  17.441  0.00  0.00    +0.000 F 
ATOM     31  F   UNL     1       7.857   4.368  17.315  0.00  0.00    +0.000 F 
ENDBRANCH  26  28
ENDBRANCH  20  22
ENDBRANCH   5  18
TORSDOF 5
ENDMDL
MODEL 7
REMARK VINA RESULT:      -8.6      5.654      9.888
REMARK  Name = 
REMARK  7 active torsions:
REMARK  status: ('A' for Active; 'I' for Inactive)
REMARK    1  A    between atoms: C_1  and  C_2
REMARK    2  A    between atoms: C_4  and  C_5
REMARK    3  A    between atoms: C_6  and  C_7
REMARK    4  A    between atoms: N_9  and  C_10
REMARK    5  A    between atoms: C_14  and  C_15
REMARK    6  A    between atoms: N_17  and  C_18
REMARK    7  A    between atoms: C_22  and  C_23
REMARK                            x       y       z     vdW  Elec       q    Type
REMARK                         _______ _______ _______ _____ _____    ______ ____
ROOT
ATOM      1  C   UNL     1       2.946   5.508  18.694  0.00  0.00    +0.000 A 
ATOM      2  C   UNL     1       2.318   4.370  19.216  0.00  0.00    +0.000 A 
ATOM      3  C   UNL     1       1.380   4.461  20.246  0.00  0.00    +0.000 A 
ATOM      4  C   UNL     1       1.068   5.698  20.797  0.00  0.00    +0.000 A 
ATOM      5  C   UNL     1       1.728   6.842  20.336  0.00  0.00    +0.000 A 
ATOM      6  C   UNL     1       2.664   6.745  19.285  0.00  0.00    +0.000 A 
ENDROOT
BRANCH   1   9
ATOM      7  C   UNL     1       5.073   4.817  17.589  0.00  0.00    +0.000 C 
ATOM      8  O   UNL     1       5.492   4.183  18.557  0.00  0.00    +0.000 OA
ATOM      9  N   UNL     1       3.841   5.461  17.591  0.00  0.00    +0.000 N 
ATOM     10  H   UNL     1       3.507   5.811  16.702  0.00  0.00    +0.000 HD
BRANCH   7  16
ATOM     11  C   UNL     1       7.259   4.372  12.770  0.00  0.00    +0.000 C 
ATOM     12  C   UNL     1       6.896   4.704  14.174  0.00  0.00    +0.000 A 
ATOM     13  N   UNL     1       7.544   5.588  14.895  0.00  0.00    +0.000 NA
ATOM     14  C   UNL     1       6.970   5.696  16.147  0.00  0.00    +0.000 A 
ATOM     15  C   UNL     1       7.571   6.665  17.107  0.00  0.00    +0.000 C 
ATOM     16  C   UNL     1       5.871   4.875  16.371  0.00  0.00    +0.000 A 
ATOM     17  S   UNL     1       5.570   3.939  14.963  0.00  0.00    +0.000 S 
ENDBRANCH   7  16
ENDBRANCH   1   9
BRANCH   5  18
ATOM     18  C   UNL     1       1.414   8.190  20.893  0.00  0.00    +0.000 C 
ATOM     19  O   UNL     1       1.535   8.349  22.102  0.00  0.00    +0.000 OA
ATOM     20  N   UNL     1       0.951   9.126  19.980  0.00  0.00    +0.000 N 
ATOM     21  H   UNL     1       0.729   8.795  19.050  0.00  0.00    +0.000 HD
BRANCH  20  22
ATOM     22  C   UNL     1       0.589  10.464  20.261  0.00  0.00    +0.000 A 
ATOM     23  C   UNL     1       1.120  11.562  19.582  0.00  0.00    +0.000 A 
ATOM     24  C   UNL     1       0.750  12.864  19.929  0.00  0.00    +0.000 A 
ATOM     25  C   UNL     1      -0.162  13.083  20.958  0.00  0.00    +0.000 A 
ATOM     26  C   UNL     1      -0.730  12.000  21.639  0.00  0.00    +0.000 A 
ATOM     27  C   UNL     1      -0.352  10.691  21.275  0.00  0.00    +0.000 A 
BRANCH  26  28
ATOM     28  C   UNL     1      -1.724  12.221  22.751  0.00  0.00    +0.000 C 
ATOM     29  F   UNL     1      -1.956  11.112  23.508  0.00  0.00    +0.000 F 
ATOM     30  F   UNL     1      -1.324  13.189  23.621  0.00  0.00    +0.000 F 
ATOM     31  F   UNL     1      -2.943  12.617  22.290  0.00  0.00    +0.000 F 
ENDBRANCH  26  28
ENDBRANCH  20  22
ENDBRANCH   5  18
TORSDOF 5
ENDMDL
MODEL 8
REMARK VINA RESULT:      -8.6      4.998      9.294
REMARK  Name = 
REMARK  7 active torsions:
REMARK  status: ('A' for Active; 'I' for Inactive)
REMARK    1  A    between atoms: C_1  and  C_2
REMARK    2  A    between atoms: C_4  and  C_5
REMARK    3  A    between atoms: C_6  and  C_7
REMARK    4  A    between atoms: N_9  and  C_10
REMARK    5  A    between atoms: C_14  and  C_15
REMARK    6  A    between atoms: N_17  and  C_18
REMARK    7  A    between atoms: C_22  and  C_23
REMARK                            x       y       z     vdW  Elec       q    Type
REMARK                         _______ _______ _______ _____ _____    ______ ____
ROOT
ATOM      1  C   UNL     1       3.589   5.844  18.920  0.00  0.00    +0.000 A 
ATOM      2  C   UNL     1       3.330   4.769  19.780  0.00  0.00    +0.000 A 
ATOM      3  C   UNL     1       2.341   4.843  20.762  0.00  0.00    +0.000 A 
ATOM      4  C   UNL     1       1.603   6.010  20.924  0.00  0.00    +0.000 A 
ATOM      5  C   UNL     1       1.886   7.118  20.119  0.00  0.00    +0.000 A 
ATOM      6  C   UNL     1       2.877   7.033  19.118  0.00  0.00    +0.000 A 
ENDROOT
BRANCH   1   9
ATOM      7  C   UNL     1       4.568   4.777  16.888  0.00  0.00    +0.000 C 
ATOM      8  O   UNL     1       3.747   3.862  16.846  0.00  0.00    +0.000 OA
ATOM      9  N   UNL     1       4.529   5.775  17.856  0.00  0.00    +0.000 N 
ATOM     10  H   UNL     1       5.134   6.573  17.713  0.00  0.00    +0.000 HD
BRANCH   7  16
ATOM     11  C   UNL     1       7.624   4.661  12.547  0.00  0.00    +0.000 C 
ATOM     12  C   UNL     1       7.034   4.826  13.903  0.00  0.00    +0.000 A 
ATOM     13  N   UNL     1       7.666   5.405  14.896  0.00  0.00    +0.000 NA
ATOM     14  C   UNL     1       6.864   5.430  16.021  0.00  0.00    +0.000 A 
ATOM     15  C   UNL     1       7.415   6.061  17.254  0.00  0.00    +0.000 C 
ATOM     16  C   UNL     1       5.607   4.856  15.870  0.00  0.00    +0.000 A 
ATOM     17  S   UNL     1       5.448   4.262  14.266  0.00  0.00    +0.000 S 
ENDBRANCH   7  16
ENDBRANCH   1   9
BRANCH   5  18
ATOM     18  C   UNL     1       1.110   8.385  20.252  0.00  0.00    +0.000 C 
ATOM     19  O   UNL     1       0.639   8.651  21.352  0.00  0.00    +0.000 OA
ATOM     20  N   UNL     1       0.946   9.116  19.084  0.00  0.00    +0.000 N 
ATOM     21  H   UNL     1       1.235   8.677  18.220  0.00  0.00    +0.000 HD
BRANCH  20  22
ATOM     22  C   UNL     1       0.255  10.343  18.954  0.00  0.00    +0.000 A 
ATOM     23  C   UNL     1       0.838  11.584  19.214  0.00  0.00    +0.000 A 
ATOM     24  C   UNL     1       0.093  12.761  19.101  0.00  0.00    +0.000 A 
ATOM     25  C   UNL     1      -1.246  12.711  18.721  0.00  0.00    +0.000 A 
ATOM     26  C   UNL     1      -1.849  11.481  18.430  0.00  0.00    +0.000 A 
ATOM     27  C   UNL     1      -1.085  10.302  18.542  0.00  0.00    +0.000 A 
BRANCH  26  28
ATOM     28  C   UNL     1      -3.296  11.411  18.010  0.00  0.00    +0.000 C 
ATOM     29  F   UNL     1      -3.516  11.811  16.727  0.00  0.00    +0.000 F 
ATOM     30  F   UNL     1      -3.801  10.149  18.099  0.00  0.00    +0.000 F 
ATOM     31  F   UNL     1      -4.102  12.188  18.786  0.00  0.00    +0.000 F 
ENDBRANCH  26  28
ENDBRANCH  20  22
ENDBRANCH   5  18
TORSDOF 5
ENDMDL
MODEL 9
REMARK VINA RESULT:      -8.6      4.356      6.318
REMARK  Name = 
REMARK  7 active torsions:
REMARK  status: ('A' for Active; 'I' for Inactive)
REMARK    1  A    between atoms: C_1  and  C_2
REMARK    2  A    between atoms: C_4  and  C_5
REMARK    3  A    between atoms: C_6  and  C_7
REMARK    4  A    between atoms: N_9  and  C_10
REMARK    5  A    between atoms: C_14  and  C_15
REMARK    6  A    between atoms: N_17  and  C_18
REMARK    7  A    between atoms: C_22  and  C_23
REMARK                            x       y       z     vdW  Elec       q    Type
REMARK                         _______ _______ _______ _____ _____    ______ ____
ROOT
ATOM      1  C   UNL     1       0.395  11.500  20.768  0.00  0.00    +0.000 A 
ATOM      2  C   UNL     1      -0.323  11.455  21.970  0.00  0.00    +0.000 A 
ATOM      3  C   UNL     1      -0.434  10.275  22.709  0.00  0.00    +0.000 A 
ATOM      4  C   UNL     1       0.151   9.103  22.245  0.00  0.00    +0.000 A 
ATOM      5  C   UNL     1       0.819   9.108  21.016  0.00  0.00    +0.000 A 
ATOM      6  C   UNL     1       0.940  10.307  20.280  0.00  0.00    +0.000 A 
ENDROOT
BRANCH   1   9
ATOM      7  C   UNL     1       1.565  13.658  20.322  0.00  0.00    +0.000 C 
ATOM      8  O   UNL     1       2.373  13.529  21.241  0.00  0.00    +0.000 OA
ATOM      9  N   UNL     1       0.599  12.700  20.034  0.00  0.00    +0.000 N 
ATOM     10  H   UNL     1       0.094  12.808  19.164  0.00  0.00    +0.000 HD
BRANCH   7  16
ATOM     11  C   UNL     1       0.928  18.236  17.708  0.00  0.00    +0.000 C 
ATOM     12  C   UNL     1       1.378  16.928  18.257  0.00  0.00    +0.000 A 
ATOM     13  N   UNL     1       2.509  16.357  17.917  0.00  0.00    +0.000 NA
ATOM     14  C   UNL     1       2.666  15.167  18.601  0.00  0.00    +0.000 A 
ATOM     15  C   UNL     1       3.904  14.377  18.348  0.00  0.00    +0.000 C 
ATOM     16  C   UNL     1       1.631  14.837  19.469  0.00  0.00    +0.000 A 
ATOM     17  S   UNL     1       0.430  16.062  19.403  0.00  0.00    +0.000 S 
ENDBRANCH   7  16
ENDBRANCH   1   9
BRANCH   5  18
ATOM     18  C   UNL     1       1.470   7.875  20.487  0.00  0.00    +0.000 C 
ATOM     19  O   UNL     1       1.501   6.890  21.216  0.00  0.00    +0.000 OA
ATOM     20  N   UNL     1       2.038   7.987  19.226  0.00  0.00    +0.000 N 
ATOM     21  H   UNL     1       2.094   8.915  18.825  0.00  0.00    +0.000 HD
BRANCH  20  22
ATOM     22  C   UNL     1       2.708   6.965  18.514  0.00  0.00    +0.000 A 
ATOM     23  C   UNL     1       3.837   7.192  17.725  0.00  0.00    +0.000 A 
ATOM     24  C   UNL     1       4.435   6.147  17.017  0.00  0.00    +0.000 A 
ATOM     25  C   UNL     1       3.913   4.858  17.093  0.00  0.00    +0.000 A 
ATOM     26  C   UNL     1       2.797   4.597  17.898  0.00  0.00    +0.000 A 
ATOM     27  C   UNL     1       2.206   5.659  18.612  0.00  0.00    +0.000 A 
BRANCH  26  28
ATOM     28  C   UNL     1       2.224   3.205  17.997  0.00  0.00    +0.000 C 
ATOM     29  F   UNL     1       0.864   3.177  18.080  0.00  0.00    +0.000 F 
ATOM     30  F   UNL     1       2.548   2.433  16.923  0.00  0.00    +0.000 F 
ATOM     31  F   UNL     1       2.678   2.531  19.090  0.00  0.00    +0.000 F 
ENDBRANCH  26  28
ENDBRANCH  20  22
ENDBRANCH   5  18
TORSDOF 5
ENDMDL
