MODEL 1
REMARK VINA RESULT:      -8.4      0.000      0.000
REMARK  Name = 
REMARK  6 active torsions:
REMARK  status: ('A' for Active; 'I' for Inactive)
REMARK    1  A    between atoms: C_2  and  C_14
REMARK    2  A    between atoms: N_3  and  C_4
REMARK    3  A    between atoms: C_4  and  C_5
REMARK    4  A    between atoms: C_4  and  C_11
REMARK    5  A    between atoms: C_17  and  C_18
REMARK    6  A    between atoms: C_21  and  C_22
REMARK                            x       y       z     vdW  Elec       q    Type
REMARK                         _______ _______ _______ _____ _____    ______ ____
ROOT
ATOM      1  C   UNL     1       1.632   8.526  19.263  0.00  0.00    +0.000 A 
ATOM      2  C   UNL     1       1.013   9.679  18.768  0.00  0.00    +0.000 A 
ATOM      3  C   UNL     1       0.243  10.490  19.610  0.00  0.00    +0.000 A 
ATOM      4  C   UNL     1       0.087  10.179  20.969  0.00  0.00    +0.000 A 
ATOM      5  C   UNL     1       0.697   9.008  21.453  0.00  0.00    +0.000 A 
ATOM      6  C   UNL     1       1.467   8.187  20.609  0.00  0.00    +0.000 A 
ENDROOT
BRANCH   4   7
ATOM      7  C   UNL     1      -0.661  11.097  21.829  0.00  0.00    +0.000 A 
ATOM      8  N   UNL     1      -0.380  11.525  23.042  0.00  0.00    +0.000 NA
ATOM      9  N   UNL     1      -1.423  12.338  23.424  0.00  0.00    +0.000 NA
ATOM     10  C   UNL     1      -2.272  12.364  22.416  0.00  0.00    +0.000 A 
ATOM     11  O   UNL     1      -1.852  11.591  21.359  0.00  0.00    +0.000 OA
BRANCH  10  12
ATOM     12  C   UNL     1      -3.529  13.091  22.275  0.00  0.00    +0.000 A 
ATOM     13  C   UNL     1      -4.345  12.858  21.155  0.00  0.00    +0.000 A 
ATOM     14  C   UNL     1      -5.581  13.498  21.019  0.00  0.00    +0.000 A 
ATOM     15  C   UNL     1      -6.015  14.384  22.000  0.00  0.00    +0.000 A 
ATOM     16  C   UNL     1      -5.210  14.644  23.107  0.00  0.00    +0.000 A 
ATOM     17  C   UNL     1      -3.972  14.005  23.241  0.00  0.00    +0.000 A 
ENDBRANCH  10  12
ENDBRANCH   4   7
BRANCH   1  19
ATOM     18  O   UNL     1       2.734   8.203  17.218  0.00  0.00    +0.000 OA
ATOM     19  C   UNL     1       2.507   7.752  18.333  0.00  0.00    +0.000 C 
ATOM     20  N   UNL     1       2.996   6.546  18.782  0.00  0.00    +0.000 N 
ATOM     21  H   UNL     1       2.702   6.171  19.670  0.00  0.00    +0.000 HD
BRANCH  20  22
ATOM     22  C   UNL     1       3.789   5.681  17.925  0.00  0.00    +0.000 C 
BRANCH  22  23
ATOM     23  C   UNL     1       5.273   5.948  18.146  0.00  0.00    +0.000 A 
ATOM     24  C   UNL     1       6.001   5.395  19.211  0.00  0.00    +0.000 A 
ATOM     25  C   UNL     1       7.356   5.703  19.388  0.00  0.00    +0.000 A 
ATOM     26  C   UNL     1       7.998   6.576  18.512  0.00  0.00    +0.000 A 
ATOM     27  C   UNL     1       7.292   7.134  17.450  0.00  0.00    +0.000 A 
ATOM     28  C   UNL     1       5.942   6.824  17.271  0.00  0.00    +0.000 A 
ENDBRANCH  22  23
BRANCH  22  29
ATOM     29  C   UNL     1       3.431   4.218  18.108  0.00  0.00    +0.000 C 
ATOM     30  C   UNL     1       4.044   3.183  17.188  0.00  0.00    +0.000 C 
ATOM     31  C   UNL     1       2.561   3.412  17.161  0.00  0.00    +0.000 C 
ENDBRANCH  22  29
ENDBRANCH  20  22
ENDBRANCH   1  19
TORSDOF 6
ENDMDL
MODEL 2
REMARK VINA RESULT:      -8.3      0.748      1.186
REMARK  Name = 
REMARK  6 active torsions:
REMARK  status: ('A' for Active; 'I' for Inactive)
REMARK    1  A    between atoms: C_2  and  C_14
REMARK    2  A    between atoms: N_3  and  C_4
REMARK    3  A    between atoms: C_4  and  C_5
REMARK    4  A    between atoms: C_4  and  C_11
REMARK    5  A    between atoms: C_17  and  C_18
REMARK    6  A    between atoms: C_21  and  C_22
REMARK                            x       y       z     vdW  Elec       q    Type
REMARK                         _______ _______ _______ _____ _____    ______ ____
ROOT
ATOM      1  C   UNL     1       1.569   8.727  19.187  0.00  0.00    +0.000 A 
ATOM      2  C   UNL     1       0.868   9.837  18.704  0.00  0.00    +0.000 A 
ATOM      3  C   UNL     1       0.116  10.638  19.572  0.00  0.00    +0.000 A 
ATOM      4  C   UNL     1       0.061  10.359  20.946  0.00  0.00    +0.000 A 
ATOM      5  C   UNL     1       0.753   9.230  21.420  0.00  0.00    +0.000 A 
ATOM      6  C   UNL     1       1.504   8.420  20.550  0.00  0.00    +0.000 A 
ENDROOT
BRANCH   4   7
ATOM      7  C   UNL     1      -0.672  11.268  21.828  0.00  0.00    +0.000 A 
ATOM      8  N   UNL     1      -0.224  12.037  22.799  0.00  0.00    +0.000 NA
ATOM      9  N   UNL     1      -1.322  12.661  23.346  0.00  0.00    +0.000 NA
ATOM     10  C   UNL     1      -2.373  12.242  22.669  0.00  0.00    +0.000 A 
ATOM     11  O   UNL     1      -2.035  11.346  21.681  0.00  0.00    +0.000 OA
BRANCH  10  12
ATOM     12  C   UNL     1      -3.779  12.606  22.810  0.00  0.00    +0.000 A 
ATOM     13  C   UNL     1      -4.363  12.641  24.087  0.00  0.00    +0.000 A 
ATOM     14  C   UNL     1      -5.692  13.038  24.260  0.00  0.00    +0.000 A 
ATOM     15  C   UNL     1      -6.457  13.404  23.156  0.00  0.00    +0.000 A 
ATOM     16  C   UNL     1      -5.900  13.357  21.879  0.00  0.00    +0.000 A 
ATOM     17  C   UNL     1      -4.571  12.955  21.707  0.00  0.00    +0.000 A 
ENDBRANCH  10  12
ENDBRANCH   4   7
BRANCH   1  19
ATOM     18  O   UNL     1       2.678   8.467  17.138  0.00  0.00    +0.000 OA
ATOM     19  C   UNL     1       2.417   7.966  18.223  0.00  0.00    +0.000 C 
ATOM     20  N   UNL     1       2.843   6.715  18.609  0.00  0.00    +0.000 N 
ATOM     21  H   UNL     1       2.522   6.305  19.471  0.00  0.00    +0.000 HD
BRANCH  20  22
ATOM     22  C   UNL     1       3.606   5.862  17.711  0.00  0.00    +0.000 C 
BRANCH  22  23
ATOM     23  C   UNL     1       5.093   5.983  18.017  0.00  0.00    +0.000 A 
ATOM     24  C   UNL     1       5.713   5.317  19.086  0.00  0.00    +0.000 A 
ATOM     25  C   UNL     1       7.078   5.494  19.344  0.00  0.00    +0.000 A 
ATOM     26  C   UNL     1       7.841   6.344  18.545  0.00  0.00    +0.000 A 
ATOM     27  C   UNL     1       7.243   7.012  17.479  0.00  0.00    +0.000 A 
ATOM     28  C   UNL     1       5.882   6.834  17.220  0.00  0.00    +0.000 A 
ENDBRANCH  22  23
BRANCH  22  29
ATOM     29  C   UNL     1       3.122   4.424  17.748  0.00  0.00    +0.000 C 
ATOM     30  C   UNL     1       1.635   4.139  17.679  0.00  0.00    +0.000 C 
ATOM     31  C   UNL     1       2.402   3.780  18.919  0.00  0.00    +0.000 C 
ENDBRANCH  22  29
ENDBRANCH  20  22
ENDBRANCH   1  19
TORSDOF 6
ENDMDL
MODEL 3
REMARK VINA RESULT:      -8.3      1.931      3.306
REMARK  Name = 
REMARK  6 active torsions:
REMARK  status: ('A' for Active; 'I' for Inactive)
REMARK    1  A    between atoms: C_2  and  C_14
REMARK    2  A    between atoms: N_3  and  C_4
REMARK    3  A    between atoms: C_4  and  C_5
REMARK    4  A    between atoms: C_4  and  C_11
REMARK    5  A    between atoms: C_17  and  C_18
REMARK    6  A    between atoms: C_21  and  C_22
REMARK                            x       y       z     vdW  Elec       q    Type
REMARK                         _______ _______ _______ _____ _____    ______ ____
ROOT
ATOM      1  C   UNL     1       2.273   7.878  18.982  0.00  0.00    +0.000 A 
ATOM      2  C   UNL     1       1.736   8.173  20.240  0.00  0.00    +0.000 A 
ATOM      3  C   UNL     1       0.845   9.240  20.401  0.00  0.00    +0.000 A 
ATOM      4  C   UNL     1       0.454  10.027  19.307  0.00  0.00    +0.000 A 
ATOM      5  C   UNL     1       1.013   9.735  18.050  0.00  0.00    +0.000 A 
ATOM      6  C   UNL     1       1.915   8.668  17.885  0.00  0.00    +0.000 A 
ENDROOT
BRANCH   4   7
ATOM      7  C   UNL     1      -0.540  11.082  19.507  0.00  0.00    +0.000 A 
ATOM      8  N   UNL     1      -0.882  12.073  18.710  0.00  0.00    +0.000 NA
ATOM      9  N   UNL     1      -1.833  12.808  19.381  0.00  0.00    +0.000 NA
ATOM     10  C   UNL     1      -2.021  12.214  20.543  0.00  0.00    +0.000 A 
ATOM     11  O   UNL     1      -1.226  11.102  20.696  0.00  0.00    +0.000 OA
BRANCH  10  12
ATOM     12  C   UNL     1      -2.936  12.555  21.627  0.00  0.00    +0.000 A 
ATOM     13  C   UNL     1      -4.139  13.220  21.337  0.00  0.00    +0.000 A 
ATOM     14  C   UNL     1      -5.061  13.512  22.348  0.00  0.00    +0.000 A 
ATOM     15  C   UNL     1      -4.790  13.145  23.662  0.00  0.00    +0.000 A 
ATOM     16  C   UNL     1      -3.593  12.503  23.971  0.00  0.00    +0.000 A 
ATOM     17  C   UNL     1      -2.669  12.214  22.961  0.00  0.00    +0.000 A 
ENDBRANCH  10  12
ENDBRANCH   4   7
BRANCH   1  19
ATOM     18  O   UNL     1       3.369   6.001  19.860  0.00  0.00    +0.000 OA
ATOM     19  C   UNL     1       3.151   6.677  18.864  0.00  0.00    +0.000 C 
ATOM     20  N   UNL     1       3.692   6.409  17.627  0.00  0.00    +0.000 N 
ATOM     21  H   UNL     1       3.563   7.050  16.859  0.00  0.00    +0.000 HD
BRANCH  20  22
ATOM     22  C   UNL     1       4.623   5.311  17.426  0.00  0.00    +0.000 C 
BRANCH  22  23
ATOM     23  C   UNL     1       3.971   3.995  17.833  0.00  0.00    +0.000 A 
ATOM     24  C   UNL     1       2.775   3.524  17.268  0.00  0.00    +0.000 A 
ATOM     25  C   UNL     1       2.201   2.325  17.707  0.00  0.00    +0.000 A 
ATOM     26  C   UNL     1       2.805   1.585  18.722  0.00  0.00    +0.000 A 
ATOM     27  C   UNL     1       3.992   2.036  19.293  0.00  0.00    +0.000 A 
ATOM     28  C   UNL     1       4.568   3.231  18.854  0.00  0.00    +0.000 A 
ENDBRANCH  22  23
BRANCH  22  29
ATOM     29  C   UNL     1       5.161   5.276  16.007  0.00  0.00    +0.000 C 
ATOM     30  C   UNL     1       5.830   4.015  15.498  0.00  0.00    +0.000 C 
ATOM     31  C   UNL     1       6.633   5.276  15.637  0.00  0.00    +0.000 C 
ENDBRANCH  22  29
ENDBRANCH  20  22
ENDBRANCH   1  19
TORSDOF 6
ENDMDL
MODEL 4
REMARK VINA RESULT:      -8.3      1.906      2.496
REMARK  Name = 
REMARK  6 active torsions:
REMARK  status: ('A' for Active; 'I' for Inactive)
REMARK    1  A    between atoms: C_2  and  C_14
REMARK    2  A    between atoms: N_3  and  C_4
REMARK    3  A    between atoms: C_4  and  C_5
REMARK    4  A    between atoms: C_4  and  C_11
REMARK    5  A    between atoms: C_17  and  C_18
REMARK    6  A    between atoms: C_21  and  C_22
REMARK                            x       y       z     vdW  Elec       q    Type
REMARK                         _______ _______ _______ _____ _____    ______ ____
ROOT
ATOM      1  C   UNL     1       2.293   7.221  19.157  0.00  0.00    +0.000 A 
ATOM      2  C   UNL     1       1.748   7.534  20.408  0.00  0.00    +0.000 A 
ATOM      3  C   UNL     1       1.090   8.752  20.612  0.00  0.00    +0.000 A 
ATOM      4  C   UNL     1       0.944   9.679  19.569  0.00  0.00    +0.000 A 
ATOM      5  C   UNL     1       1.512   9.364  18.321  0.00  0.00    +0.000 A 
ATOM      6  C   UNL     1       2.180   8.144  18.113  0.00  0.00    +0.000 A 
ENDROOT
BRANCH   4   7
ATOM      7  C   UNL     1       0.180  10.904  19.806  0.00  0.00    +0.000 A 
ATOM      8  N   UNL     1       0.270  12.075  19.211  0.00  0.00    +0.000 NA
ATOM      9  N   UNL     1      -0.641  12.902  19.830  0.00  0.00    +0.000 NA
ATOM     10  C   UNL     1      -1.237  12.181  20.759  0.00  0.00    +0.000 A 
ATOM     11  O   UNL     1      -0.762  10.891  20.804  0.00  0.00    +0.000 OA
BRANCH  10  12
ATOM     12  C   UNL     1      -2.302  12.551  21.685  0.00  0.00    +0.000 A 
ATOM     13  C   UNL     1      -3.303  13.445  21.272  0.00  0.00    +0.000 A 
ATOM     14  C   UNL     1      -4.366  13.777  22.118  0.00  0.00    +0.000 A 
ATOM     15  C   UNL     1      -4.439  13.220  23.391  0.00  0.00    +0.000 A 
ATOM     16  C   UNL     1      -3.444  12.348  23.826  0.00  0.00    +0.000 A 
ATOM     17  C   UNL     1      -2.378  12.019  22.980  0.00  0.00    +0.000 A 
ENDBRANCH  10  12
ENDBRANCH   4   7
BRANCH   1  19
ATOM     18  O   UNL     1       3.521   5.374  19.919  0.00  0.00    +0.000 OA
ATOM     19  C   UNL     1       2.909   5.872  18.984  0.00  0.00    +0.000 C 
ATOM     20  N   UNL     1       2.769   5.267  17.755  0.00  0.00    +0.000 N 
ATOM     21  H   UNL     1       2.342   5.758  16.986  0.00  0.00    +0.000 HD
BRANCH  20  22
ATOM     22  C   UNL     1       3.399   3.991  17.461  0.00  0.00    +0.000 C 
BRANCH  22  23
ATOM     23  C   UNL     1       4.821   4.214  16.961  0.00  0.00    +0.000 A 
ATOM     24  C   UNL     1       5.914   4.409  17.820  0.00  0.00    +0.000 A 
ATOM     25  C   UNL     1       7.194   4.647  17.306  0.00  0.00    +0.000 A 
ATOM     26  C   UNL     1       7.400   4.705  15.928  0.00  0.00    +0.000 A 
ATOM     27  C   UNL     1       6.328   4.512  15.061  0.00  0.00    +0.000 A 
ATOM     28  C   UNL     1       5.050   4.272  15.574  0.00  0.00    +0.000 A 
ENDBRANCH  22  23
BRANCH  22  29
ATOM     29  C   UNL     1       3.344   3.044  18.646  0.00  0.00    +0.000 C 
ATOM     30  C   UNL     1       3.509   1.556  18.415  0.00  0.00    +0.000 C 
ATOM     31  C   UNL     1       2.205   2.085  18.938  0.00  0.00    +0.000 C 
ENDBRANCH  22  29
ENDBRANCH  20  22
ENDBRANCH   1  19
TORSDOF 6
ENDMDL
MODEL 5
REMARK VINA RESULT:      -8.3      0.612      1.085
REMARK  Name = 
REMARK  6 active torsions:
REMARK  status: ('A' for Active; 'I' for Inactive)
REMARK    1  A    between atoms: C_2  and  C_14
REMARK    2  A    between atoms: N_3  and  C_4
REMARK    3  A    between atoms: C_4  and  C_5
REMARK    4  A    between atoms: C_4  and  C_11
REMARK    5  A    between atoms: C_17  and  C_18
REMARK    6  A    between atoms: C_21  and  C_22
REMARK                            x       y       z     vdW  Elec       q    Type
REMARK                         _______ _______ _______ _____ _____    ______ ____
ROOT
ATOM      1  C   UNL     1       1.608   8.958  19.133  0.00  0.00    +0.000 A 
ATOM      2  C   UNL     1       1.453   8.591  20.474  0.00  0.00    +0.000 A 
ATOM      3  C   UNL     1       0.680   9.372  21.341  0.00  0.00    +0.000 A 
ATOM      4  C   UNL     1       0.029  10.528  20.886  0.00  0.00    +0.000 A 
ATOM      5  C   UNL     1       0.207  10.901  19.541  0.00  0.00    +0.000 A 
ATOM      6  C   UNL     1       0.988  10.122  18.668  0.00  0.00    +0.000 A 
ENDROOT
BRANCH   4   7
ATOM      7  C   UNL     1      -0.832  11.271  21.807  0.00  0.00    +0.000 A 
ATOM      8  N   UNL     1      -0.741  11.407  23.113  0.00  0.00    +0.000 NA
ATOM      9  N   UNL     1      -1.819  12.168  23.506  0.00  0.00    +0.000 NA
ATOM     10  C   UNL     1      -2.496  12.458  22.413  0.00  0.00    +0.000 A 
ATOM     11  O   UNL     1      -1.925  11.917  21.285  0.00  0.00    +0.000 OA
BRANCH  10  12
ATOM     12  C   UNL     1      -3.703  13.261  22.250  0.00  0.00    +0.000 A 
ATOM     13  C   UNL     1      -3.816  14.133  21.154  0.00  0.00    +0.000 A 
ATOM     14  C   UNL     1      -4.982  14.875  20.941  0.00  0.00    +0.000 A 
ATOM     15  C   UNL     1      -6.050  14.758  21.825  0.00  0.00    +0.000 A 
ATOM     16  C   UNL     1      -5.949  13.914  22.929  0.00  0.00    +0.000 A 
ATOM     17  C   UNL     1      -4.780  13.174  23.144  0.00  0.00    +0.000 A 
ENDBRANCH  10  12
ENDBRANCH   4   7
BRANCH   1  19
ATOM     18  O   UNL     1       2.605   8.378  17.091  0.00  0.00    +0.000 OA
ATOM     19  C   UNL     1       2.376   8.038  18.244  0.00  0.00    +0.000 C 
ATOM     20  N   UNL     1       2.770   6.829  18.774  0.00  0.00    +0.000 N 
ATOM     21  H   UNL     1       2.474   6.552  19.696  0.00  0.00    +0.000 HD
BRANCH  20  22
ATOM     22  C   UNL     1       3.451   5.831  17.967  0.00  0.00    +0.000 C 
BRANCH  22  23
ATOM     23  C   UNL     1       4.959   5.956  18.148  0.00  0.00    +0.000 A 
ATOM     24  C   UNL     1       5.659   5.343  19.200  0.00  0.00    +0.000 A 
ATOM     25  C   UNL     1       7.040   5.522  19.339  0.00  0.00    +0.000 A 
ATOM     26  C   UNL     1       7.741   6.323  18.439  0.00  0.00    +0.000 A 
ATOM     27  C   UNL     1       7.064   6.937  17.389  0.00  0.00    +0.000 A 
ATOM     28  C   UNL     1       5.686   6.757  17.247  0.00  0.00    +0.000 A 
ENDBRANCH  22  23
BRANCH  22  29
ATOM     29  C   UNL     1       2.948   4.429  18.254  0.00  0.00    +0.000 C 
ATOM     30  C   UNL     1       3.043   3.370  17.175  0.00  0.00    +0.000 C 
ATOM     31  C   UNL     1       1.694   3.817  17.658  0.00  0.00    +0.000 C 
ENDBRANCH  22  29
ENDBRANCH  20  22
ENDBRANCH   1  19
TORSDOF 6
ENDMDL
MODEL 6
REMARK VINA RESULT:      -8.3      1.219      1.531
REMARK  Name = 
REMARK  6 active torsions:
REMARK  status: ('A' for Active; 'I' for Inactive)
REMARK    1  A    between atoms: C_2  and  C_14
REMARK    2  A    between atoms: N_3  and  C_4
REMARK    3  A    between atoms: C_4  and  C_5
REMARK    4  A    between atoms: C_4  and  C_11
REMARK    5  A    between atoms: C_17  and  C_18
REMARK    6  A    between atoms: C_21  and  C_22
REMARK                            x       y       z     vdW  Elec       q    Type
REMARK                         _______ _______ _______ _____ _____    ______ ____
ROOT
ATOM      1  C   UNL     1       1.709   8.233  20.078  0.00  0.00    +0.000 A 
ATOM      2  C   UNL     1       1.400   8.280  21.442  0.00  0.00    +0.000 A 
ATOM      3  C   UNL     1       0.724   9.381  21.981  0.00  0.00    +0.000 A 
ATOM      4  C   UNL     1       0.324  10.452  21.169  0.00  0.00    +0.000 A 
ATOM      5  C   UNL     1       0.655  10.405  19.802  0.00  0.00    +0.000 A 
ATOM      6  C   UNL     1       1.341   9.304  19.258  0.00  0.00    +0.000 A 
ENDROOT
BRANCH   4   7
ATOM      7  C   UNL     1      -0.450  11.545  21.759  0.00  0.00    +0.000 A 
ATOM      8  N   UNL     1      -0.062  12.754  22.106  0.00  0.00    +0.000 NA
ATOM      9  N   UNL     1      -1.160  13.379  22.653  0.00  0.00    +0.000 NA
ATOM     10  C   UNL     1      -2.155  12.515  22.596  0.00  0.00    +0.000 A 
ATOM     11  O   UNL     1      -1.775  11.317  22.037  0.00  0.00    +0.000 OA
BRANCH  10  12
ATOM     12  C   UNL     1      -3.546  12.667  23.009  0.00  0.00    +0.000 A 
ATOM     13  C   UNL     1      -4.522  12.996  22.054  0.00  0.00    +0.000 A 
ATOM     14  C   UNL     1      -5.871  13.095  22.409  0.00  0.00    +0.000 A 
ATOM     15  C   UNL     1      -6.261  12.870  23.725  0.00  0.00    +0.000 A 
ATOM     16  C   UNL     1      -5.304  12.563  24.690  0.00  0.00    +0.000 A 
ATOM     17  C   UNL     1      -3.954  12.468  24.335  0.00  0.00    +0.000 A 
ENDBRANCH  10  12
ENDBRANCH   4   7
BRANCH   1  19
ATOM     18  O   UNL     1       2.490   6.033  20.298  0.00  0.00    +0.000 OA
ATOM     19  C   UNL     1       2.357   6.995  19.554  0.00  0.00    +0.000 C 
ATOM     20  N   UNL     1       2.795   7.016  18.249  0.00  0.00    +0.000 N 
ATOM     21  H   UNL     1       2.752   7.863  17.705  0.00  0.00    +0.000 HD
BRANCH  20  22
ATOM     22  C   UNL     1       3.509   5.890  17.669  0.00  0.00    +0.000 C 
BRANCH  22  23
ATOM     23  C   UNL     1       4.999   6.014  17.959  0.00  0.00    +0.000 A 
ATOM     24  C   UNL     1       5.639   5.318  18.998  0.00  0.00    +0.000 A 
ATOM     25  C   UNL     1       7.005   5.498  19.243  0.00  0.00    +0.000 A 
ATOM     26  C   UNL     1       7.750   6.381  18.464  0.00  0.00    +0.000 A 
ATOM     27  C   UNL     1       7.133   7.079  17.429  0.00  0.00    +0.000 A 
ATOM     28  C   UNL     1       5.770   6.898  17.181  0.00  0.00    +0.000 A 
ENDBRANCH  22  23
BRANCH  22  29
ATOM     29  C   UNL     1       2.938   4.560  18.126  0.00  0.00    +0.000 C 
ATOM     30  C   UNL     1       2.958   3.379  17.177  0.00  0.00    +0.000 C 
ATOM     31  C   UNL     1       1.643   3.951  17.620  0.00  0.00    +0.000 C 
ENDBRANCH  22  29
ENDBRANCH  20  22
ENDBRANCH   1  19
TORSDOF 6
ENDMDL
MODEL 7
REMARK VINA RESULT:      -8.3      3.294     10.833
REMARK  Name = 
REMARK  6 active torsions:
REMARK  status: ('A' for Active; 'I' for Inactive)
REMARK    1  A    between atoms: C_2  and  C_14
REMARK    2  A    between atoms: N_3  and  C_4
REMARK    3  A    between atoms: C_4  and  C_5
REMARK    4  A    between atoms: C_4  and  C_11
REMARK    5  A    between atoms: C_17  and  C_18
REMARK    6  A    between atoms: C_21  and  C_22
REMARK                            x       y       z     vdW  Elec       q    Type
REMARK                         _______ _______ _______ _____ _____    ______ ____
ROOT
ATOM      1  C   UNL     1       1.810   8.285  19.123  0.00  0.00    +0.000 A 
ATOM      2  C   UNL     1       2.458   8.609  17.926  0.00  0.00    +0.000 A 
ATOM      3  C   UNL     1       3.458   7.775  17.411  0.00  0.00    +0.000 A 
ATOM      4  C   UNL     1       3.822   6.591  18.069  0.00  0.00    +0.000 A 
ATOM      5  C   UNL     1       3.179   6.284  19.282  0.00  0.00    +0.000 A 
ATOM      6  C   UNL     1       2.178   7.122  19.806  0.00  0.00    +0.000 A 
ENDROOT
BRANCH   4   7
ATOM      7  C   UNL     1       4.816   5.711  17.454  0.00  0.00    +0.000 A 
ATOM      8  N   UNL     1       5.668   4.882  18.023  0.00  0.00    +0.000 NA
ATOM      9  N   UNL     1       6.409   4.322  17.007  0.00  0.00    +0.000 NA
ATOM     10  C   UNL     1       5.957   4.834  15.880  0.00  0.00    +0.000 A 
ATOM     11  O   UNL     1       4.937   5.734  16.087  0.00  0.00    +0.000 OA
BRANCH  10  12
ATOM     12  C   UNL     1       6.365   4.567  14.505  0.00  0.00    +0.000 A 
ATOM     13  C   UNL     1       5.622   3.666  13.723  0.00  0.00    +0.000 A 
ATOM     14  C   UNL     1       5.956   3.430  12.386  0.00  0.00    +0.000 A 
ATOM     15  C   UNL     1       7.039   4.090  11.813  0.00  0.00    +0.000 A 
ATOM     16  C   UNL     1       7.799   4.971  12.580  0.00  0.00    +0.000 A 
ATOM     17  C   UNL     1       7.467   5.204  13.919  0.00  0.00    +0.000 A 
ENDBRANCH  10  12
ENDBRANCH   4   7
BRANCH   1  19
ATOM     18  O   UNL     1       0.325   9.115  20.738  0.00  0.00    +0.000 OA
ATOM     19  C   UNL     1       0.697   9.172  19.573  0.00  0.00    +0.000 C 
ATOM     20  N   UNL     1       0.129  10.000  18.631  0.00  0.00    +0.000 N 
ATOM     21  H   UNL     1       0.402   9.942  17.663  0.00  0.00    +0.000 HD
BRANCH  20  22
ATOM     22  C   UNL     1      -1.013  10.842  18.949  0.00  0.00    +0.000 C 
BRANCH  22  23
ATOM     23  C   UNL     1      -0.536  12.223  19.383  0.00  0.00    +0.000 A 
ATOM     24  C   UNL     1      -0.596  12.673  20.711  0.00  0.00    +0.000 A 
ATOM     25  C   UNL     1      -0.177  13.966  21.048  0.00  0.00    +0.000 A 
ATOM     26  C   UNL     1       0.296  14.831  20.064  0.00  0.00    +0.000 A 
ATOM     27  C   UNL     1       0.364  14.402  18.741  0.00  0.00    +0.000 A 
ATOM     28  C   UNL     1      -0.050  13.111  18.405  0.00  0.00    +0.000 A 
ENDBRANCH  22  23
BRANCH  22  29
ATOM     29  C   UNL     1      -2.007  10.906  17.804  0.00  0.00    +0.000 C 
ATOM     30  C   UNL     1      -3.390  11.474  18.052  0.00  0.00    +0.000 C 
ATOM     31  C   UNL     1      -3.238  10.029  17.674  0.00  0.00    +0.000 C 
ENDBRANCH  22  29
ENDBRANCH  20  22
ENDBRANCH   1  19
TORSDOF 6
ENDMDL
MODEL 8
REMARK VINA RESULT:      -8.2      1.340      1.506
REMARK  Name = 
REMARK  6 active torsions:
REMARK  status: ('A' for Active; 'I' for Inactive)
REMARK    1  A    between atoms: C_2  and  C_14
REMARK    2  A    between atoms: N_3  and  C_4
REMARK    3  A    between atoms: C_4  and  C_5
REMARK    4  A    between atoms: C_4  and  C_11
REMARK    5  A    between atoms: C_17  and  C_18
REMARK    6  A    between atoms: C_21  and  C_22
REMARK                            x       y       z     vdW  Elec       q    Type
REMARK                         _______ _______ _______ _____ _____    ______ ____
ROOT
ATOM      1  C   UNL     1       2.094   7.960  18.872  0.00  0.00    +0.000 A 
ATOM      2  C   UNL     1       1.729   9.076  18.111  0.00  0.00    +0.000 A 
ATOM      3  C   UNL     1       1.028  10.138  18.696  0.00  0.00    +0.000 A 
ATOM      4  C   UNL     1       0.691  10.118  20.057  0.00  0.00    +0.000 A 
ATOM      5  C   UNL     1       1.046   8.983  20.810  0.00  0.00    +0.000 A 
ATOM      6  C   UNL     1       1.743   7.912  20.224  0.00  0.00    +0.000 A 
ENDROOT
BRANCH   4   7
ATOM      7  C   UNL     1       0.029  11.284  20.644  0.00  0.00    +0.000 A 
ATOM      8  N   UNL     1       0.454  12.526  20.745  0.00  0.00    +0.000 NA
ATOM      9  N   UNL     1      -0.526  13.224  21.416  0.00  0.00    +0.000 NA
ATOM     10  C   UNL     1      -1.493  12.366  21.673  0.00  0.00    +0.000 A 
ATOM     11  O   UNL     1      -1.208  11.102  21.210  0.00  0.00    +0.000 OA
BRANCH  10  12
ATOM     12  C   UNL     1      -2.777  12.579  22.334  0.00  0.00    +0.000 A 
ATOM     13  C   UNL     1      -3.891  12.976  21.576  0.00  0.00    +0.000 A 
ATOM     14  C   UNL     1      -5.146  13.136  22.171  0.00  0.00    +0.000 A 
ATOM     15  C   UNL     1      -5.303  12.903  23.534  0.00  0.00    +0.000 A 
ATOM     16  C   UNL     1      -4.204  12.529  24.306  0.00  0.00    +0.000 A 
ATOM     17  C   UNL     1      -2.948  12.373  23.710  0.00  0.00    +0.000 A 
ENDBRANCH  10  12
ENDBRANCH   4   7
BRANCH   1  19
ATOM     18  O   UNL     1       3.570   7.194  17.218  0.00  0.00    +0.000 OA
ATOM     19  C   UNL     1       2.911   6.902  18.207  0.00  0.00    +0.000 C 
ATOM     20  N   UNL     1       2.856   5.634  18.740  0.00  0.00    +0.000 N 
ATOM     21  H   UNL     1       2.223   5.420  19.495  0.00  0.00    +0.000 HD
BRANCH  20  22
ATOM     22  C   UNL     1       3.551   4.518  18.120  0.00  0.00    +0.000 C 
BRANCH  22  23
ATOM     23  C   UNL     1       5.058   4.733  18.202  0.00  0.00    +0.000 A 
ATOM     24  C   UNL     1       5.699   5.241  19.343  0.00  0.00    +0.000 A 
ATOM     25  C   UNL     1       7.083   5.453  19.350  0.00  0.00    +0.000 A 
ATOM     26  C   UNL     1       7.844   5.171  18.217  0.00  0.00    +0.000 A 
ATOM     27  C   UNL     1       7.225   4.665  17.077  0.00  0.00    +0.000 A 
ATOM     28  C   UNL     1       5.845   4.451  17.070  0.00  0.00    +0.000 A 
ENDBRANCH  22  23
BRANCH  22  29
ATOM     29  C   UNL     1       3.123   3.186  18.708  0.00  0.00    +0.000 C 
ATOM     30  C   UNL     1       3.463   1.906  17.971  0.00  0.00    +0.000 C 
ATOM     31  C   UNL     1       2.026   2.301  18.145  0.00  0.00    +0.000 C 
ENDBRANCH  22  29
ENDBRANCH  20  22
ENDBRANCH   1  19
TORSDOF 6
ENDMDL
MODEL 9
REMARK VINA RESULT:      -8.2      0.670      1.420
REMARK  Name = 
REMARK  6 active torsions:
REMARK  status: ('A' for Active; 'I' for Inactive)
REMARK    1  A    between atoms: C_2  and  C_14
REMARK    2  A    between atoms: N_3  and  C_4
REMARK    3  A    between atoms: C_4  and  C_5
REMARK    4  A    between atoms: C_4  and  C_11
REMARK    5  A    between atoms: C_17  and  C_18
REMARK    6  A    between atoms: C_21  and  C_22
REMARK                            x       y       z     vdW  Elec       q    Type
REMARK                         _______ _______ _______ _____ _____    ______ ____
ROOT
ATOM      1  C   UNL     1       1.565   9.081  19.123  0.00  0.00    +0.000 A 
ATOM      2  C   UNL     1       1.214   8.622  20.398  0.00  0.00    +0.000 A 
ATOM      3  C   UNL     1       0.442   9.418  21.253  0.00  0.00    +0.000 A 
ATOM      4  C   UNL     1      -0.013  10.682  20.849  0.00  0.00    +0.000 A 
ATOM      5  C   UNL     1       0.360  11.143  19.573  0.00  0.00    +0.000 A 
ATOM      6  C   UNL     1       1.142  10.350  18.714  0.00  0.00    +0.000 A 
ENDROOT
BRANCH   4   7
ATOM      7  C   UNL     1      -0.884  11.445  21.744  0.00  0.00    +0.000 A 
ATOM      8  N   UNL     1      -0.791  11.631  23.045  0.00  0.00    +0.000 NA
ATOM      9  N   UNL     1      -1.880  12.390  23.412  0.00  0.00    +0.000 NA
ATOM     10  C   UNL     1      -2.564  12.629  22.311  0.00  0.00    +0.000 A 
ATOM     11  O   UNL     1      -1.988  12.054  21.202  0.00  0.00    +0.000 OA
BRANCH  10  12
ATOM     12  C   UNL     1      -3.784  13.407  22.122  0.00  0.00    +0.000 A 
ATOM     13  C   UNL     1      -5.010  12.744  21.946  0.00  0.00    +0.000 A 
ATOM     14  C   UNL     1      -6.203  13.462  21.817  0.00  0.00    +0.000 A 
ATOM     15  C   UNL     1      -6.185  14.853  21.860  0.00  0.00    +0.000 A 
ATOM     16  C   UNL     1      -4.976  15.527  22.014  0.00  0.00    +0.000 A 
ATOM     17  C   UNL     1      -3.782  14.809  22.139  0.00  0.00    +0.000 A 
ENDBRANCH  10  12
ENDBRANCH   4   7
BRANCH   1  19
ATOM     18  O   UNL     1       2.549   8.490  17.078  0.00  0.00    +0.000 OA
ATOM     19  C   UNL     1       2.319   8.151  18.231  0.00  0.00    +0.000 C 
ATOM     20  N   UNL     1       2.696   6.937  18.760  0.00  0.00    +0.000 N 
ATOM     21  H   UNL     1       2.398   6.663  19.683  0.00  0.00    +0.000 HD
BRANCH  20  22
ATOM     22  C   UNL     1       3.363   5.931  17.950  0.00  0.00    +0.000 C 
BRANCH  22  23
ATOM     23  C   UNL     1       4.874   6.061  18.098  0.00  0.00    +0.000 A 
ATOM     24  C   UNL     1       5.674   6.776  17.192  0.00  0.00    +0.000 A 
ATOM     25  C   UNL     1       7.063   6.832  17.355  0.00  0.00    +0.000 A 
ATOM     26  C   UNL     1       7.674   6.168  18.417  0.00  0.00    +0.000 A 
ATOM     27  C   UNL     1       6.897   5.456  19.326  0.00  0.00    +0.000 A 
ATOM     28  C   UNL     1       5.510   5.401  19.166  0.00  0.00    +0.000 A 
ENDBRANCH  22  23
BRANCH  22  29
ATOM     29  C   UNL     1       2.869   4.531  18.266  0.00  0.00    +0.000 C 
ATOM     30  C   UNL     1       2.984   3.448  17.213  0.00  0.00    +0.000 C 
ATOM     31  C   UNL     1       1.626   3.894  17.671  0.00  0.00    +0.000 C 
ENDBRANCH  22  29
ENDBRANCH  20  22
ENDBRANCH   1  19
TORSDOF 6
ENDMDL
