MODEL 1
REMARK VINA RESULT:      -8.7      0.000      0.000
REMARK  Name = 
REMARK  7 active torsions:
REMARK  status: ('A' for Active; 'I' for Inactive)
REMARK    1  A    between atoms: C_1  and  N_2
REMARK    2  A    between atoms: N_2  and  C_3
REMARK    3  A    between atoms: N_2  and  C_10
REMARK    4  A    between atoms: C_3  and  C_4
REMARK    5  A    between atoms: N_8  and  C_9
REMARK    6  A    between atoms: C_14  and  N_15
REMARK    7  A    between atoms: C_22  and  C_23
REMARK                            x       y       z     vdW  Elec       q    Type
REMARK                         _______ _______ _______ _____ _____    ______ ____
ROOT
ATOM      1  C   UNL     1       4.336   4.802  18.107  0.00  0.00    +0.000 A 
ATOM      2  C   UNL     1       4.089   3.789  19.045  0.00  0.00    +0.000 A 
ATOM      3  C   UNL     1       3.219   3.965  20.117  0.00  0.00    +0.000 A 
ATOM      4  C   UNL     1       2.554   5.173  20.283  0.00  0.00    +0.000 A 
ATOM      5  C   UNL     1       2.742   6.222  19.383  0.00  0.00    +0.000 A 
ATOM      6  C   UNL     1       3.650   6.021  18.320  0.00  0.00    +0.000 A 
ENDROOT
BRANCH   5   7
ATOM      7  N   UNL     1       2.004   7.434  19.508  0.00  0.00    +0.000 N 
ATOM      8  C   UNL     1       1.268   7.795  20.702  0.00  0.00    +0.000 C 
ATOM      9  C   UNL     1       0.935   9.230  20.444  0.00  0.00    +0.000 C 
ATOM     10  C   UNL     1       1.323   9.610  19.222  0.00  0.00    +0.000 C 
ATOM     11  C   UNL     1       1.262  10.971  18.646  0.00  0.00    +0.000 C 
ATOM     12  C   UNL     1       0.722  12.010  19.644  0.00  0.00    +0.000 C 
ATOM     13  C   UNL     1       0.275  11.479  20.986  0.00  0.00    +0.000 C 
ATOM     14  C   UNL     1       0.362  10.185  21.375  0.00  0.00    +0.000 C 
ATOM     15  C   UNL     1       1.977   8.471  18.574  0.00  0.00    +0.000 C 
ATOM     16  O   UNL     1       2.420   8.548  17.442  0.00  0.00    +0.000 OA
BRANCH  14  17
ATOM     17  C   UNL     1      -0.086   9.756  22.754  0.00  0.00    +0.000 C 
ATOM     18  F   UNL     1       0.936   9.381  23.566  0.00  0.00    +0.000 F 
ATOM     19  F   UNL     1      -0.740  10.757  23.396  0.00  0.00    +0.000 F 
ATOM     20  F   UNL     1      -0.940   8.702  22.698  0.00  0.00    +0.000 F 
ENDBRANCH  14  17
ENDBRANCH   5   7
BRANCH   1  22
ATOM     21  C   UNL     1       4.751   4.024  15.791  0.00  0.00    +0.000 C 
ATOM     22  N   UNL     1       5.216   4.615  17.038  0.00  0.00    +0.000 N 
BRANCH  22  23
ATOM     23  C   UNL     1       6.674   4.725  17.235  0.00  0.00    +0.000 C 
BRANCH  23  24
ATOM     24  C   UNL     1       7.219   6.097  17.496  0.00  0.00    +0.000 A 
ATOM     25  N   UNL     1       7.231   7.116  16.655  0.00  0.00    +0.000 NA
ATOM     26  N   UNL     1       7.858   8.177  17.265  0.00  0.00    +0.000 NA
ATOM     27  C   UNL     1       8.229   7.783  18.461  0.00  0.00    +0.000 A 
ATOM     28  N   UNL     1       7.850   6.488  18.648  0.00  0.00    +0.000 N 
ATOM     29  C   UNL     1       8.113   5.701  19.820  0.00  0.00    +0.000 C 
ENDBRANCH  23  24
ENDBRANCH  22  23
ENDBRANCH   1  22
TORSDOF 5
ENDMDL
MODEL 2
REMARK VINA RESULT:      -8.3      1.549      2.535
REMARK  Name = 
REMARK  7 active torsions:
REMARK  status: ('A' for Active; 'I' for Inactive)
REMARK    1  A    between atoms: C_1  and  N_2
REMARK    2  A    between atoms: N_2  and  C_3
REMARK    3  A    between atoms: N_2  and  C_10
REMARK    4  A    between atoms: C_3  and  C_4
REMARK    5  A    between atoms: N_8  and  C_9
REMARK    6  A    between atoms: C_14  and  N_15
REMARK    7  A    between atoms: C_22  and  C_23
REMARK                            x       y       z     vdW  Elec       q    Type
REMARK                         _______ _______ _______ _____ _____    ______ ____
ROOT
ATOM      1  C   UNL     1       4.716   4.638  18.051  0.00  0.00    +0.000 A 
ATOM      2  C   UNL     1       4.388   3.597  18.934  0.00  0.00    +0.000 A 
ATOM      3  C   UNL     1       3.422   3.740  19.925  0.00  0.00    +0.000 A 
ATOM      4  C   UNL     1       2.738   4.941  20.063  0.00  0.00    +0.000 A 
ATOM      5  C   UNL     1       3.004   6.016  19.215  0.00  0.00    +0.000 A 
ATOM      6  C   UNL     1       4.007   5.848  18.235  0.00  0.00    +0.000 A 
ENDROOT
BRANCH   5   7
ATOM      7  N   UNL     1       2.251   7.223  19.307  0.00  0.00    +0.000 N 
ATOM      8  C   UNL     1       1.499   7.601  20.485  0.00  0.00    +0.000 C 
ATOM      9  C   UNL     1       1.153   9.026  20.193  0.00  0.00    +0.000 C 
ATOM     10  C   UNL     1       1.550   9.384  18.967  0.00  0.00    +0.000 C 
ATOM     11  C   UNL     1       1.480  10.731  18.360  0.00  0.00    +0.000 C 
ATOM     12  C   UNL     1       0.918  11.785  19.330  0.00  0.00    +0.000 C 
ATOM     13  C   UNL     1       0.464  11.279  20.679  0.00  0.00    +0.000 C 
ATOM     14  C   UNL     1       0.561   9.995  21.097  0.00  0.00    +0.000 C 
ATOM     15  C   UNL     1       2.223   8.238  18.350  0.00  0.00    +0.000 C 
ATOM     16  O   UNL     1       2.677   8.295  17.221  0.00  0.00    +0.000 OA
BRANCH  14  17
ATOM     17  C   UNL     1       0.104   9.591  22.480  0.00  0.00    +0.000 C 
ATOM     18  F   UNL     1       1.119   9.219  23.302  0.00  0.00    +0.000 F 
ATOM     19  F   UNL     1      -0.544  10.607  23.105  0.00  0.00    +0.000 F 
ATOM     20  F   UNL     1      -0.760   8.544  22.437  0.00  0.00    +0.000 F 
ENDBRANCH  14  17
ENDBRANCH   5   7
BRANCH   1  22
ATOM     21  C   UNL     1       7.106   4.530  17.407  0.00  0.00    +0.000 C 
ATOM     22  N   UNL     1       5.692   4.483  17.063  0.00  0.00    +0.000 N 
BRANCH  22  23
ATOM     23  C   UNL     1       5.337   4.570  15.635  0.00  0.00    +0.000 C 
BRANCH  23  24
ATOM     24  C   UNL     1       6.458   4.831  14.674  0.00  0.00    +0.000 A 
ATOM     25  N   UNL     1       7.484   5.643  14.859  0.00  0.00    +0.000 NA
ATOM     26  N   UNL     1       8.260   5.630  13.723  0.00  0.00    +0.000 NA
ATOM     27  C   UNL     1       7.688   4.821  12.863  0.00  0.00    +0.000 A 
ATOM     28  N   UNL     1       6.557   4.300  13.415  0.00  0.00    +0.000 N 
ATOM     29  C   UNL     1       5.646   3.401  12.763  0.00  0.00    +0.000 C 
ENDBRANCH  23  24
ENDBRANCH  22  23
ENDBRANCH   1  22
TORSDOF 5
ENDMDL
MODEL 3
REMARK VINA RESULT:      -8.3      3.618      8.244
REMARK  Name = 
REMARK  7 active torsions:
REMARK  status: ('A' for Active; 'I' for Inactive)
REMARK    1  A    between atoms: C_1  and  N_2
REMARK    2  A    between atoms: N_2  and  C_3
REMARK    3  A    between atoms: N_2  and  C_10
REMARK    4  A    between atoms: C_3  and  C_4
REMARK    5  A    between atoms: N_8  and  C_9
REMARK    6  A    between atoms: C_14  and  N_15
REMARK    7  A    between atoms: C_22  and  C_23
REMARK                            x       y       z     vdW  Elec       q    Type
REMARK                         _______ _______ _______ _____ _____    ______ ____
ROOT
ATOM      1  C   UNL     1       0.837   9.842  20.192  0.00  0.00    +0.000 A 
ATOM      2  C   UNL     1       0.995  10.591  19.016  0.00  0.00    +0.000 A 
ATOM      3  C   UNL     1       1.687  10.104  17.912  0.00  0.00    +0.000 A 
ATOM      4  C   UNL     1       2.246   8.832  17.945  0.00  0.00    +0.000 A 
ATOM      5  C   UNL     1       2.120   8.027  19.077  0.00  0.00    +0.000 A 
ATOM      6  C   UNL     1       1.433   8.558  20.190  0.00  0.00    +0.000 A 
ENDROOT
BRANCH   5   7
ATOM      7  N   UNL     1       2.627   6.694  19.085  0.00  0.00    +0.000 N 
ATOM      8  C   UNL     1       2.298   5.728  20.112  0.00  0.00    +0.000 C 
ATOM      9  C   UNL     1       2.818   4.455  19.523  0.00  0.00    +0.000 C 
ATOM     10  C   UNL     1       3.461   4.676  18.371  0.00  0.00    +0.000 C 
ATOM     11  C   UNL     1       4.019   3.664  17.448  0.00  0.00    +0.000 C 
ATOM     12  C   UNL     1       3.747   2.225  17.917  0.00  0.00    +0.000 C 
ATOM     13  C   UNL     1       3.046   2.076  19.247  0.00  0.00    +0.000 C 
ATOM     14  C   UNL     1       2.611   3.105  20.013  0.00  0.00    +0.000 C 
ATOM     15  C   UNL     1       3.396   6.110  18.078  0.00  0.00    +0.000 C 
ATOM     16  O   UNL     1       3.914   6.583  17.081  0.00  0.00    +0.000 OA
BRANCH  14  17
ATOM     17  C   UNL     1       1.892   2.853  21.318  0.00  0.00    +0.000 C 
ATOM     18  F   UNL     1       0.546   3.016  21.240  0.00  0.00    +0.000 F 
ATOM     19  F   UNL     1       2.100   1.587  21.763  0.00  0.00    +0.000 F 
ATOM     20  F   UNL     1       2.324   3.688  22.298  0.00  0.00    +0.000 F 
ENDBRANCH  14  17
ENDBRANCH   5   7
BRANCH   1  22
ATOM     21  C   UNL     1       0.220   9.673  22.586  0.00  0.00    +0.000 C 
ATOM     22  N   UNL     1       0.144  10.344  21.296  0.00  0.00    +0.000 N 
BRANCH  22  23
ATOM     23  C   UNL     1      -0.902  11.370  21.125  0.00  0.00    +0.000 C 
BRANCH  23  24
ATOM     24  C   UNL     1      -0.814  12.579  22.007  0.00  0.00    +0.000 A 
ATOM     25  N   UNL     1       0.151  13.481  22.017  0.00  0.00    +0.000 NA
ATOM     26  N   UNL     1      -0.124  14.403  23.000  0.00  0.00    +0.000 NA
ATOM     27  C   UNL     1      -1.243  14.040  23.581  0.00  0.00    +0.000 A 
ATOM     28  N   UNL     1      -1.710  12.904  22.992  0.00  0.00    +0.000 N 
ATOM     29  C   UNL     1      -2.893  12.186  23.379  0.00  0.00    +0.000 C 
ENDBRANCH  23  24
ENDBRANCH  22  23
ENDBRANCH   1  22
TORSDOF 5
ENDMDL
MODEL 4
REMARK VINA RESULT:      -8.3      1.229      2.434
REMARK  Name = 
REMARK  7 active torsions:
REMARK  status: ('A' for Active; 'I' for Inactive)
REMARK    1  A    between atoms: C_1  and  N_2
REMARK    2  A    between atoms: N_2  and  C_3
REMARK    3  A    between atoms: N_2  and  C_10
REMARK    4  A    between atoms: C_3  and  C_4
REMARK    5  A    between atoms: N_8  and  C_9
REMARK    6  A    between atoms: C_14  and  N_15
REMARK    7  A    between atoms: C_22  and  C_23
REMARK                            x       y       z     vdW  Elec       q    Type
REMARK                         _______ _______ _______ _____ _____    ______ ____
ROOT
ATOM      1  C   UNL     1       5.346   5.562  18.611  0.00  0.00    +0.000 A 
ATOM      2  C   UNL     1       4.926   4.297  19.051  0.00  0.00    +0.000 A 
ATOM      3  C   UNL     1       3.680   4.090  19.637  0.00  0.00    +0.000 A 
ATOM      4  C   UNL     1       2.800   5.153  19.796  0.00  0.00    +0.000 A 
ATOM      5  C   UNL     1       3.146   6.436  19.372  0.00  0.00    +0.000 A 
ATOM      6  C   UNL     1       4.425   6.619  18.804  0.00  0.00    +0.000 A 
ENDROOT
BRANCH   5   7
ATOM      7  N   UNL     1       2.215   7.512  19.466  0.00  0.00    +0.000 N 
ATOM      8  C   UNL     1       1.446   7.793  20.659  0.00  0.00    +0.000 C 
ATOM      9  C   UNL     1       0.873   9.140  20.354  0.00  0.00    +0.000 C 
ATOM     10  C   UNL     1       1.175   9.529  19.110  0.00  0.00    +0.000 C 
ATOM     11  C   UNL     1       0.877  10.835  18.483  0.00  0.00    +0.000 C 
ATOM     12  C   UNL     1       0.184  11.809  19.450  0.00  0.00    +0.000 C 
ATOM     13  C   UNL     1      -0.148  11.268  20.822  0.00  0.00    +0.000 C 
ATOM     14  C   UNL     1       0.160  10.023  21.258  0.00  0.00    +0.000 C 
ATOM     15  C   UNL     1       2.002   8.489  18.493  0.00  0.00    +0.000 C 
ATOM     16  O   UNL     1       2.410   8.592  17.349  0.00  0.00    +0.000 OA
BRANCH  14  17
ATOM     17  C   UNL     1      -0.189   9.583  22.662  0.00  0.00    +0.000 C 
ATOM     18  F   UNL     1      -0.932   8.448  22.707  0.00  0.00    +0.000 F 
ATOM     19  F   UNL     1       0.926   9.344  23.398  0.00  0.00    +0.000 F 
ATOM     20  F   UNL     1      -0.898  10.534  23.323  0.00  0.00    +0.000 F 
ENDBRANCH  14  17
ENDBRANCH   5   7
BRANCH   1  22
ATOM     21  C   UNL     1       7.152   7.098  17.892  0.00  0.00    +0.000 C 
ATOM     22  N   UNL     1       6.601   5.757  18.029  0.00  0.00    +0.000 N 
BRANCH  22  23
ATOM     23  C   UNL     1       7.261   4.672  17.279  0.00  0.00    +0.000 C 
BRANCH  23  24
ATOM     24  C   UNL     1       7.037   4.643  15.796  0.00  0.00    +0.000 A 
ATOM     25  N   UNL     1       7.715   5.313  14.882  0.00  0.00    +0.000 NA
ATOM     26  N   UNL     1       7.169   5.042  13.649  0.00  0.00    +0.000 NA
ATOM     27  C   UNL     1       6.160   4.224  13.835  0.00  0.00    +0.000 A 
ATOM     28  N   UNL     1       6.041   3.947  15.163  0.00  0.00    +0.000 N 
ATOM     29  C   UNL     1       5.031   3.117  15.757  0.00  0.00    +0.000 C 
ENDBRANCH  23  24
ENDBRANCH  22  23
ENDBRANCH   1  22
TORSDOF 5
ENDMDL
MODEL 5
REMARK VINA RESULT:      -8.3      2.245      2.837
REMARK  Name = 
REMARK  7 active torsions:
REMARK  status: ('A' for Active; 'I' for Inactive)
REMARK    1  A    between atoms: C_1  and  N_2
REMARK    2  A    between atoms: N_2  and  C_3
REMARK    3  A    between atoms: N_2  and  C_10
REMARK    4  A    between atoms: C_3  and  C_4
REMARK    5  A    between atoms: N_8  and  C_9
REMARK    6  A    between atoms: C_14  and  N_15
REMARK    7  A    between atoms: C_22  and  C_23
REMARK                            x       y       z     vdW  Elec       q    Type
REMARK                         _______ _______ _______ _____ _____    ______ ____
ROOT
ATOM      1  C   UNL     1       4.515   4.371  16.886  0.00  0.00    +0.000 A 
ATOM      2  C   UNL     1       3.614   3.309  16.718  0.00  0.00    +0.000 A 
ATOM      3  C   UNL     1       2.370   3.283  17.342  0.00  0.00    +0.000 A 
ATOM      4  C   UNL     1       1.979   4.336  18.159  0.00  0.00    +0.000 A 
ATOM      5  C   UNL     1       2.819   5.430  18.365  0.00  0.00    +0.000 A 
ATOM      6  C   UNL     1       4.084   5.416  17.738  0.00  0.00    +0.000 A 
ENDROOT
BRANCH   5   7
ATOM      7  N   UNL     1       2.389   6.545  19.142  0.00  0.00    +0.000 N 
ATOM      8  C   UNL     1       2.219   7.875  18.595  0.00  0.00    +0.000 C 
ATOM      9  C   UNL     1       1.498   8.579  19.699  0.00  0.00    +0.000 C 
ATOM     10  C   UNL     1       1.373   7.798  20.778  0.00  0.00    +0.000 C 
ATOM     11  C   UNL     1       0.634   8.102  22.023  0.00  0.00    +0.000 C 
ATOM     12  C   UNL     1      -0.076   9.465  21.969  0.00  0.00    +0.000 C 
ATOM     13  C   UNL     1       0.153  10.291  20.725  0.00  0.00    +0.000 C 
ATOM     14  C   UNL     1       0.889   9.896  19.658  0.00  0.00    +0.000 C 
ATOM     15  C   UNL     1       1.971   6.497  20.473  0.00  0.00    +0.000 C 
ATOM     16  O   UNL     1       1.998   5.597  21.294  0.00  0.00    +0.000 OA
BRANCH  14  17
ATOM     17  C   UNL     1       1.035  10.784  18.444  0.00  0.00    +0.000 C 
ATOM     18  F   UNL     1       0.503  10.252  17.313  0.00  0.00    +0.000 F 
ATOM     19  F   UNL     1       0.424  11.982  18.629  0.00  0.00    +0.000 F 
ATOM     20  F   UNL     1       2.339  11.047  18.169  0.00  0.00    +0.000 F 
ENDBRANCH  14  17
ENDBRANCH   5   7
BRANCH   1  22
ATOM     21  C   UNL     1       5.899   3.949  14.875  0.00  0.00    +0.000 C 
ATOM     22  N   UNL     1       5.763   4.383  16.259  0.00  0.00    +0.000 N 
BRANCH  22  23
ATOM     23  C   UNL     1       7.000   4.540  17.046  0.00  0.00    +0.000 C 
BRANCH  23  24
ATOM     24  C   UNL     1       7.407   5.942  17.391  0.00  0.00    +0.000 A 
ATOM     25  N   UNL     1       7.475   6.971  16.566  0.00  0.00    +0.000 NA
ATOM     26  N   UNL     1       7.932   8.063  17.267  0.00  0.00    +0.000 NA
ATOM     27  C   UNL     1       8.147   7.677  18.503  0.00  0.00    +0.000 A 
ATOM     28  N   UNL     1       7.833   6.357  18.626  0.00  0.00    +0.000 N 
ATOM     29  C   UNL     1       7.971   5.572  19.821  0.00  0.00    +0.000 C 
ENDBRANCH  23  24
ENDBRANCH  22  23
ENDBRANCH   1  22
TORSDOF 5
ENDMDL
MODEL 6
REMARK VINA RESULT:      -8.2      3.628      8.084
REMARK  Name = 
REMARK  7 active torsions:
REMARK  status: ('A' for Active; 'I' for Inactive)
REMARK    1  A    between atoms: C_1  and  N_2
REMARK    2  A    between atoms: N_2  and  C_3
REMARK    3  A    between atoms: N_2  and  C_10
REMARK    4  A    between atoms: C_3  and  C_4
REMARK    5  A    between atoms: N_8  and  C_9
REMARK    6  A    between atoms: C_14  and  N_15
REMARK    7  A    between atoms: C_22  and  C_23
REMARK                            x       y       z     vdW  Elec       q    Type
REMARK                         _______ _______ _______ _____ _____    ______ ____
ROOT
ATOM      1  C   UNL     1       0.386  10.731  20.025  0.00  0.00    +0.000 A 
ATOM      2  C   UNL     1       0.162  10.817  21.408  0.00  0.00    +0.000 A 
ATOM      3  C   UNL     1       0.498   9.788  22.281  0.00  0.00    +0.000 A 
ATOM      4  C   UNL     1       1.083   8.625  21.795  0.00  0.00    +0.000 A 
ATOM      5  C   UNL     1       1.344   8.473  20.434  0.00  0.00    +0.000 A 
ATOM      6  C   UNL     1       0.970   9.525  19.570  0.00  0.00    +0.000 A 
ENDROOT
BRANCH   5   7
ATOM      7  N   UNL     1       2.013   7.313  19.943  0.00  0.00    +0.000 N 
ATOM      8  C   UNL     1       1.873   6.003  20.544  0.00  0.00    +0.000 C 
ATOM      9  C   UNL     1       2.509   5.118  19.520  0.00  0.00    +0.000 C 
ATOM     10  C   UNL     1       3.045   5.831  18.523  0.00  0.00    +0.000 C 
ATOM     11  C   UNL     1       3.666   5.312  17.285  0.00  0.00    +0.000 C 
ATOM     12  C   UNL     1       3.605   3.778  17.193  0.00  0.00    +0.000 C 
ATOM     13  C   UNL     1       3.014   3.059  18.383  0.00  0.00    +0.000 C 
ATOM     14  C   UNL     1       2.503   3.667  19.480  0.00  0.00    +0.000 C 
ATOM     15  C   UNL     1       2.784   7.249  18.781  0.00  0.00    +0.000 C 
ATOM     16  O   UNL     1       3.174   8.119  18.023  0.00  0.00    +0.000 OA
BRANCH  14  17
ATOM     17  C   UNL     1       1.905   2.860  20.609  0.00  0.00    +0.000 C 
ATOM     18  F   UNL     1       2.661   2.858  21.737  0.00  0.00    +0.000 F 
ATOM     19  F   UNL     1       0.684   3.334  20.965  0.00  0.00    +0.000 F 
ATOM     20  F   UNL     1       1.733   1.559  20.258  0.00  0.00    +0.000 F 
ENDBRANCH  14  17
ENDBRANCH   5   7
BRANCH   1  22
ATOM     21  C   UNL     1       1.060  12.662  18.627  0.00  0.00    +0.000 C 
ATOM     22  N   UNL     1       0.039  11.770  19.158  0.00  0.00    +0.000 N 
BRANCH  22  23
ATOM     23  C   UNL     1      -1.370  12.176  18.996  0.00  0.00    +0.000 C 
BRANCH  23  24
ATOM     24  C   UNL     1      -2.234  11.295  18.145  0.00  0.00    +0.000 A 
ATOM     25  N   UNL     1      -1.827  10.442  17.223  0.00  0.00    +0.000 NA
ATOM     26  N   UNL     1      -2.933   9.864  16.644  0.00  0.00    +0.000 NA
ATOM     27  C   UNL     1      -3.994  10.385  17.214  0.00  0.00    +0.000 A 
ATOM     28  N   UNL     1      -3.604  11.285  18.159  0.00  0.00    +0.000 N 
ATOM     29  C   UNL     1      -4.484  12.083  18.967  0.00  0.00    +0.000 C 
ENDBRANCH  23  24
ENDBRANCH  22  23
ENDBRANCH   1  22
TORSDOF 5
ENDMDL
MODEL 7
REMARK VINA RESULT:      -8.2      1.177      2.444
REMARK  Name = 
REMARK  7 active torsions:
REMARK  status: ('A' for Active; 'I' for Inactive)
REMARK    1  A    between atoms: C_1  and  N_2
REMARK    2  A    between atoms: N_2  and  C_3
REMARK    3  A    between atoms: N_2  and  C_10
REMARK    4  A    between atoms: C_3  and  C_4
REMARK    5  A    between atoms: N_8  and  C_9
REMARK    6  A    between atoms: C_14  and  N_15
REMARK    7  A    between atoms: C_22  and  C_23
REMARK                            x       y       z     vdW  Elec       q    Type
REMARK                         _______ _______ _______ _____ _____    ______ ____
ROOT
ATOM      1  C   UNL     1       5.290   5.378  18.962  0.00  0.00    +0.000 A 
ATOM      2  C   UNL     1       4.704   4.103  18.989  0.00  0.00    +0.000 A 
ATOM      3  C   UNL     1       3.342   3.915  19.204  0.00  0.00    +0.000 A 
ATOM      4  C   UNL     1       2.510   5.011  19.394  0.00  0.00    +0.000 A 
ATOM      5  C   UNL     1       3.021   6.308  19.371  0.00  0.00    +0.000 A 
ATOM      6  C   UNL     1       4.410   6.465  19.174  0.00  0.00    +0.000 A 
ENDROOT
BRANCH   5   7
ATOM      7  N   UNL     1       2.157   7.437  19.490  0.00  0.00    +0.000 N 
ATOM      8  C   UNL     1       1.406   7.736  20.691  0.00  0.00    +0.000 C 
ATOM      9  C   UNL     1       0.916   9.122  20.417  0.00  0.00    +0.000 C 
ATOM     10  C   UNL     1       1.241   9.521  19.182  0.00  0.00    +0.000 C 
ATOM     11  C   UNL     1       1.022  10.856  18.586  0.00  0.00    +0.000 C 
ATOM     12  C   UNL     1       0.389  11.848  19.576  0.00  0.00    +0.000 C 
ATOM     13  C   UNL     1       0.025  11.297  20.935  0.00  0.00    +0.000 C 
ATOM     14  C   UNL     1       0.258  10.026  21.343  0.00  0.00    +0.000 C 
ATOM     15  C   UNL     1       2.002   8.447  18.540  0.00  0.00    +0.000 C 
ATOM     16  O   UNL     1       2.416   8.551  17.399  0.00  0.00    +0.000 OA
BRANCH  14  17
ATOM     17  C   UNL     1      -0.117   9.576  22.736  0.00  0.00    +0.000 C 
ATOM     18  F   UNL     1      -0.806  10.509  23.443  0.00  0.00    +0.000 F 
ATOM     19  F   UNL     1      -0.896   8.465  22.705  0.00  0.00    +0.000 F 
ATOM     20  F   UNL     1       0.979   9.265  23.475  0.00  0.00    +0.000 F 
ENDBRANCH  14  17
ENDBRANCH   5   7
BRANCH   1  22
ATOM     21  C   UNL     1       7.590   5.533  19.871  0.00  0.00    +0.000 C 
ATOM     22  N   UNL     1       6.660   5.552  18.751  0.00  0.00    +0.000 N 
BRANCH  22  23
ATOM     23  C   UNL     1       7.164   6.052  17.458  0.00  0.00    +0.000 C 
BRANCH  23  24
ATOM     24  C   UNL     1       6.741   5.300  16.231  0.00  0.00    +0.000 A 
ATOM     25  N   UNL     1       7.308   4.216  15.733  0.00  0.00    +0.000 NA
ATOM     26  N   UNL     1       6.645   3.868  14.580  0.00  0.00    +0.000 NA
ATOM     27  C   UNL     1       5.694   4.752  14.388  0.00  0.00    +0.000 A 
ATOM     28  N   UNL     1       5.717   5.667  15.397  0.00  0.00    +0.000 N 
ATOM     29  C   UNL     1       4.851   6.807  15.513  0.00  0.00    +0.000 C 
ENDBRANCH  23  24
ENDBRANCH  22  23
ENDBRANCH   1  22
TORSDOF 5
ENDMDL
MODEL 8
REMARK VINA RESULT:      -8.2      3.829      8.298
REMARK  Name = 
REMARK  7 active torsions:
REMARK  status: ('A' for Active; 'I' for Inactive)
REMARK    1  A    between atoms: C_1  and  N_2
REMARK    2  A    between atoms: N_2  and  C_3
REMARK    3  A    between atoms: N_2  and  C_10
REMARK    4  A    between atoms: C_3  and  C_4
REMARK    5  A    between atoms: N_8  and  C_9
REMARK    6  A    between atoms: C_14  and  N_15
REMARK    7  A    between atoms: C_22  and  C_23
REMARK                            x       y       z     vdW  Elec       q    Type
REMARK                         _______ _______ _______ _____ _____    ______ ____
ROOT
ATOM      1  C   UNL     1      -0.050  10.995  20.031  0.00  0.00    +0.000 A 
ATOM      2  C   UNL     1      -0.363  11.071  21.396  0.00  0.00    +0.000 A 
ATOM      3  C   UNL     1      -0.026  10.063  22.294  0.00  0.00    +0.000 A 
ATOM      4  C   UNL     1       0.651   8.933  21.850  0.00  0.00    +0.000 A 
ATOM      5  C   UNL     1       1.005   8.794  20.508  0.00  0.00    +0.000 A 
ATOM      6  C   UNL     1       0.627   9.823  19.618  0.00  0.00    +0.000 A 
ENDROOT
BRANCH   5   7
ATOM      7  N   UNL     1       1.765   7.673  20.065  0.00  0.00    +0.000 N 
ATOM      8  C   UNL     1       1.723   6.380  20.714  0.00  0.00    +0.000 C 
ATOM      9  C   UNL     1       2.434   5.509  19.728  0.00  0.00    +0.000 C 
ATOM     10  C   UNL     1       2.921   6.224  18.707  0.00  0.00    +0.000 C 
ATOM     11  C   UNL     1       3.590   5.710  17.493  0.00  0.00    +0.000 C 
ATOM     12  C   UNL     1       3.650   4.173  17.458  0.00  0.00    +0.000 C 
ATOM     13  C   UNL     1       3.107   3.455  18.672  0.00  0.00    +0.000 C 
ATOM     14  C   UNL     1       2.541   4.062  19.742  0.00  0.00    +0.000 C 
ATOM     15  C   UNL     1       2.548   7.626  18.910  0.00  0.00    +0.000 C 
ATOM     16  O   UNL     1       2.876   8.495  18.122  0.00  0.00    +0.000 OA
BRANCH  14  17
ATOM     17  C   UNL     1       1.999   3.253  20.898  0.00  0.00    +0.000 C 
ATOM     18  F   UNL     1       2.453   3.662  22.110  0.00  0.00    +0.000 F 
ATOM     19  F   UNL     1       0.644   3.315  20.954  0.00  0.00    +0.000 F 
ATOM     20  F   UNL     1       2.326   1.939  20.788  0.00  0.00    +0.000 F 
ENDBRANCH  14  17
ENDBRANCH   5   7
BRANCH   1  22
ATOM     21  C   UNL     1      -0.345  13.408  19.551  0.00  0.00    +0.000 C 
ATOM     22  N   UNL     1      -0.399  12.013  19.139  0.00  0.00    +0.000 N 
BRANCH  22  23
ATOM     23  C   UNL     1      -1.105  11.702  17.883  0.00  0.00    +0.000 C 
BRANCH  23  24
ATOM     24  C   UNL     1      -2.603  11.645  17.945  0.00  0.00    +0.000 A 
ATOM     25  N   UNL     1      -3.358  11.871  19.005  0.00  0.00    +0.000 NA
ATOM     26  N   UNL     1      -4.673  11.674  18.653  0.00  0.00    +0.000 NA
ATOM     27  C   UNL     1      -4.695  11.319  17.390  0.00  0.00    +0.000 A 
ATOM     28  N   UNL     1      -3.422  11.287  16.907  0.00  0.00    +0.000 N 
ATOM     29  C   UNL     1      -3.042  10.909  15.574  0.00  0.00    +0.000 C 
ENDBRANCH  23  24
ENDBRANCH  22  23
ENDBRANCH   1  22
TORSDOF 5
ENDMDL
MODEL 9
REMARK VINA RESULT:      -8.2      1.821      2.748
REMARK  Name = 
REMARK  7 active torsions:
REMARK  status: ('A' for Active; 'I' for Inactive)
REMARK    1  A    between atoms: C_1  and  N_2
REMARK    2  A    between atoms: N_2  and  C_3
REMARK    3  A    between atoms: N_2  and  C_10
REMARK    4  A    between atoms: C_3  and  C_4
REMARK    5  A    between atoms: N_8  and  C_9
REMARK    6  A    between atoms: C_14  and  N_15
REMARK    7  A    between atoms: C_22  and  C_23
REMARK                            x       y       z     vdW  Elec       q    Type
REMARK                         _______ _______ _______ _____ _____    ______ ____
ROOT
ATOM      1  C   UNL     1       4.282   5.880  17.405  0.00  0.00    +0.000 A 
ATOM      2  C   UNL     1       4.205   4.748  18.231  0.00  0.00    +0.000 A 
ATOM      3  C   UNL     1       3.417   4.716  19.377  0.00  0.00    +0.000 A 
ATOM      4  C   UNL     1       2.665   5.828  19.736  0.00  0.00    +0.000 A 
ATOM      5  C   UNL     1       2.684   6.985  18.957  0.00  0.00    +0.000 A 
ATOM      6  C   UNL     1       3.512   6.994  17.813  0.00  0.00    +0.000 A 
ENDROOT
BRANCH   5   7
ATOM      7  N   UNL     1       1.856   8.099  19.282  0.00  0.00    +0.000 N 
ATOM      8  C   UNL     1       1.130   8.210  20.529  0.00  0.00    +0.000 C 
ATOM      9  C   UNL     1       0.677   9.635  20.503  0.00  0.00    +0.000 C 
ATOM     10  C   UNL     1       0.996  10.228  19.348  0.00  0.00    +0.000 C 
ATOM     11  C   UNL     1       0.809  11.651  18.990  0.00  0.00    +0.000 C 
ATOM     12  C   UNL     1       0.219  12.477  20.146  0.00  0.00    +0.000 C 
ATOM     13  C   UNL     1      -0.143  11.712  21.398  0.00  0.00    +0.000 C 
ATOM     14  C   UNL     1       0.058  10.386  21.580  0.00  0.00    +0.000 C 
ATOM     15  C   UNL     1       1.718   9.260  18.519  0.00  0.00    +0.000 C 
ATOM     16  O   UNL     1       2.119   9.545  17.405  0.00  0.00    +0.000 OA
BRANCH  14  17
ATOM     17  C   UNL     1      -0.311   9.715  22.884  0.00  0.00    +0.000 C 
ATOM     18  F   UNL     1      -1.149  10.453  23.657  0.00  0.00    +0.000 F 
ATOM     19  F   UNL     1      -0.931   8.526  22.672  0.00  0.00    +0.000 F 
ATOM     20  F   UNL     1       0.785   9.456  23.643  0.00  0.00    +0.000 F 
ENDBRANCH  14  17
ENDBRANCH   5   7
BRANCH   1  22
ATOM     21  C   UNL     1       4.922   6.951  15.265  0.00  0.00    +0.000 C 
ATOM     22  N   UNL     1       5.082   5.900  16.260  0.00  0.00    +0.000 N 
BRANCH  22  23
ATOM     23  C   UNL     1       5.883   4.722  15.880  0.00  0.00    +0.000 C 
BRANCH  23  24
ATOM     24  C   UNL     1       6.745   4.855  14.660  0.00  0.00    +0.000 A 
ATOM     25  N   UNL     1       7.869   5.541  14.558  0.00  0.00    +0.000 NA
ATOM     26  N   UNL     1       8.324   5.443  13.263  0.00  0.00    +0.000 NA
ATOM     27  C   UNL     1       7.463   4.710  12.597  0.00  0.00    +0.000 A 
ATOM     28  N   UNL     1       6.459   4.321  13.431  0.00  0.00    +0.000 N 
ATOM     29  C   UNL     1       5.315   3.539  13.054  0.00  0.00    +0.000 C 
ENDBRANCH  23  24
ENDBRANCH  22  23
ENDBRANCH   1  22
TORSDOF 5
ENDMDL
