MODEL 1
REMARK VINA RESULT:      -7.8      0.000      0.000
REMARK  Name = 
REMARK  6 active torsions:
REMARK  status: ('A' for Active; 'I' for Inactive)
REMARK    1  A    between atoms: C_1  and  N_2
REMARK    2  A    between atoms: C_6  and  C_7
REMARK    3  A    between atoms: C_7  and  C_8
REMARK    4  A    between atoms: C_8  and  C_9
REMARK    5  A    between atoms: C_13  and  N_14
REMARK    6  A    between atoms: C_19  and  C_20
REMARK                            x       y       z     vdW  Elec       q    Type
REMARK                         _______ _______ _______ _____ _____    ______ ____
ROOT
ATOM      1  C   UNL     1       1.806   8.206  19.612  0.00  0.00    +0.000 A 
ATOM      2  C   UNL     1       2.216   8.647  18.336  0.00  0.00    +0.000 A 
ATOM      3  C   UNL     1       2.903   7.818  17.445  0.00  0.00    +0.000 A 
ATOM      4  C   UNL     1       3.233   6.520  17.818  0.00  0.00    +0.000 A 
ATOM      5  C   UNL     1       2.856   6.055  19.079  0.00  0.00    +0.000 A 
ATOM      6  C   UNL     1       2.131   6.877  19.945  0.00  0.00    +0.000 A 
ENDROOT
BRANCH   5   7
ATOM      7  N   UNL     1       3.335   4.825  19.537  0.00  0.00    +0.000 N 
ATOM      8  C   UNL     1       4.669   4.550  19.666  0.00  0.00    +0.000 C 
ATOM      9  O   UNL     1       5.621   5.310  19.582  0.00  0.00    +0.000 OA
ATOM     10  C   UNL     1       4.752   3.069  19.917  0.00  0.00    +0.000 C 
ATOM     11  N   UNL     1       3.370   2.581  19.697  0.00  0.00    +0.000 NA
ATOM     12  C   UNL     1       2.665   3.651  19.437  0.00  0.00    +0.000 C 
BRANCH  12  13
ATOM     13  C   UNL     1       1.181   3.569  19.055  0.00  0.00    +0.000 C 
ATOM     14  F   UNL     1       0.308   4.129  19.939  0.00  0.00    +0.000 F 
ATOM     15  F   UNL     1       0.924   4.186  17.867  0.00  0.00    +0.000 F 
ATOM     16  F   UNL     1       0.771   2.278  18.909  0.00  0.00    +0.000 F 
ENDBRANCH  12  13
ENDBRANCH   5   7
BRANCH   1  17
ATOM     17  C   UNL     1       1.038   9.153  20.654  0.00  0.00    +0.000 C 
ATOM     18  C   UNL     1      -0.283   8.599  21.256  0.00  0.00    +0.000 C 
ATOM     19  O   UNL     1       0.220   8.680  22.603  0.00  0.00    +0.000 OA
ATOM     20  C   UNL     1       1.518   9.105  22.134  0.00  0.00    +0.000 C 
BRANCH  17  21
ATOM     21  C   UNL     1       0.823  10.560  20.055  0.00  0.00    +0.000 C 
BRANCH  21  27
ATOM     22  C   UNL     1      -1.587  12.275  21.204  0.00  0.00    +0.000 C 
ATOM     23  N   UNL     1      -1.523  11.584  19.940  0.00  0.00    +0.000 N 
ATOM     24  C   UNL     1      -2.489  11.629  18.982  0.00  0.00    +0.000 A 
ATOM     25  N   UNL     1      -2.146  10.855  17.982  0.00  0.00    +0.000 NA
ATOM     26  N   UNL     1      -0.913  10.320  18.271  0.00  0.00    +0.000 NA
ATOM     27  C   UNL     1      -0.522  10.788  19.440  0.00  0.00    +0.000 A 
ENDBRANCH  21  27
ENDBRANCH  17  21
ENDBRANCH   1  17
TORSDOF 5
ENDMDL
MODEL 2
REMARK VINA RESULT:      -7.8      4.285      6.960
REMARK  Name = 
REMARK  6 active torsions:
REMARK  status: ('A' for Active; 'I' for Inactive)
REMARK    1  A    between atoms: C_1  and  N_2
REMARK    2  A    between atoms: C_6  and  C_7
REMARK    3  A    between atoms: C_7  and  C_8
REMARK    4  A    between atoms: C_8  and  C_9
REMARK    5  A    between atoms: C_13  and  N_14
REMARK    6  A    between atoms: C_19  and  C_20
REMARK                            x       y       z     vdW  Elec       q    Type
REMARK                         _______ _______ _______ _____ _____    ______ ____
ROOT
ATOM      1  C   UNL     1       5.235   6.026  18.086  0.00  0.00    +0.000 A 
ATOM      2  C   UNL     1       4.537   7.024  17.374  0.00  0.00    +0.000 A 
ATOM      3  C   UNL     1       3.148   7.159  17.448  0.00  0.00    +0.000 A 
ATOM      4  C   UNL     1       2.403   6.273  18.218  0.00  0.00    +0.000 A 
ATOM      5  C   UNL     1       3.060   5.264  18.925  0.00  0.00    +0.000 A 
ATOM      6  C   UNL     1       4.453   5.164  18.878  0.00  0.00    +0.000 A 
ENDROOT
BRANCH   5   7
ATOM      7  N   UNL     1       2.319   4.259  19.552  0.00  0.00    +0.000 N 
ATOM      8  C   UNL     1       2.042   4.269  20.892  0.00  0.00    +0.000 C 
ATOM      9  O   UNL     1       2.219   5.161  21.706  0.00  0.00    +0.000 OA
ATOM     10  C   UNL     1       1.477   2.907  21.195  0.00  0.00    +0.000 C 
ATOM     11  N   UNL     1       1.684   2.137  19.946  0.00  0.00    +0.000 NA
ATOM     12  C   UNL     1       2.214   2.985  19.103  0.00  0.00    +0.000 C 
BRANCH  12  13
ATOM     13  C   UNL     1       2.671   2.554  17.703  0.00  0.00    +0.000 C 
ATOM     14  F   UNL     1       2.460   3.457  16.705  0.00  0.00    +0.000 F 
ATOM     15  F   UNL     1       4.008   2.290  17.662  0.00  0.00    +0.000 F 
ATOM     16  F   UNL     1       2.046   1.413  17.299  0.00  0.00    +0.000 F 
ENDBRANCH  12  13
ENDBRANCH   5   7
BRANCH   1  17
ATOM     17  C   UNL     1       6.826   5.843  17.992  0.00  0.00    +0.000 C 
ATOM     18  C   UNL     1       7.638   7.065  17.481  0.00  0.00    +0.000 C 
ATOM     19  O   UNL     1       8.407   7.143  18.696  0.00  0.00    +0.000 OA
ATOM     20  C   UNL     1       7.640   6.078  19.297  0.00  0.00    +0.000 C 
BRANCH  17  21
ATOM     21  C   UNL     1       7.181   4.571  17.190  0.00  0.00    +0.000 C 
BRANCH  21  27
ATOM     22  C   UNL     1       5.211   3.333  15.032  0.00  0.00    +0.000 C 
ATOM     23  N   UNL     1       6.308   4.241  14.804  0.00  0.00    +0.000 N 
ATOM     24  C   UNL     1       6.625   4.784  13.596  0.00  0.00    +0.000 A 
ATOM     25  N   UNL     1       7.700   5.523  13.722  0.00  0.00    +0.000 NA
ATOM     26  N   UNL     1       8.074   5.496  15.044  0.00  0.00    +0.000 NA
ATOM     27  C   UNL     1       7.212   4.748  15.704  0.00  0.00    +0.000 A 
ENDBRANCH  21  27
ENDBRANCH  17  21
ENDBRANCH   1  17
TORSDOF 5
ENDMDL
MODEL 3
REMARK VINA RESULT:      -7.8      1.500      2.153
REMARK  Name = 
REMARK  6 active torsions:
REMARK  status: ('A' for Active; 'I' for Inactive)
REMARK    1  A    between atoms: C_1  and  N_2
REMARK    2  A    between atoms: C_6  and  C_7
REMARK    3  A    between atoms: C_7  and  C_8
REMARK    4  A    between atoms: C_8  and  C_9
REMARK    5  A    between atoms: C_13  and  N_14
REMARK    6  A    between atoms: C_19  and  C_20
REMARK                            x       y       z     vdW  Elec       q    Type
REMARK                         _______ _______ _______ _____ _____    ______ ____
ROOT
ATOM      1  C   UNL     1       1.666   8.254  19.612  0.00  0.00    +0.000 A 
ATOM      2  C   UNL     1       2.065   8.742  18.349  0.00  0.00    +0.000 A 
ATOM      3  C   UNL     1       2.786   7.960  17.442  0.00  0.00    +0.000 A 
ATOM      4  C   UNL     1       3.162   6.666  17.785  0.00  0.00    +0.000 A 
ATOM      5  C   UNL     1       2.796   6.157  19.032  0.00  0.00    +0.000 A 
ATOM      6  C   UNL     1       2.038   6.931  19.914  0.00  0.00    +0.000 A 
ENDROOT
BRANCH   5   7
ATOM      7  N   UNL     1       3.319   4.934  19.463  0.00  0.00    +0.000 N 
ATOM      8  C   UNL     1       4.661   4.713  19.612  0.00  0.00    +0.000 C 
ATOM      9  O   UNL     1       5.580   5.514  19.573  0.00  0.00    +0.000 OA
ATOM     10  C   UNL     1       4.802   3.229  19.819  0.00  0.00    +0.000 C 
ATOM     11  N   UNL     1       3.447   2.690  19.554  0.00  0.00    +0.000 NA
ATOM     12  C   UNL     1       2.702   3.737  19.312  0.00  0.00    +0.000 C 
BRANCH  12  13
ATOM     13  C   UNL     1       1.231   3.604  18.895  0.00  0.00    +0.000 C 
ATOM     14  F   UNL     1       0.880   4.238  17.742  0.00  0.00    +0.000 F 
ATOM     15  F   UNL     1       0.869   2.303  18.707  0.00  0.00    +0.000 F 
ATOM     16  F   UNL     1       0.393   4.097  19.849  0.00  0.00    +0.000 F 
ENDBRANCH  12  13
ENDBRANCH   5   7
BRANCH   1  17
ATOM     17  C   UNL     1       0.859   9.146  20.673  0.00  0.00    +0.000 C 
ATOM     18  C   UNL     1      -0.218   8.416  21.521  0.00  0.00    +0.000 C 
ATOM     19  O   UNL     1       0.432   8.756  22.760  0.00  0.00    +0.000 OA
ATOM     20  C   UNL     1       1.532   9.374  22.057  0.00  0.00    +0.000 C 
BRANCH  17  21
ATOM     21  C   UNL     1       0.267  10.400  19.992  0.00  0.00    +0.000 C 
BRANCH  21  27
ATOM     22  C   UNL     1       2.271  12.318  18.452  0.00  0.00    +0.000 C 
ATOM     23  N   UNL     1       1.659  12.535  19.739  0.00  0.00    +0.000 N 
ATOM     24  C   UNL     1       1.793  13.671  20.478  0.00  0.00    +0.000 A 
ATOM     25  N   UNL     1       1.154  13.527  21.614  0.00  0.00    +0.000 NA
ATOM     26  N   UNL     1       0.559  12.288  21.605  0.00  0.00    +0.000 NA
ATOM     27  C   UNL     1       0.837  11.702  20.457  0.00  0.00    +0.000 A 
ENDBRANCH  21  27
ENDBRANCH  17  21
ENDBRANCH   1  17
TORSDOF 5
ENDMDL
MODEL 4
REMARK VINA RESULT:      -7.7      4.736      7.033
REMARK  Name = 
REMARK  6 active torsions:
REMARK  status: ('A' for Active; 'I' for Inactive)
REMARK    1  A    between atoms: C_1  and  N_2
REMARK    2  A    between atoms: C_6  and  C_7
REMARK    3  A    between atoms: C_7  and  C_8
REMARK    4  A    between atoms: C_8  and  C_9
REMARK    5  A    between atoms: C_13  and  N_14
REMARK    6  A    between atoms: C_19  and  C_20
REMARK                            x       y       z     vdW  Elec       q    Type
REMARK                         _______ _______ _______ _____ _____    ______ ____
ROOT
ATOM      1  C   UNL     1       5.387   5.949  18.009  0.00  0.00    +0.000 A 
ATOM      2  C   UNL     1       4.635   7.057  17.564  0.00  0.00    +0.000 A 
ATOM      3  C   UNL     1       3.237   7.068  17.590  0.00  0.00    +0.000 A 
ATOM      4  C   UNL     1       2.541   5.950  18.036  0.00  0.00    +0.000 A 
ATOM      5  C   UNL     1       3.254   4.830  18.469  0.00  0.00    +0.000 A 
ATOM      6  C   UNL     1       4.651   4.845  18.480  0.00  0.00    +0.000 A 
ENDROOT
BRANCH   5   7
ATOM      7  N   UNL     1       2.576   3.640  18.745  0.00  0.00    +0.000 N 
ATOM      8  C   UNL     1       2.053   2.840  17.766  0.00  0.00    +0.000 C 
ATOM      9  O   UNL     1       2.208   2.906  16.557  0.00  0.00    +0.000 OA
ATOM     10  C   UNL     1       1.192   1.836  18.485  0.00  0.00    +0.000 C 
ATOM     11  N   UNL     1       1.155   2.319  19.885  0.00  0.00    +0.000 NA
ATOM     12  C   UNL     1       1.929   3.373  19.906  0.00  0.00    +0.000 C 
BRANCH  12  13
ATOM     13  C   UNL     1       2.090   4.233  21.166  0.00  0.00    +0.000 C 
ATOM     14  F   UNL     1       1.863   3.599  22.351  0.00  0.00    +0.000 F 
ATOM     15  F   UNL     1       3.348   4.746  21.277  0.00  0.00    +0.000 F 
ATOM     16  F   UNL     1       1.244   5.300  21.158  0.00  0.00    +0.000 F 
ENDBRANCH  12  13
ENDBRANCH   5   7
BRANCH   1  17
ATOM     17  C   UNL     1       6.990   5.912  17.962  0.00  0.00    +0.000 C 
ATOM     18  C   UNL     1       7.702   7.194  17.450  0.00  0.00    +0.000 C 
ATOM     19  O   UNL     1       8.424   7.365  18.684  0.00  0.00    +0.000 OA
ATOM     20  C   UNL     1       7.740   6.243  19.284  0.00  0.00    +0.000 C 
BRANCH  17  21
ATOM     21  C   UNL     1       7.483   4.665  17.196  0.00  0.00    +0.000 C 
BRANCH  21  27
ATOM     22  C   UNL     1       5.328   2.893  15.683  0.00  0.00    +0.000 C 
ATOM     23  N   UNL     1       6.183   3.910  15.122  0.00  0.00    +0.000 N 
ATOM     24  C   UNL     1       6.136   4.333  13.828  0.00  0.00    +0.000 A 
ATOM     25  N   UNL     1       7.074   5.227  13.630  0.00  0.00    +0.000 NA
ATOM     26  N   UNL     1       7.725   5.423  14.825  0.00  0.00    +0.000 NA
ATOM     27  C   UNL     1       7.163   4.651  15.735  0.00  0.00    +0.000 A 
ENDBRANCH  21  27
ENDBRANCH  17  21
ENDBRANCH   1  17
TORSDOF 5
ENDMDL
MODEL 5
REMARK VINA RESULT:      -7.6      2.885      7.255
REMARK  Name = 
REMARK  6 active torsions:
REMARK  status: ('A' for Active; 'I' for Inactive)
REMARK    1  A    between atoms: C_1  and  N_2
REMARK    2  A    between atoms: C_6  and  C_7
REMARK    3  A    between atoms: C_7  and  C_8
REMARK    4  A    between atoms: C_8  and  C_9
REMARK    5  A    between atoms: C_13  and  N_14
REMARK    6  A    between atoms: C_19  and  C_20
REMARK                            x       y       z     vdW  Elec       q    Type
REMARK                         _______ _______ _______ _____ _____    ______ ____
ROOT
ATOM      1  C   UNL     1       1.990   7.718  19.358  0.00  0.00    +0.000 A 
ATOM      2  C   UNL     1       1.752   7.569  20.741  0.00  0.00    +0.000 A 
ATOM      3  C   UNL     1       1.078   8.537  21.489  0.00  0.00    +0.000 A 
ATOM      4  C   UNL     1       0.645   9.710  20.880  0.00  0.00    +0.000 A 
ATOM      5  C   UNL     1       0.878   9.897  19.517  0.00  0.00    +0.000 A 
ATOM      6  C   UNL     1       1.514   8.904  18.768  0.00  0.00    +0.000 A 
ENDROOT
BRANCH   5   7
ATOM      7  N   UNL     1       0.616  11.139  18.931  0.00  0.00    +0.000 N 
ATOM      8  C   UNL     1       1.248  12.289  19.318  0.00  0.00    +0.000 C 
ATOM      9  O   UNL     1       2.207  12.425  20.061  0.00  0.00    +0.000 OA
ATOM     10  C   UNL     1       0.495  13.406  18.647  0.00  0.00    +0.000 C 
ATOM     11  N   UNL     1      -0.694  12.746  18.059  0.00  0.00    +0.000 NA
ATOM     12  C   UNL     1      -0.549  11.475  18.326  0.00  0.00    +0.000 C 
BRANCH  12  13
ATOM     13  C   UNL     1      -1.628  10.444  17.965  0.00  0.00    +0.000 C 
ATOM     14  F   UNL     1      -2.081   9.673  18.992  0.00  0.00    +0.000 F 
ATOM     15  F   UNL     1      -2.743  11.032  17.447  0.00  0.00    +0.000 F 
ATOM     16  F   UNL     1      -1.188   9.567  17.020  0.00  0.00    +0.000 F 
ENDBRANCH  12  13
ENDBRANCH   5   7
BRANCH   1  17
ATOM     17  C   UNL     1       2.784   6.627  18.490  0.00  0.00    +0.000 C 
ATOM     18  C   UNL     1       3.833   7.169  17.480  0.00  0.00    +0.000 C 
ATOM     19  O   UNL     1       4.908   6.448  18.110  0.00  0.00    +0.000 OA
ATOM     20  C   UNL     1       4.031   5.972  19.152  0.00  0.00    +0.000 C 
BRANCH  17  21
ATOM     21  C   UNL     1       1.798   5.661  17.796  0.00  0.00    +0.000 C 
BRANCH  21  27
ATOM     22  C   UNL     1       0.936   3.932  20.313  0.00  0.00    +0.000 C 
ATOM     23  N   UNL     1       1.614   3.478  19.123  0.00  0.00    +0.000 N 
ATOM     24  C   UNL     1       1.928   2.180  18.858  0.00  0.00    +0.000 A 
ATOM     25  N   UNL     1       2.581   2.115  17.724  0.00  0.00    +0.000 NA
ATOM     26  N   UNL     1       2.667   3.389  17.216  0.00  0.00    +0.000 NA
ATOM     27  C   UNL     1       2.052   4.208  18.046  0.00  0.00    +0.000 A 
ENDBRANCH  21  27
ENDBRANCH  17  21
ENDBRANCH   1  17
TORSDOF 5
ENDMDL
MODEL 6
REMARK VINA RESULT:      -7.6      0.830      1.627
REMARK  Name = 
REMARK  6 active torsions:
REMARK  status: ('A' for Active; 'I' for Inactive)
REMARK    1  A    between atoms: C_1  and  N_2
REMARK    2  A    between atoms: C_6  and  C_7
REMARK    3  A    between atoms: C_7  and  C_8
REMARK    4  A    between atoms: C_8  and  C_9
REMARK    5  A    between atoms: C_13  and  N_14
REMARK    6  A    between atoms: C_19  and  C_20
REMARK                            x       y       z     vdW  Elec       q    Type
REMARK                         _______ _______ _______ _____ _____    ______ ____
ROOT
ATOM      1  C   UNL     1       1.767   8.298  19.637  0.00  0.00    +0.000 A 
ATOM      2  C   UNL     1       2.125   8.769  18.356  0.00  0.00    +0.000 A 
ATOM      3  C   UNL     1       2.793   7.966  17.427  0.00  0.00    +0.000 A 
ATOM      4  C   UNL     1       3.155   6.666  17.765  0.00  0.00    +0.000 A 
ATOM      5  C   UNL     1       2.829   6.173  19.030  0.00  0.00    +0.000 A 
ATOM      6  C   UNL     1       2.123   6.970  19.935  0.00  0.00    +0.000 A 
ENDROOT
BRANCH   5   7
ATOM      7  N   UNL     1       3.342   4.943  19.449  0.00  0.00    +0.000 N 
ATOM      8  C   UNL     1       4.683   4.708  19.591  0.00  0.00    +0.000 C 
ATOM      9  O   UNL     1       5.609   5.502  19.553  0.00  0.00    +0.000 OA
ATOM     10  C   UNL     1       4.811   3.222  19.786  0.00  0.00    +0.000 C 
ATOM     11  N   UNL     1       3.451   2.697  19.523  0.00  0.00    +0.000 NA
ATOM     12  C   UNL     1       2.714   3.753  19.292  0.00  0.00    +0.000 C 
BRANCH  12  13
ATOM     13  C   UNL     1       1.240   3.636  18.882  0.00  0.00    +0.000 C 
ATOM     14  F   UNL     1       0.891   4.276  17.730  0.00  0.00    +0.000 F 
ATOM     15  F   UNL     1       0.863   2.340  18.693  0.00  0.00    +0.000 F 
ATOM     16  F   UNL     1       0.411   4.137  19.840  0.00  0.00    +0.000 F 
ENDBRANCH  12  13
ENDBRANCH   5   7
BRANCH   1  17
ATOM     17  C   UNL     1       1.022   9.215  20.722  0.00  0.00    +0.000 C 
ATOM     18  C   UNL     1      -0.348   8.702  21.246  0.00  0.00    +0.000 C 
ATOM     19  O   UNL     1       0.115   8.658  22.608  0.00  0.00    +0.000 OA
ATOM     20  C   UNL     1       1.450   9.037  22.208  0.00  0.00    +0.000 C 
BRANCH  17  21
ATOM     21  C   UNL     1       0.908  10.671  20.219  0.00  0.00    +0.000 C 
BRANCH  21  27
ATOM     22  C   UNL     1      -1.955  11.502  19.133  0.00  0.00    +0.000 C 
ATOM     23  N   UNL     1      -1.387  11.792  20.426  0.00  0.00    +0.000 N 
ATOM     24  C   UNL     1      -2.045  12.420  21.438  0.00  0.00    +0.000 A 
ATOM     25  N   UNL     1      -1.233  12.572  22.456  0.00  0.00    +0.000 NA
ATOM     26  N   UNL     1      -0.029  12.000  22.119  0.00  0.00    +0.000 NA
ATOM     27  C   UNL     1      -0.133  11.499  20.904  0.00  0.00    +0.000 A 
ENDBRANCH  21  27
ENDBRANCH  17  21
ENDBRANCH   1  17
TORSDOF 5
ENDMDL
MODEL 7
REMARK VINA RESULT:      -7.5      4.161      7.033
REMARK  Name = 
REMARK  6 active torsions:
REMARK  status: ('A' for Active; 'I' for Inactive)
REMARK    1  A    between atoms: C_1  and  N_2
REMARK    2  A    between atoms: C_6  and  C_7
REMARK    3  A    between atoms: C_7  and  C_8
REMARK    4  A    between atoms: C_8  and  C_9
REMARK    5  A    between atoms: C_13  and  N_14
REMARK    6  A    between atoms: C_19  and  C_20
REMARK                            x       y       z     vdW  Elec       q    Type
REMARK                         _______ _______ _______ _____ _____    ______ ____
ROOT
ATOM      1  C   UNL     1       5.175   6.081  17.859  0.00  0.00    +0.000 A 
ATOM      2  C   UNL     1       4.482   7.193  17.336  0.00  0.00    +0.000 A 
ATOM      3  C   UNL     1       3.124   7.410  17.586  0.00  0.00    +0.000 A 
ATOM      4  C   UNL     1       2.403   6.495  18.346  0.00  0.00    +0.000 A 
ATOM      5  C   UNL     1       3.054   5.376  18.866  0.00  0.00    +0.000 A 
ATOM      6  C   UNL     1       4.422   5.191  18.647  0.00  0.00    +0.000 A 
ENDROOT
BRANCH   5   7
ATOM      7  N   UNL     1       2.311   4.359  19.472  0.00  0.00    +0.000 N 
ATOM      8  C   UNL     1       2.018   4.351  20.809  0.00  0.00    +0.000 C 
ATOM      9  O   UNL     1       2.181   5.234  21.635  0.00  0.00    +0.000 OA
ATOM     10  C   UNL     1       1.458   2.983  21.088  0.00  0.00    +0.000 C 
ATOM     11  N   UNL     1       1.683   2.229  19.833  0.00  0.00    +0.000 NA
ATOM     12  C   UNL     1       2.218   3.090  19.007  0.00  0.00    +0.000 C 
BRANCH  12  13
ATOM     13  C   UNL     1       2.695   2.679  17.607  0.00  0.00    +0.000 C 
ATOM     14  F   UNL     1       4.039   2.506  17.464  0.00  0.00    +0.000 F 
ATOM     15  F   UNL     1       2.143   1.499  17.205  0.00  0.00    +0.000 F 
ATOM     16  F   UNL     1       2.347   3.601  16.667  0.00  0.00    +0.000 F 
ENDBRANCH  12  13
ENDBRANCH   5   7
BRANCH   1  17
ATOM     17  C   UNL     1       6.728   5.806  17.561  0.00  0.00    +0.000 C 
ATOM     18  C   UNL     1       7.749   6.458  18.533  0.00  0.00    +0.000 C 
ATOM     19  O   UNL     1       8.301   5.183  18.912  0.00  0.00    +0.000 OA
ATOM     20  C   UNL     1       7.326   4.480  18.112  0.00  0.00    +0.000 C 
BRANCH  17  21
ATOM     21  C   UNL     1       7.069   6.147  16.093  0.00  0.00    +0.000 C 
BRANCH  21  27
ATOM     22  C   UNL     1       8.188   5.561  13.182  0.00  0.00    +0.000 C 
ATOM     23  N   UNL     1       7.085   4.914  13.848  0.00  0.00    +0.000 N 
ATOM     24  C   UNL     1       6.383   3.864  13.340  0.00  0.00    +0.000 A 
ATOM     25  N   UNL     1       5.418   3.545  14.169  0.00  0.00    +0.000 NA
ATOM     26  N   UNL     1       5.511   4.378  15.259  0.00  0.00    +0.000 NA
ATOM     27  C   UNL     1       6.540   5.182  15.079  0.00  0.00    +0.000 A 
ENDBRANCH  21  27
ENDBRANCH  17  21
ENDBRANCH   1  17
TORSDOF 5
ENDMDL
MODEL 8
REMARK VINA RESULT:      -7.5      1.329      1.752
REMARK  Name = 
REMARK  6 active torsions:
REMARK  status: ('A' for Active; 'I' for Inactive)
REMARK    1  A    between atoms: C_1  and  N_2
REMARK    2  A    between atoms: C_6  and  C_7
REMARK    3  A    between atoms: C_7  and  C_8
REMARK    4  A    between atoms: C_8  and  C_9
REMARK    5  A    between atoms: C_13  and  N_14
REMARK    6  A    between atoms: C_19  and  C_20
REMARK                            x       y       z     vdW  Elec       q    Type
REMARK                         _______ _______ _______ _____ _____    ______ ____
ROOT
ATOM      1  C   UNL     1       1.702   8.199  19.572  0.00  0.00    +0.000 A 
ATOM      2  C   UNL     1       2.175   8.715  18.347  0.00  0.00    +0.000 A 
ATOM      3  C   UNL     1       2.946   7.953  17.465  0.00  0.00    +0.000 A 
ATOM      4  C   UNL     1       3.299   6.650  17.798  0.00  0.00    +0.000 A 
ATOM      5  C   UNL     1       2.860   6.113  19.010  0.00  0.00    +0.000 A 
ATOM      6  C   UNL     1       2.053   6.868  19.864  0.00  0.00    +0.000 A 
ENDROOT
BRANCH   5   7
ATOM      7  N   UNL     1       3.354   4.879  19.441  0.00  0.00    +0.000 N 
ATOM      8  C   UNL     1       4.689   4.634  19.615  0.00  0.00    +0.000 C 
ATOM      9  O   UNL     1       5.622   5.422  19.600  0.00  0.00    +0.000 OA
ATOM     10  C   UNL     1       4.802   3.147  19.813  0.00  0.00    +0.000 C 
ATOM     11  N   UNL     1       3.445   2.632  19.518  0.00  0.00    +0.000 NA
ATOM     12  C   UNL     1       2.722   3.693  19.269  0.00  0.00    +0.000 C 
BRANCH  12  13
ATOM     13  C   UNL     1       1.257   3.587  18.823  0.00  0.00    +0.000 C 
ATOM     14  F   UNL     1       0.925   4.286  17.701  0.00  0.00    +0.000 F 
ATOM     15  F   UNL     1       0.897   2.300  18.555  0.00  0.00    +0.000 F 
ATOM     16  F   UNL     1       0.404   4.027  19.790  0.00  0.00    +0.000 F 
ENDBRANCH  12  13
ENDBRANCH   5   7
BRANCH   1  17
ATOM     17  C   UNL     1       0.836   9.069  20.605  0.00  0.00    +0.000 C 
ATOM     18  C   UNL     1      -0.140   8.287  21.527  0.00  0.00    +0.000 C 
ATOM     19  O   UNL     1       0.504   8.765  22.723  0.00  0.00    +0.000 OA
ATOM     20  C   UNL     1       1.518   9.446  21.952  0.00  0.00    +0.000 C 
BRANCH  17  21
ATOM     21  C   UNL     1       0.103  10.214  19.872  0.00  0.00    +0.000 C 
BRANCH  21  27
ATOM     22  C   UNL     1      -1.041  12.182  22.083  0.00  0.00    +0.000 C 
ATOM     23  N   UNL     1       0.093  12.395  21.217  0.00  0.00    +0.000 N 
ATOM     24  C   UNL     1       0.919  13.475  21.274  0.00  0.00    +0.000 A 
ATOM     25  N   UNL     1       1.816  13.386  20.322  0.00  0.00    +0.000 NA
ATOM     26  N   UNL     1       1.598  12.207  19.651  0.00  0.00    +0.000 NA
ATOM     27  C   UNL     1       0.577  11.591  20.214  0.00  0.00    +0.000 A 
ENDBRANCH  21  27
ENDBRANCH  17  21
ENDBRANCH   1  17
TORSDOF 5
ENDMDL
MODEL 9
REMARK VINA RESULT:      -7.4      2.824      7.291
REMARK  Name = 
REMARK  6 active torsions:
REMARK  status: ('A' for Active; 'I' for Inactive)
REMARK    1  A    between atoms: C_1  and  N_2
REMARK    2  A    between atoms: C_6  and  C_7
REMARK    3  A    between atoms: C_7  and  C_8
REMARK    4  A    between atoms: C_8  and  C_9
REMARK    5  A    between atoms: C_13  and  N_14
REMARK    6  A    between atoms: C_19  and  C_20
REMARK                            x       y       z     vdW  Elec       q    Type
REMARK                         _______ _______ _______ _____ _____    ______ ____
ROOT
ATOM      1  C   UNL     1       1.976   7.668  19.449  0.00  0.00    +0.000 A 
ATOM      2  C   UNL     1       1.696   7.531  20.825  0.00  0.00    +0.000 A 
ATOM      3  C   UNL     1       1.005   8.508  21.546  0.00  0.00    +0.000 A 
ATOM      4  C   UNL     1       0.597   9.679  20.917  0.00  0.00    +0.000 A 
ATOM      5  C   UNL     1       0.871   9.854  19.559  0.00  0.00    +0.000 A 
ATOM      6  C   UNL     1       1.524   8.852  18.837  0.00  0.00    +0.000 A 
ENDROOT
BRANCH   5   7
ATOM      7  N   UNL     1       0.633  11.093  18.957  0.00  0.00    +0.000 N 
ATOM      8  C   UNL     1       1.258  12.244  19.357  0.00  0.00    +0.000 C 
ATOM      9  O   UNL     1       2.192  12.381  20.130  0.00  0.00    +0.000 OA
ATOM     10  C   UNL     1       0.531  13.359  18.654  0.00  0.00    +0.000 C 
ATOM     11  N   UNL     1      -0.641  12.700  18.032  0.00  0.00    +0.000 NA
ATOM     12  C   UNL     1      -0.510  11.430  18.312  0.00  0.00    +0.000 C 
BRANCH  12  13
ATOM     13  C   UNL     1      -1.580  10.401  17.923  0.00  0.00    +0.000 C 
ATOM     14  F   UNL     1      -2.082   9.650  18.943  0.00  0.00    +0.000 F 
ATOM     15  F   UNL     1      -2.668  10.989  17.349  0.00  0.00    +0.000 F 
ATOM     16  F   UNL     1      -1.108   9.505  17.012  0.00  0.00    +0.000 F 
ENDBRANCH  12  13
ENDBRANCH   5   7
BRANCH   1  17
ATOM     17  C   UNL     1       2.788   6.566  18.613  0.00  0.00    +0.000 C 
ATOM     18  C   UNL     1       3.739   7.095  17.504  0.00  0.00    +0.000 C 
ATOM     19  O   UNL     1       4.895   6.491  18.114  0.00  0.00    +0.000 OA
ATOM     20  C   UNL     1       4.112   6.041  19.241  0.00  0.00    +0.000 C 
BRANCH  17  21
ATOM     21  C   UNL     1       1.830   5.493  18.051  0.00  0.00    +0.000 C 
BRANCH  21  27
ATOM     22  C   UNL     1       3.267   2.690  17.672  0.00  0.00    +0.000 C 
ATOM     23  N   UNL     1       2.373   3.084  18.732  0.00  0.00    +0.000 N 
ATOM     24  C   UNL     1       2.062   2.312  19.809  0.00  0.00    +0.000 A 
ATOM     25  N   UNL     1       1.188   2.942  20.556  0.00  0.00    +0.000 NA
ATOM     26  N   UNL     1       0.948   4.165  19.978  0.00  0.00    +0.000 NA
ATOM     27  C   UNL     1       1.691   4.265  18.893  0.00  0.00    +0.000 A 
ENDBRANCH  21  27
ENDBRANCH  17  21
ENDBRANCH   1  17
TORSDOF 5
ENDMDL
