MODEL 1
REMARK VINA RESULT:      -9.0      0.000      0.000
REMARK  Name = 
REMARK  7 active torsions:
REMARK  status: ('A' for Active; 'I' for Inactive)
REMARK    1  A    between atoms: C_1  and  C_2
REMARK    2  A    between atoms: N_4  and  C_5
REMARK    3  A    between atoms: C_5  and  C_6
REMARK    4  A    between atoms: N_8  and  C_9
REMARK    5  A    between atoms: C_9  and  C_10
REMARK    6  A    between atoms: C_14  and  C_15
REMARK    7  A    between atoms: N_17  and  C_18
REMARK                            x       y       z     vdW  Elec       q    Type
REMARK                         _______ _______ _______ _____ _____    ______ ____
ROOT
ATOM      1  C   UNL     1       3.805   4.196  17.931  0.00  0.00    +0.000 C 
ATOM      2  O   UNL     1       4.074   3.544  18.940  0.00  0.00    +0.000 OA
ATOM      3  N   UNL     1       3.163   5.425  17.980  0.00  0.00    +0.000 N 
ATOM      4  H   UNL     1       2.617   5.678  17.166  0.00  0.00    +0.000 HD
ENDROOT
BRANCH   1   5
ATOM      5  C   UNL     1       4.173   3.704  16.524  0.00  0.00    +0.000 C 
BRANCH   5   9
ATOM      6  C   UNL     1       7.673   6.862  17.677  0.00  0.00    +0.000 C 
ATOM      7  C   UNL     1       6.856   6.105  16.636  0.00  0.00    +0.000 C 
ATOM      8  C   UNL     1       6.352   4.771  17.195  0.00  0.00    +0.000 C 
ATOM      9  N   UNL     1       5.553   4.065  16.180  0.00  0.00    +0.000 N 
ATOM     10  C   UNL     1       6.018   4.196  14.873  0.00  0.00    +0.000 A 
ATOM     11  C   UNL     1       5.483   3.444  13.815  0.00  0.00    +0.000 A 
ATOM     12  C   UNL     1       6.026   3.494  12.524  0.00  0.00    +0.000 A 
ATOM     13  C   UNL     1       7.126   4.302  12.261  0.00  0.00    +0.000 A 
ATOM     14  C   UNL     1       7.660   5.076  13.282  0.00  0.00    +0.000 A 
ATOM     15  F   UNL     1       8.713   5.863  13.013  0.00  0.00    +0.000 F 
ATOM     16  C   UNL     1       7.110   5.045  14.568  0.00  0.00    +0.000 A 
ATOM     17  O   UNL     1       7.702   5.875  15.499  0.00  0.00    +0.000 OA
ENDBRANCH   5   9
ENDBRANCH   1   5
BRANCH   3  18
ATOM     18  C   UNL     1       2.741   5.919  19.272  0.00  0.00    +0.000 C 
BRANCH  18  19
ATOM     19  C   UNL     1       2.220   7.333  19.242  0.00  0.00    +0.000 A 
ATOM     20  C   UNL     1       2.073   8.001  18.018  0.00  0.00    +0.000 A 
ATOM     21  C   UNL     1       1.474   9.262  17.960  0.00  0.00    +0.000 A 
ATOM     22  C   UNL     1       1.047   9.887  19.130  0.00  0.00    +0.000 A 
ATOM     23  C   UNL     1       1.245   9.267  20.369  0.00  0.00    +0.000 A 
ATOM     24  C   UNL     1       1.814   7.983  20.421  0.00  0.00    +0.000 A 
BRANCH  23  25
ATOM     25  C   UNL     1       0.819   9.999  21.598  0.00  0.00    +0.000 C 
ATOM     26  O   UNL     1       1.211   9.631  22.699  0.00  0.00    +0.000 OA
ATOM     27  N   UNL     1      -0.069  11.043  21.395  0.00  0.00    +0.000 N 
ATOM     28  H   UNL     1      -0.461  11.184  20.474  0.00  0.00    +0.000 HD
BRANCH  27  29
ATOM     29  C   UNL     1      -0.629  11.790  22.478  0.00  0.00    +0.000 C 
ATOM     30  C   UNL     1      -2.043  11.544  22.934  0.00  0.00    +0.000 C 
ATOM     31  C   UNL     1      -1.695  12.816  22.221  0.00  0.00    +0.000 C 
ENDBRANCH  27  29
ENDBRANCH  23  25
ENDBRANCH  18  19
ENDBRANCH   3  18
TORSDOF 6
ENDMDL
MODEL 2
REMARK VINA RESULT:      -8.7      5.701      8.155
REMARK  Name = 
REMARK  7 active torsions:
REMARK  status: ('A' for Active; 'I' for Inactive)
REMARK    1  A    between atoms: C_1  and  C_2
REMARK    2  A    between atoms: N_4  and  C_5
REMARK    3  A    between atoms: C_5  and  C_6
REMARK    4  A    between atoms: N_8  and  C_9
REMARK    5  A    between atoms: C_9  and  C_10
REMARK    6  A    between atoms: C_14  and  C_15
REMARK    7  A    between atoms: N_17  and  C_18
REMARK                            x       y       z     vdW  Elec       q    Type
REMARK                         _______ _______ _______ _____ _____    ______ ____
ROOT
ATOM      1  C   UNL     1       7.590   7.313  17.755  0.00  0.00    +0.000 C 
ATOM      2  O   UNL     1       6.846   7.511  16.793  0.00  0.00    +0.000 OA
ATOM      3  N   UNL     1       8.371   8.313  18.316  0.00  0.00    +0.000 N 
ATOM      4  H   UNL     1       9.220   8.012  18.777  0.00  0.00    +0.000 HD
ENDROOT
BRANCH   1   5
ATOM      5  C   UNL     1       7.704   5.937  18.425  0.00  0.00    +0.000 C 
BRANCH   5   9
ATOM      6  C   UNL     1       6.383   4.036  14.159  0.00  0.00    +0.000 C 
ATOM      7  C   UNL     1       6.027   4.650  15.508  0.00  0.00    +0.000 C 
ATOM      8  C   UNL     1       7.116   4.366  16.548  0.00  0.00    +0.000 C 
ATOM      9  N   UNL     1       6.759   4.981  17.837  0.00  0.00    +0.000 N 
ATOM     10  C   UNL     1       5.402   4.938  18.150  0.00  0.00    +0.000 A 
ATOM     11  C   UNL     1       4.919   5.314  19.414  0.00  0.00    +0.000 A 
ATOM     12  C   UNL     1       3.571   5.164  19.764  0.00  0.00    +0.000 A 
ATOM     13  C   UNL     1       2.668   4.630  18.853  0.00  0.00    +0.000 A 
ATOM     14  C   UNL     1       3.112   4.275  17.586  0.00  0.00    +0.000 A 
ATOM     15  F   UNL     1       2.230   3.772  16.709  0.00  0.00    +0.000 F 
ATOM     16  C   UNL     1       4.453   4.439  17.224  0.00  0.00    +0.000 A 
ATOM     17  O   UNL     1       4.780   4.078  15.932  0.00  0.00    +0.000 OA
ENDBRANCH   5   9
ENDBRANCH   1   5
BRANCH   3  18
ATOM     18  C   UNL     1       8.349   9.620  17.697  0.00  0.00    +0.000 C 
BRANCH  18  19
ATOM     19  C   UNL     1       9.071  10.679  18.490  0.00  0.00    +0.000 A 
ATOM     20  C   UNL     1       9.475  10.419  19.808  0.00  0.00    +0.000 A 
ATOM     21  C   UNL     1      10.255  11.340  20.511  0.00  0.00    +0.000 A 
ATOM     22  C   UNL     1      10.610  12.551  19.919  0.00  0.00    +0.000 A 
ATOM     23  C   UNL     1      10.163  12.859  18.630  0.00  0.00    +0.000 A 
ATOM     24  C   UNL     1       9.410  11.916  17.910  0.00  0.00    +0.000 A 
BRANCH  23  25
ATOM     25  C   UNL     1      10.526  14.189  18.058  0.00  0.00    +0.000 C 
ATOM     26  O   UNL     1      11.004  14.264  16.931  0.00  0.00    +0.000 OA
ATOM     27  N   UNL     1      10.342  15.274  18.901  0.00  0.00    +0.000 N 
ATOM     28  H   UNL     1      10.089  15.109  19.866  0.00  0.00    +0.000 HD
BRANCH  27  29
ATOM     29  C   UNL     1      10.716  16.602  18.528  0.00  0.00    +0.000 C 
ATOM     30  C   UNL     1       9.696  17.710  18.497  0.00  0.00    +0.000 C 
ATOM     31  C   UNL     1      10.263  17.177  17.215  0.00  0.00    +0.000 C 
ENDBRANCH  27  29
ENDBRANCH  23  25
ENDBRANCH  18  19
ENDBRANCH   3  18
TORSDOF 6
ENDMDL
MODEL 3
REMARK VINA RESULT:      -8.5      2.492      3.019
REMARK  Name = 
REMARK  7 active torsions:
REMARK  status: ('A' for Active; 'I' for Inactive)
REMARK    1  A    between atoms: C_1  and  C_2
REMARK    2  A    between atoms: N_4  and  C_5
REMARK    3  A    between atoms: C_5  and  C_6
REMARK    4  A    between atoms: N_8  and  C_9
REMARK    5  A    between atoms: C_9  and  C_10
REMARK    6  A    between atoms: C_14  and  C_15
REMARK    7  A    between atoms: N_17  and  C_18
REMARK                            x       y       z     vdW  Elec       q    Type
REMARK                         _______ _______ _______ _____ _____    ______ ____
ROOT
ATOM      1  C   UNL     1       3.434   5.864  18.280  0.00  0.00    +0.000 C 
ATOM      2  O   UNL     1       2.439   5.319  17.802  0.00  0.00    +0.000 OA
ATOM      3  N   UNL     1       3.592   7.242  18.310  0.00  0.00    +0.000 N 
ATOM      4  H   UNL     1       4.545   7.583  18.309  0.00  0.00    +0.000 HD
ENDROOT
BRANCH   1   5
ATOM      5  C   UNL     1       4.583   5.057  18.901  0.00  0.00    +0.000 C 
BRANCH   5   9
ATOM      6  C   UNL     1       8.145   8.198  17.899  0.00  0.00    +0.000 C 
ATOM      7  C   UNL     1       7.112   7.172  17.448  0.00  0.00    +0.000 C 
ATOM      8  C   UNL     1       6.821   6.157  18.558  0.00  0.00    +0.000 C 
ATOM      9  N   UNL     1       5.810   5.187  18.107  0.00  0.00    +0.000 N 
ATOM     10  C   UNL     1       5.912   4.816  16.768  0.00  0.00    +0.000 A 
ATOM     11  C   UNL     1       5.145   3.771  16.227  0.00  0.00    +0.000 A 
ATOM     12  C   UNL     1       5.329   3.325  14.911  0.00  0.00    +0.000 A 
ATOM     13  C   UNL     1       6.291   3.917  14.102  0.00  0.00    +0.000 A 
ATOM     14  C   UNL     1       7.045   4.970  14.602  0.00  0.00    +0.000 A 
ATOM     15  F   UNL     1       7.962   5.543  13.807  0.00  0.00    +0.000 F 
ATOM     16  C   UNL     1       6.854   5.432  15.908  0.00  0.00    +0.000 A 
ATOM     17  O   UNL     1       7.638   6.501  16.293  0.00  0.00    +0.000 OA
ENDBRANCH   5   9
ENDBRANCH   1   5
BRANCH   3  18
ATOM     18  C   UNL     1       2.569   8.057  17.693  0.00  0.00    +0.000 C 
BRANCH  18  19
ATOM     19  C   UNL     1       1.597   8.657  18.676  0.00  0.00    +0.000 A 
ATOM     20  C   UNL     1       1.684   8.335  20.038  0.00  0.00    +0.000 A 
ATOM     21  C   UNL     1       0.875   8.978  20.977  0.00  0.00    +0.000 A 
ATOM     22  C   UNL     1      -0.059   9.926  20.563  0.00  0.00    +0.000 A 
ATOM     23  C   UNL     1      -0.209  10.215  19.202  0.00  0.00    +0.000 A 
ATOM     24  C   UNL     1       0.631   9.594  18.263  0.00  0.00    +0.000 A 
BRANCH  23  25
ATOM     25  C   UNL     1      -1.258  11.199  18.804  0.00  0.00    +0.000 C 
ATOM     26  O   UNL     1      -1.185  12.363  19.182  0.00  0.00    +0.000 OA
ATOM     27  N   UNL     1      -2.305  10.687  18.053  0.00  0.00    +0.000 N 
ATOM     28  H   UNL     1      -2.367   9.688  17.914  0.00  0.00    +0.000 HD
BRANCH  27  29
ATOM     29  C   UNL     1      -3.423  11.486  17.661  0.00  0.00    +0.000 C 
ATOM     30  C   UNL     1      -4.831  10.978  17.830  0.00  0.00    +0.000 C 
ATOM     31  C   UNL     1      -4.241  11.108  16.458  0.00  0.00    +0.000 C 
ENDBRANCH  27  29
ENDBRANCH  23  25
ENDBRANCH  18  19
ENDBRANCH   3  18
TORSDOF 6
ENDMDL
MODEL 4
REMARK VINA RESULT:      -8.5      3.093      4.516
REMARK  Name = 
REMARK  7 active torsions:
REMARK  status: ('A' for Active; 'I' for Inactive)
REMARK    1  A    between atoms: C_1  and  C_2
REMARK    2  A    between atoms: N_4  and  C_5
REMARK    3  A    between atoms: C_5  and  C_6
REMARK    4  A    between atoms: N_8  and  C_9
REMARK    5  A    between atoms: C_9  and  C_10
REMARK    6  A    between atoms: C_14  and  C_15
REMARK    7  A    between atoms: N_17  and  C_18
REMARK                            x       y       z     vdW  Elec       q    Type
REMARK                         _______ _______ _______ _____ _____    ______ ____
ROOT
ATOM      1  C   UNL     1       1.963   6.161  19.628  0.00  0.00    +0.000 C 
ATOM      2  O   UNL     1       1.574   5.311  20.430  0.00  0.00    +0.000 OA
ATOM      3  N   UNL     1       2.151   7.491  19.977  0.00  0.00    +0.000 N 
ATOM      4  H   UNL     1       2.050   8.167  19.231  0.00  0.00    +0.000 HD
ENDROOT
BRANCH   1   5
ATOM      5  C   UNL     1       2.286   5.813  18.168  0.00  0.00    +0.000 C 
BRANCH   5   9
ATOM      6  C   UNL     1       4.529   1.996  20.158  0.00  0.00    +0.000 C 
ATOM      7  C   UNL     1       4.553   3.428  19.636  0.00  0.00    +0.000 C 
ATOM      8  C   UNL     1       3.492   3.637  18.549  0.00  0.00    +0.000 C 
ATOM      9  N   UNL     1       3.523   5.029  18.072  0.00  0.00    +0.000 N 
ATOM     10  C   UNL     1       4.794   5.592  17.988  0.00  0.00    +0.000 A 
ATOM     11  C   UNL     1       5.016   6.840  17.383  0.00  0.00    +0.000 A 
ATOM     12  C   UNL     1       6.307   7.353  17.199  0.00  0.00    +0.000 A 
ATOM     13  C   UNL     1       7.413   6.623  17.617  0.00  0.00    +0.000 A 
ATOM     14  C   UNL     1       7.223   5.398  18.242  0.00  0.00    +0.000 A 
ATOM     15  F   UNL     1       8.298   4.709  18.653  0.00  0.00    +0.000 F 
ATOM     16  C   UNL     1       5.936   4.889  18.445  0.00  0.00    +0.000 A 
ATOM     17  O   UNL     1       5.862   3.676  19.100  0.00  0.00    +0.000 OA
ENDBRANCH   5   9
ENDBRANCH   1   5
BRANCH   3  18
ATOM     18  C   UNL     1       1.812   7.894  21.324  0.00  0.00    +0.000 C 
BRANCH  18  19
ATOM     19  C   UNL     1       0.786   8.996  21.388  0.00  0.00    +0.000 A 
ATOM     20  C   UNL     1       0.301   9.433  22.628  0.00  0.00    +0.000 A 
ATOM     21  C   UNL     1      -0.552  10.536  22.713  0.00  0.00    +0.000 A 
ATOM     22  C   UNL     1      -0.962  11.193  21.554  0.00  0.00    +0.000 A 
ATOM     23  C   UNL     1      -0.542  10.733  20.301  0.00  0.00    +0.000 A 
ATOM     24  C   UNL     1       0.345   9.647  20.221  0.00  0.00    +0.000 A 
BRANCH  23  25
ATOM     25  C   UNL     1      -1.048  11.438  19.087  0.00  0.00    +0.000 C 
ATOM     26  O   UNL     1      -0.507  12.470  18.705  0.00  0.00    +0.000 OA
ATOM     27  N   UNL     1      -2.171  10.882  18.495  0.00  0.00    +0.000 N 
ATOM     28  H   UNL     1      -2.646  10.120  18.961  0.00  0.00    +0.000 HD
BRANCH  27  29
ATOM     29  C   UNL     1      -2.819  11.483  17.372  0.00  0.00    +0.000 C 
ATOM     30  C   UNL     1      -4.014  10.829  16.730  0.00  0.00    +0.000 C 
ATOM     31  C   UNL     1      -2.700  10.866  16.007  0.00  0.00    +0.000 C 
ENDBRANCH  27  29
ENDBRANCH  23  25
ENDBRANCH  18  19
ENDBRANCH   3  18
TORSDOF 6
ENDMDL
MODEL 5
REMARK VINA RESULT:      -8.3      5.619      8.518
REMARK  Name = 
REMARK  7 active torsions:
REMARK  status: ('A' for Active; 'I' for Inactive)
REMARK    1  A    between atoms: C_1  and  C_2
REMARK    2  A    between atoms: N_4  and  C_5
REMARK    3  A    between atoms: C_5  and  C_6
REMARK    4  A    between atoms: N_8  and  C_9
REMARK    5  A    between atoms: C_9  and  C_10
REMARK    6  A    between atoms: C_14  and  C_15
REMARK    7  A    between atoms: N_17  and  C_18
REMARK                            x       y       z     vdW  Elec       q    Type
REMARK                         _______ _______ _______ _____ _____    ______ ____
ROOT
ATOM      1  C   UNL     1       7.320   6.816  17.643  0.00  0.00    +0.000 C 
ATOM      2  O   UNL     1       7.543   6.593  16.453  0.00  0.00    +0.000 OA
ATOM      3  N   UNL     1       7.649   8.017  18.256  0.00  0.00    +0.000 N 
ATOM      4  H   UNL     1       7.832   7.976  19.251  0.00  0.00    +0.000 HD
ENDROOT
BRANCH   1   5
ATOM      5  C   UNL     1       6.640   5.781  18.550  0.00  0.00    +0.000 C 
BRANCH   5   9
ATOM      6  C   UNL     1       2.560   8.258  17.672  0.00  0.00    +0.000 C 
ATOM      7  C   UNL     1       3.291   7.088  18.322  0.00  0.00    +0.000 C 
ATOM      8  C   UNL     1       4.537   6.703  17.518  0.00  0.00    +0.000 C 
ATOM      9  N   UNL     1       5.236   5.584  18.171  0.00  0.00    +0.000 N 
ATOM     10  C   UNL     1       4.402   4.632  18.752  0.00  0.00    +0.000 A 
ATOM     11  C   UNL     1       4.897   3.417  19.254  0.00  0.00    +0.000 A 
ATOM     12  C   UNL     1       4.044   2.414  19.734  0.00  0.00    +0.000 A 
ATOM     13  C   UNL     1       2.668   2.604  19.723  0.00  0.00    +0.000 A 
ATOM     14  C   UNL     1       2.151   3.805  19.257  0.00  0.00    +0.000 A 
ATOM     15  F   UNL     1       0.822   3.983  19.263  0.00  0.00    +0.000 F 
ATOM     16  C   UNL     1       2.998   4.817  18.793  0.00  0.00    +0.000 A 
ATOM     17  O   UNL     1       2.379   5.981  18.379  0.00  0.00    +0.000 OA
ENDBRANCH   5   9
ENDBRANCH   1   5
BRANCH   3  18
ATOM     18  C   UNL     1       8.341   9.014  17.469  0.00  0.00    +0.000 C 
BRANCH  18  19
ATOM     19  C   UNL     1       9.002  10.087  18.295  0.00  0.00    +0.000 A 
ATOM     20  C   UNL     1       9.017   9.990  19.694  0.00  0.00    +0.000 A 
ATOM     21  C   UNL     1       9.734  10.906  20.466  0.00  0.00    +0.000 A 
ATOM     22  C   UNL     1      10.415  11.956  19.852  0.00  0.00    +0.000 A 
ATOM     23  C   UNL     1      10.359  12.110  18.462  0.00  0.00    +0.000 A 
ATOM     24  C   UNL     1       9.668  11.166  17.685  0.00  0.00    +0.000 A 
BRANCH  23  25
ATOM     25  C   UNL     1      11.062  13.279  17.856  0.00  0.00    +0.000 C 
ATOM     26  O   UNL     1      11.776  13.123  16.871  0.00  0.00    +0.000 OA
ATOM     27  N   UNL     1      10.892  14.487  18.512  0.00  0.00    +0.000 N 
ATOM     28  H   UNL     1      10.412  14.500  19.403  0.00  0.00    +0.000 HD
BRANCH  27  29
ATOM     29  C   UNL     1      11.562  15.681  18.099  0.00  0.00    +0.000 C 
ATOM     30  C   UNL     1      10.989  17.036  18.421  0.00  0.00    +0.000 C 
ATOM     31  C   UNL     1      10.983  16.536  17.007  0.00  0.00    +0.000 C 
ENDBRANCH  27  29
ENDBRANCH  23  25
ENDBRANCH  18  19
ENDBRANCH   3  18
TORSDOF 6
ENDMDL
MODEL 6
REMARK VINA RESULT:      -8.3      3.895      5.816
REMARK  Name = 
REMARK  7 active torsions:
REMARK  status: ('A' for Active; 'I' for Inactive)
REMARK    1  A    between atoms: C_1  and  C_2
REMARK    2  A    between atoms: N_4  and  C_5
REMARK    3  A    between atoms: C_5  and  C_6
REMARK    4  A    between atoms: N_8  and  C_9
REMARK    5  A    between atoms: C_9  and  C_10
REMARK    6  A    between atoms: C_14  and  C_15
REMARK    7  A    between atoms: N_17  and  C_18
REMARK                            x       y       z     vdW  Elec       q    Type
REMARK                         _______ _______ _______ _____ _____    ______ ____
ROOT
ATOM      1  C   UNL     1       2.147   8.237  18.514  0.00  0.00    +0.000 C 
ATOM      2  O   UNL     1       2.743   9.178  17.991  0.00  0.00    +0.000 OA
ATOM      3  N   UNL     1       1.370   8.382  19.655  0.00  0.00    +0.000 N 
ATOM      4  H   UNL     1       1.279   7.562  20.241  0.00  0.00    +0.000 HD
ENDROOT
BRANCH   1   5
ATOM      5  C   UNL     1       2.203   6.816  17.935  0.00  0.00    +0.000 C 
BRANCH   5   9
ATOM      6  C   UNL     1       6.499   4.676  17.210  0.00  0.00    +0.000 C 
ATOM      7  C   UNL     1       5.072   4.646  17.747  0.00  0.00    +0.000 C 
ATOM      8  C   UNL     1       4.594   6.053  18.122  0.00  0.00    +0.000 C 
ATOM      9  N   UNL     1       3.211   6.002  18.623  0.00  0.00    +0.000 N 
ATOM     10  C   UNL     1       2.909   4.883  19.396  0.00  0.00    +0.000 A 
ATOM     11  C   UNL     1       1.697   4.769  20.097  0.00  0.00    +0.000 A 
ATOM     12  C   UNL     1       1.442   3.697  20.962  0.00  0.00    +0.000 A 
ATOM     13  C   UNL     1       2.400   2.708  21.149  0.00  0.00    +0.000 A 
ATOM     14  C   UNL     1       3.597   2.780  20.449  0.00  0.00    +0.000 A 
ATOM     15  F   UNL     1       4.510   1.813  20.626  0.00  0.00    +0.000 F 
ATOM     16  C   UNL     1       3.850   3.838  19.569  0.00  0.00    +0.000 A 
ATOM     17  O   UNL     1       5.060   3.797  18.905  0.00  0.00    +0.000 OA
ENDBRANCH   5   9
ENDBRANCH   1   5
BRANCH   3  18
ATOM     18  C   UNL     1       1.320   9.684  20.281  0.00  0.00    +0.000 C 
BRANCH  18  19
ATOM     19  C   UNL     1       0.423  10.665  19.570  0.00  0.00    +0.000 A 
ATOM     20  C   UNL     1       0.878  11.963  19.295  0.00  0.00    +0.000 A 
ATOM     21  C   UNL     1       0.111  12.841  18.527  0.00  0.00    +0.000 A 
ATOM     22  C   UNL     1      -1.140  12.446  18.054  0.00  0.00    +0.000 A 
ATOM     23  C   UNL     1      -1.642  11.180  18.373  0.00  0.00    +0.000 A 
ATOM     24  C   UNL     1      -0.853  10.285  19.114  0.00  0.00    +0.000 A 
BRANCH  23  25
ATOM     25  C   UNL     1      -3.007  10.822  17.887  0.00  0.00    +0.000 C 
ATOM     26  O   UNL     1      -3.322   9.645  17.749  0.00  0.00    +0.000 OA
ATOM     27  N   UNL     1      -3.827  11.891  17.562  0.00  0.00    +0.000 N 
ATOM     28  H   UNL     1      -3.439  12.825  17.560  0.00  0.00    +0.000 HD
BRANCH  27  29
ATOM     29  C   UNL     1      -5.133  11.711  17.012  0.00  0.00    +0.000 C 
ATOM     30  C   UNL     1      -6.177  12.791  17.132  0.00  0.00    +0.000 C 
ATOM     31  C   UNL     1      -6.318  11.521  17.916  0.00  0.00    +0.000 C 
ENDBRANCH  27  29
ENDBRANCH  23  25
ENDBRANCH  18  19
ENDBRANCH   3  18
TORSDOF 6
ENDMDL
MODEL 7
REMARK VINA RESULT:      -8.3      3.973      9.865
REMARK  Name = 
REMARK  7 active torsions:
REMARK  status: ('A' for Active; 'I' for Inactive)
REMARK    1  A    between atoms: C_1  and  C_2
REMARK    2  A    between atoms: N_4  and  C_5
REMARK    3  A    between atoms: C_5  and  C_6
REMARK    4  A    between atoms: N_8  and  C_9
REMARK    5  A    between atoms: C_9  and  C_10
REMARK    6  A    between atoms: C_14  and  C_15
REMARK    7  A    between atoms: N_17  and  C_18
REMARK                            x       y       z     vdW  Elec       q    Type
REMARK                         _______ _______ _______ _____ _____    ______ ____
ROOT
ATOM      1  C   UNL     1       0.704   9.335  19.974  0.00  0.00    +0.000 C 
ATOM      2  O   UNL     1      -0.283   9.326  20.710  0.00  0.00    +0.000 OA
ATOM      3  N   UNL     1       1.643   8.313  19.965  0.00  0.00    +0.000 N 
ATOM      4  H   UNL     1       2.581   8.571  19.686  0.00  0.00    +0.000 HD
ENDROOT
BRANCH   1   5
ATOM      5  C   UNL     1       0.970  10.481  18.987  0.00  0.00    +0.000 C 
BRANCH   5   9
ATOM      6  C   UNL     1      -1.496  13.642  21.721  0.00  0.00    +0.000 C 
ATOM      7  C   UNL     1      -1.463  12.493  20.719  0.00  0.00    +0.000 C 
ATOM      8  C   UNL     1      -0.184  12.533  19.877  0.00  0.00    +0.000 C 
ATOM      9  N   UNL     1      -0.166  11.406  18.929  0.00  0.00    +0.000 N 
ATOM     10  C   UNL     1      -1.406  11.080  18.385  0.00  0.00    +0.000 A 
ATOM     11  C   UNL     1      -1.536  10.157  17.334  0.00  0.00    +0.000 A 
ATOM     12  C   UNL     1      -2.768   9.914  16.712  0.00  0.00    +0.000 A 
ATOM     13  C   UNL     1      -3.906  10.594  17.128  0.00  0.00    +0.000 A 
ATOM     14  C   UNL     1      -3.812  11.494  18.182  0.00  0.00    +0.000 A 
ATOM     15  F   UNL     1      -4.919  12.135  18.584  0.00  0.00    +0.000 F 
ATOM     16  C   UNL     1      -2.589  11.727  18.819  0.00  0.00    +0.000 A 
ATOM     17  O   UNL     1      -2.616  12.620  19.872  0.00  0.00    +0.000 OA
ENDBRANCH   5   9
ENDBRANCH   1   5
BRANCH   3  18
ATOM     18  C   UNL     1       1.477   7.231  20.909  0.00  0.00    +0.000 C 
BRANCH  18  19
ATOM     19  C   UNL     1       1.959   5.899  20.396  0.00  0.00    +0.000 A 
ATOM     20  C   UNL     1       1.169   4.752  20.565  0.00  0.00    +0.000 A 
ATOM     21  C   UNL     1       1.540   3.537  19.985  0.00  0.00    +0.000 A 
ATOM     22  C   UNL     1       2.727   3.442  19.260  0.00  0.00    +0.000 A 
ATOM     23  C   UNL     1       3.563   4.557  19.135  0.00  0.00    +0.000 A 
ATOM     24  C   UNL     1       3.170   5.787  19.687  0.00  0.00    +0.000 A 
BRANCH  23  25
ATOM     25  C   UNL     1       4.848   4.393  18.393  0.00  0.00    +0.000 C 
ATOM     26  O   UNL     1       5.851   4.002  18.980  0.00  0.00    +0.000 OA
ATOM     27  N   UNL     1       4.820   4.765  17.058  0.00  0.00    +0.000 N 
ATOM     28  H   UNL     1       3.995   5.220  16.692  0.00  0.00    +0.000 HD
BRANCH  27  29
ATOM     29  C   UNL     1       5.989   4.739  16.235  0.00  0.00    +0.000 C 
ATOM     30  C   UNL     1       5.924   5.165  14.792  0.00  0.00    +0.000 C 
ATOM     31  C   UNL     1       6.122   3.720  15.139  0.00  0.00    +0.000 C 
ENDBRANCH  27  29
ENDBRANCH  23  25
ENDBRANCH  18  19
ENDBRANCH   3  18
TORSDOF 6
ENDMDL
MODEL 8
REMARK VINA RESULT:      -8.2      3.875      5.478
REMARK  Name = 
REMARK  7 active torsions:
REMARK  status: ('A' for Active; 'I' for Inactive)
REMARK    1  A    between atoms: C_1  and  C_2
REMARK    2  A    between atoms: N_4  and  C_5
REMARK    3  A    between atoms: C_5  and  C_6
REMARK    4  A    between atoms: N_8  and  C_9
REMARK    5  A    between atoms: C_9  and  C_10
REMARK    6  A    between atoms: C_14  and  C_15
REMARK    7  A    between atoms: N_17  and  C_18
REMARK                            x       y       z     vdW  Elec       q    Type
REMARK                         _______ _______ _______ _____ _____    ______ ____
ROOT
ATOM      1  C   UNL     1       2.113   7.522  19.278  0.00  0.00    +0.000 C 
ATOM      2  O   UNL     1       2.000   7.020  20.397  0.00  0.00    +0.000 OA
ATOM      3  N   UNL     1       1.693   8.813  18.989  0.00  0.00    +0.000 N 
ATOM      4  H   UNL     1       1.427   8.992  18.029  0.00  0.00    +0.000 HD
ENDROOT
BRANCH   1   5
ATOM      5  C   UNL     1       2.746   6.759  18.105  0.00  0.00    +0.000 C 
BRANCH   5   9
ATOM      6  C   UNL     1       7.063   4.560  17.831  0.00  0.00    +0.000 C 
ATOM      7  C   UNL     1       5.540   4.509  17.787  0.00  0.00    +0.000 C 
ATOM      8  C   UNL     1       4.927   5.623  18.641  0.00  0.00    +0.000 C 
ATOM      9  N   UNL     1       3.457   5.564  18.572  0.00  0.00    +0.000 N 
ATOM     10  C   UNL     1       2.924   4.278  18.531  0.00  0.00    +0.000 A 
ATOM     11  C   UNL     1       1.544   4.042  18.646  0.00  0.00    +0.000 A 
ATOM     12  C   UNL     1       1.019   2.745  18.718  0.00  0.00    +0.000 A 
ATOM     13  C   UNL     1       1.869   1.646  18.679  0.00  0.00    +0.000 A 
ATOM     14  C   UNL     1       3.235   1.848  18.539  0.00  0.00    +0.000 A 
ATOM     15  F   UNL     1       4.045   0.780  18.488  0.00  0.00    +0.000 F 
ATOM     16  C   UNL     1       3.763   3.140  18.448  0.00  0.00    +0.000 A 
ATOM     17  O   UNL     1       5.132   3.225  18.284  0.00  0.00    +0.000 OA
ENDBRANCH   5   9
ENDBRANCH   1   5
BRANCH   3  18
ATOM     18  C   UNL     1       1.040   9.565  20.037  0.00  0.00    +0.000 C 
BRANCH  18  19
ATOM     19  C   UNL     1       0.224  10.727  19.532  0.00  0.00    +0.000 A 
ATOM     20  C   UNL     1       0.612  12.041  19.831  0.00  0.00    +0.000 A 
ATOM     21  C   UNL     1      -0.057  13.129  19.267  0.00  0.00    +0.000 A 
ATOM     22  C   UNL     1      -1.149  12.919  18.426  0.00  0.00    +0.000 A 
ATOM     23  C   UNL     1      -1.594  11.618  18.168  0.00  0.00    +0.000 A 
ATOM     24  C   UNL     1      -0.897  10.524  18.706  0.00  0.00    +0.000 A 
BRANCH  23  25
ATOM     25  C   UNL     1      -2.798  11.446  17.302  0.00  0.00    +0.000 C 
ATOM     26  O   UNL     1      -2.670  11.103  16.132  0.00  0.00    +0.000 OA
ATOM     27  N   UNL     1      -4.012  11.754  17.896  0.00  0.00    +0.000 N 
ATOM     28  H   UNL     1      -4.016  12.175  18.816  0.00  0.00    +0.000 HD
BRANCH  27  29
ATOM     29  C   UNL     1      -5.246  11.714  17.176  0.00  0.00    +0.000 C 
ATOM     30  C   UNL     1      -6.152  12.916  17.131  0.00  0.00    +0.000 C 
ATOM     31  C   UNL     1      -6.555  11.703  17.914  0.00  0.00    +0.000 C 
ENDBRANCH  27  29
ENDBRANCH  23  25
ENDBRANCH  18  19
ENDBRANCH   3  18
TORSDOF 6
ENDMDL
MODEL 9
REMARK VINA RESULT:      -8.2      3.326      5.381
REMARK  Name = 
REMARK  7 active torsions:
REMARK  status: ('A' for Active; 'I' for Inactive)
REMARK    1  A    between atoms: C_1  and  C_2
REMARK    2  A    between atoms: N_4  and  C_5
REMARK    3  A    between atoms: C_5  and  C_6
REMARK    4  A    between atoms: N_8  and  C_9
REMARK    5  A    between atoms: C_9  and  C_10
REMARK    6  A    between atoms: C_14  and  C_15
REMARK    7  A    between atoms: N_17  and  C_18
REMARK                            x       y       z     vdW  Elec       q    Type
REMARK                         _______ _______ _______ _____ _____    ______ ____
ROOT
ATOM      1  C   UNL     1       2.295   8.079  18.157  0.00  0.00    +0.000 C 
ATOM      2  O   UNL     1       3.159   8.896  17.839  0.00  0.00    +0.000 OA
ATOM      3  N   UNL     1       1.170   8.425  18.892  0.00  0.00    +0.000 N 
ATOM      4  H   UNL     1       0.761   7.690  19.455  0.00  0.00    +0.000 HD
ENDROOT
BRANCH   1   5
ATOM      5  C   UNL     1       2.386   6.601  17.752  0.00  0.00    +0.000 C 
BRANCH   5   9
ATOM      6  C   UNL     1       6.813   4.613  17.689  0.00  0.00    +0.000 C 
ATOM      7  C   UNL     1       5.333   4.552  18.050  0.00  0.00    +0.000 C 
ATOM      8  C   UNL     1       4.762   5.955  18.275  0.00  0.00    +0.000 C 
ATOM      9  N   UNL     1       3.330   5.873  18.607  0.00  0.00    +0.000 N 
ATOM     10  C   UNL     1       2.976   4.789  19.407  0.00  0.00    +0.000 A 
ATOM     11  C   UNL     1       1.691   4.664  19.962  0.00  0.00    +0.000 A 
ATOM     12  C   UNL     1       1.371   3.634  20.856  0.00  0.00    +0.000 A 
ATOM     13  C   UNL     1       2.334   2.700  21.220  0.00  0.00    +0.000 A 
ATOM     14  C   UNL     1       3.604   2.784  20.666  0.00  0.00    +0.000 A 
ATOM     15  F   UNL     1       4.522   1.870  21.014  0.00  0.00    +0.000 F 
ATOM     16  C   UNL     1       3.925   3.799  19.759  0.00  0.00    +0.000 A 
ATOM     17  O   UNL     1       5.209   3.771  19.249  0.00  0.00    +0.000 OA
ENDBRANCH   5   9
ENDBRANCH   1   5
BRANCH   3  18
ATOM     18  C   UNL     1       1.052   9.791  19.351  0.00  0.00    +0.000 C 
BRANCH  18  19
ATOM     19  C   UNL     1       0.369   9.926  20.687  0.00  0.00    +0.000 A 
ATOM     20  C   UNL     1       0.630   9.000  21.707  0.00  0.00    +0.000 A 
ATOM     21  C   UNL     1       0.105   9.182  22.989  0.00  0.00    +0.000 A 
ATOM     22  C   UNL     1      -0.718  10.274  23.258  0.00  0.00    +0.000 A 
ATOM     23  C   UNL     1      -1.045  11.174  22.238  0.00  0.00    +0.000 A 
ATOM     24  C   UNL     1      -0.486  11.009  20.960  0.00  0.00    +0.000 A 
BRANCH  23  25
ATOM     25  C   UNL     1      -1.971  12.298  22.563  0.00  0.00    +0.000 C 
ATOM     26  O   UNL     1      -1.708  13.438  22.194  0.00  0.00    +0.000 OA
ATOM     27  N   UNL     1      -3.072  11.963  23.336  0.00  0.00    +0.000 N 
ATOM     28  H   UNL     1      -3.134  11.032  23.725  0.00  0.00    +0.000 HD
BRANCH  27  29
ATOM     29  C   UNL     1      -4.009  12.941  23.793  0.00  0.00    +0.000 C 
ATOM     30  C   UNL     1      -5.190  12.541  24.639  0.00  0.00    +0.000 C 
ATOM     31  C   UNL     1      -5.398  12.987  23.222  0.00  0.00    +0.000 C 
ENDBRANCH  27  29
ENDBRANCH  23  25
ENDBRANCH  18  19
ENDBRANCH   3  18
TORSDOF 6
ENDMDL
