MODEL 1
REMARK VINA RESULT:      -7.9      0.000      0.000
REMARK  Name = 
REMARK  3 active torsions:
REMARK  status: ('A' for Active; 'I' for Inactive)
REMARK    1  A    between atoms: C_4  and  C_5
REMARK    2  A    between atoms: C_5  and  N_6
REMARK    3  A    between atoms: C_9  and  C_10
REMARK                            x       y       z     vdW  Elec       q    Type
REMARK                         _______ _______ _______ _____ _____    ______ ____
ROOT
ATOM      1  N   UNL     1       0.533  10.176  20.114  0.00  0.00    +0.000 NA
ATOM      2  C   UNL     1      -0.848  10.013  19.650  0.00  0.00    +0.000 C 
ATOM      3  C   UNL     1      -1.375  11.211  18.870  0.00  0.00    +0.000 C 
ATOM      4  C   UNL     1      -1.214  12.523  19.629  0.00  0.00    +0.000 C 
ATOM      5  C   UNL     1       0.249  12.691  20.037  0.00  0.00    +0.000 C 
ATOM      6  C   UNL     1       0.844  11.469  20.732  0.00  0.00    +0.000 C 
ENDROOT
BRANCH   4   7
ATOM      7  C   UNL     1      -2.222  12.748  20.750  0.00  0.00    +0.000 A 
ATOM      8  N   UNL     1      -2.049  12.574  22.044  0.00  0.00    +0.000 NA
ATOM      9  C   UNL     1      -3.276  12.645  22.716  0.00  0.00    +0.000 A 
ATOM     10  C   UNL     1      -3.510  12.453  24.099  0.00  0.00    +0.000 A 
ATOM     11  C   UNL     1      -4.820  12.468  24.604  0.00  0.00    +0.000 A 
ATOM     12  C   UNL     1      -5.901  12.684  23.755  0.00  0.00    +0.000 A 
ATOM     13  C   UNL     1      -5.695  12.918  22.394  0.00  0.00    +0.000 A 
ATOM     14  C   UNL     1      -4.377  12.896  21.900  0.00  0.00    +0.000 A 
ATOM     15  S   UNL     1      -3.841  13.145  20.289  0.00  0.00    +0.000 S 
ENDBRANCH   4   7
BRANCH   1  16
ATOM     16  C   UNL     1       0.940   9.046  20.989  0.00  0.00    +0.000 C 
BRANCH  16  20
ATOM     17  O   UNL     1       3.473   6.998  17.431  0.00  0.00    +0.000 OA
ATOM     18  C   UNL     1       2.850   6.835  18.479  0.00  0.00    +0.000 A 
ATOM     19  C   UNL     1       2.284   8.014  19.152  0.00  0.00    +0.000 A 
ATOM     20  C   UNL     1       1.642   7.859  20.316  0.00  0.00    +0.000 A 
ATOM     21  N   UNL     1       1.522   6.635  20.932  0.00  0.00    +0.000 NA
ATOM     22  C   UNL     1       1.939   5.583  20.303  0.00  0.00    +0.000 A 
ATOM     23  C   UNL     1       1.703   4.242  20.909  0.00  0.00    +0.000 A 
ATOM     24  C   UNL     1       2.125   3.137  20.279  0.00  0.00    +0.000 A 
ATOM     25  C   UNL     1       2.832   3.235  19.025  0.00  0.00    +0.000 A 
ATOM     26 BR   UNL     1       3.416   1.660  18.219  0.00  0.00    +0.000 Br
ATOM     27  C   UNL     1       3.046   4.442  18.482  0.00  0.00    +0.000 A 
ATOM     28  N   UNL     1       2.605   5.614  19.088  0.00  0.00    +0.000 N 
ENDBRANCH  16  20
ENDBRANCH   1  16
TORSDOF 3
ENDMDL
MODEL 2
REMARK VINA RESULT:      -7.9      5.311     10.844
REMARK  Name = 
REMARK  3 active torsions:
REMARK  status: ('A' for Active; 'I' for Inactive)
REMARK    1  A    between atoms: C_4  and  C_5
REMARK    2  A    between atoms: C_5  and  N_6
REMARK    3  A    between atoms: C_9  and  C_10
REMARK                            x       y       z     vdW  Elec       q    Type
REMARK                         _______ _______ _______ _____ _____    ______ ____
ROOT
ATOM      1  N   UNL     1       4.416   6.383  18.564  0.00  0.00    +0.000 NA
ATOM      2  C   UNL     1       5.051   5.063  18.618  0.00  0.00    +0.000 C 
ATOM      3  C   UNL     1       6.573   5.116  18.585  0.00  0.00    +0.000 C 
ATOM      4  C   UNL     1       7.108   5.923  17.408  0.00  0.00    +0.000 C 
ATOM      5  C   UNL     1       6.476   7.314  17.424  0.00  0.00    +0.000 C 
ATOM      6  C   UNL     1       4.955   7.303  17.559  0.00  0.00    +0.000 C 
ENDROOT
BRANCH   4   7
ATOM      7  C   UNL     1       7.057   5.210  16.061  0.00  0.00    +0.000 A 
ATOM      8  N   UNL     1       7.716   5.508  14.960  0.00  0.00    +0.000 NA
ATOM      9  C   UNL     1       7.213   4.778  13.876  0.00  0.00    +0.000 A 
ATOM     10  C   UNL     1       7.619   4.861  12.522  0.00  0.00    +0.000 A 
ATOM     11  C   UNL     1       6.947   4.122  11.535  0.00  0.00    +0.000 A 
ATOM     12  C   UNL     1       5.886   3.290  11.877  0.00  0.00    +0.000 A 
ATOM     13  C   UNL     1       5.493   3.157  13.210  0.00  0.00    +0.000 A 
ATOM     14  C   UNL     1       6.172   3.907  14.189  0.00  0.00    +0.000 A 
ATOM     15  S   UNL     1       5.898   3.939  15.883  0.00  0.00    +0.000 S 
ENDBRANCH   4   7
BRANCH   1  16
ATOM     16  C   UNL     1       2.939   6.262  18.450  0.00  0.00    +0.000 C 
BRANCH  16  20
ATOM     17  O   UNL     1       0.844  10.555  17.783  0.00  0.00    +0.000 OA
ATOM     18  C   UNL     1       1.123   9.656  18.575  0.00  0.00    +0.000 A 
ATOM     19  C   UNL     1       1.831   8.469  18.072  0.00  0.00    +0.000 A 
ATOM     20  C   UNL     1       2.102   7.463  18.910  0.00  0.00    +0.000 A 
ATOM     21  N   UNL     1       1.708   7.477  20.228  0.00  0.00    +0.000 NA
ATOM     22  C   UNL     1       1.164   8.554  20.699  0.00  0.00    +0.000 A 
ATOM     23  C   UNL     1       0.845   8.623  22.152  0.00  0.00    +0.000 A 
ATOM     24  C   UNL     1       0.281   9.725  22.665  0.00  0.00    +0.000 A 
ATOM     25  C   UNL     1      -0.046  10.843  21.813  0.00  0.00    +0.000 A 
ATOM     26 BR   UNL     1      -0.855  12.332  22.587  0.00  0.00    +0.000 Br
ATOM     27  C   UNL     1       0.239  10.780  20.504  0.00  0.00    +0.000 A 
ATOM     28  N   UNL     1       0.847   9.665  19.933  0.00  0.00    +0.000 N 
ENDBRANCH  16  20
ENDBRANCH   1  16
TORSDOF 3
ENDMDL
MODEL 3
REMARK VINA RESULT:      -7.7      5.302     10.819
REMARK  Name = 
REMARK  3 active torsions:
REMARK  status: ('A' for Active; 'I' for Inactive)
REMARK    1  A    between atoms: C_4  and  C_5
REMARK    2  A    between atoms: C_5  and  N_6
REMARK    3  A    between atoms: C_9  and  C_10
REMARK                            x       y       z     vdW  Elec       q    Type
REMARK                         _______ _______ _______ _____ _____    ______ ____
ROOT
ATOM      1  N   UNL     1       3.882   7.018  17.958  0.00  0.00    +0.000 NA
ATOM      2  C   UNL     1       3.647   5.601  17.672  0.00  0.00    +0.000 C 
ATOM      3  C   UNL     1       4.722   4.678  18.231  0.00  0.00    +0.000 C 
ATOM      4  C   UNL     1       6.127   5.087  17.803  0.00  0.00    +0.000 C 
ATOM      5  C   UNL     1       6.361   6.549  18.178  0.00  0.00    +0.000 C 
ATOM      6  C   UNL     1       5.250   7.492  17.723  0.00  0.00    +0.000 C 
ENDROOT
BRANCH   4   7
ATOM      7  C   UNL     1       6.495   4.726  16.368  0.00  0.00    +0.000 A 
ATOM      8  N   UNL     1       7.341   5.342  15.568  0.00  0.00    +0.000 NA
ATOM      9  C   UNL     1       7.216   4.859  14.259  0.00  0.00    +0.000 A 
ATOM     10  C   UNL     1       7.908   5.309  13.108  0.00  0.00    +0.000 A 
ATOM     11  C   UNL     1       7.600   4.779  11.845  0.00  0.00    +0.000 A 
ATOM     12  C   UNL     1       6.623   3.797  11.711  0.00  0.00    +0.000 A 
ATOM     13  C   UNL     1       5.955   3.306  12.835  0.00  0.00    +0.000 A 
ATOM     14  C   UNL     1       6.270   3.850  14.094  0.00  0.00    +0.000 A 
ATOM     15  S   UNL     1       5.609   3.441  15.624  0.00  0.00    +0.000 S 
ENDBRANCH   4   7
BRANCH   1  16
ATOM     16  C   UNL     1       2.886   7.877  17.267  0.00  0.00    +0.000 C 
BRANCH  16  20
ATOM     17  O   UNL     1      -0.747  10.964  18.000  0.00  0.00    +0.000 OA
ATOM     18  C   UNL     1       0.057  10.181  18.502  0.00  0.00    +0.000 A 
ATOM     19  C   UNL     1       0.980   9.455  17.616  0.00  0.00    +0.000 A 
ATOM     20  C   UNL     1       1.831   8.567  18.142  0.00  0.00    +0.000 A 
ATOM     21  N   UNL     1       1.852   8.276  19.486  0.00  0.00    +0.000 NA
ATOM     22  C   UNL     1       1.105   8.974  20.282  0.00  0.00    +0.000 A 
ATOM     23  C   UNL     1       1.211   8.747  21.751  0.00  0.00    +0.000 A 
ATOM     24  C   UNL     1       0.450   9.456  22.596  0.00  0.00    +0.000 A 
ATOM     25  C   UNL     1      -0.496  10.423  22.093  0.00  0.00    +0.000 A 
ATOM     26 BR   UNL     1      -1.543  11.351  23.323  0.00  0.00    +0.000 Br
ATOM     27  C   UNL     1      -0.592  10.624  20.771  0.00  0.00    +0.000 A 
ATOM     28  N   UNL     1       0.196   9.929  19.858  0.00  0.00    +0.000 N 
ENDBRANCH  16  20
ENDBRANCH   1  16
TORSDOF 3
ENDMDL
MODEL 4
REMARK VINA RESULT:      -7.6      5.357     10.992
REMARK  Name = 
REMARK  3 active torsions:
REMARK  status: ('A' for Active; 'I' for Inactive)
REMARK    1  A    between atoms: C_4  and  C_5
REMARK    2  A    between atoms: C_5  and  N_6
REMARK    3  A    between atoms: C_9  and  C_10
REMARK                            x       y       z     vdW  Elec       q    Type
REMARK                         _______ _______ _______ _____ _____    ______ ____
ROOT
ATOM      1  N   UNL     1       4.387   6.478  18.486  0.00  0.00    +0.000 NA
ATOM      2  C   UNL     1       4.907   5.109  18.538  0.00  0.00    +0.000 C 
ATOM      3  C   UNL     1       6.428   5.033  18.544  0.00  0.00    +0.000 C 
ATOM      4  C   UNL     1       7.059   5.805  17.392  0.00  0.00    +0.000 C 
ATOM      5  C   UNL     1       6.547   7.245  17.411  0.00  0.00    +0.000 C 
ATOM      6  C   UNL     1       5.028   7.361  17.508  0.00  0.00    +0.000 C 
ENDROOT
BRANCH   4   7
ATOM      7  C   UNL     1       6.983   5.115  16.034  0.00  0.00    +0.000 A 
ATOM      8  N   UNL     1       7.693   5.369  14.954  0.00  0.00    +0.000 NA
ATOM      9  C   UNL     1       7.158   4.696  13.848  0.00  0.00    +0.000 A 
ATOM     10  C   UNL     1       7.604   4.761  12.506  0.00  0.00    +0.000 A 
ATOM     11  C   UNL     1       6.898   4.092  11.492  0.00  0.00    +0.000 A 
ATOM     12  C   UNL     1       5.763   3.347  11.797  0.00  0.00    +0.000 A 
ATOM     13  C   UNL     1       5.327   3.232  13.118  0.00  0.00    +0.000 A 
ATOM     14  C   UNL     1       6.040   3.912  14.123  0.00  0.00    +0.000 A 
ATOM     15  S   UNL     1       5.728   3.948  15.810  0.00  0.00    +0.000 S 
ENDBRANCH   4   7
BRANCH   1  16
ATOM     16  C   UNL     1       2.909   6.484  18.334  0.00  0.00    +0.000 C 
BRANCH  16  20
ATOM     17  O   UNL     1       1.101   8.652  22.246  0.00  0.00    +0.000 OA
ATOM     18  C   UNL     1       1.174   8.634  21.018  0.00  0.00    +0.000 A 
ATOM     19  C   UNL     1       2.012   7.610  20.378  0.00  0.00    +0.000 A 
ATOM     20  C   UNL     1       2.138   7.604  19.046  0.00  0.00    +0.000 A 
ATOM     21  N   UNL     1       1.539   8.550  18.247  0.00  0.00    +0.000 NA
ATOM     22  C   UNL     1       0.729   9.400  18.796  0.00  0.00    +0.000 A 
ATOM     23  C   UNL     1      -0.017  10.349  17.923  0.00  0.00    +0.000 A 
ATOM     24  C   UNL     1      -0.861  11.238  18.465  0.00  0.00    +0.000 A 
ATOM     25  C   UNL     1      -1.035  11.303  19.896  0.00  0.00    +0.000 A 
ATOM     26 BR   UNL     1      -2.201  12.582  20.584  0.00  0.00    +0.000 Br
ATOM     27  C   UNL     1      -0.361  10.449  20.681  0.00  0.00    +0.000 A 
ATOM     28  N   UNL     1       0.506   9.493  20.160  0.00  0.00    +0.000 N 
ENDBRANCH  16  20
ENDBRANCH   1  16
TORSDOF 3
ENDMDL
MODEL 5
REMARK VINA RESULT:      -7.6      7.769     10.366
REMARK  Name = 
REMARK  3 active torsions:
REMARK  status: ('A' for Active; 'I' for Inactive)
REMARK    1  A    between atoms: C_4  and  C_5
REMARK    2  A    between atoms: C_5  and  N_6
REMARK    3  A    between atoms: C_9  and  C_10
REMARK                            x       y       z     vdW  Elec       q    Type
REMARK                         _______ _______ _______ _____ _____    ______ ____
ROOT
ATOM      1  N   UNL     1       7.397   7.307  17.298  0.00  0.00    +0.000 NA
ATOM      2  C   UNL     1       7.405   5.842  17.281  0.00  0.00    +0.000 C 
ATOM      3  C   UNL     1       6.371   5.237  16.340  0.00  0.00    +0.000 C 
ATOM      4  C   UNL     1       4.964   5.764  16.596  0.00  0.00    +0.000 C 
ATOM      5  C   UNL     1       4.981   7.291  16.539  0.00  0.00    +0.000 C 
ATOM      6  C   UNL     1       6.073   7.931  17.392  0.00  0.00    +0.000 C 
ENDROOT
BRANCH   4   7
ATOM      7  C   UNL     1       4.267   5.176  17.818  0.00  0.00    +0.000 A 
ATOM      8  N   UNL     1       4.491   4.015  18.400  0.00  0.00    +0.000 NA
ATOM      9  C   UNL     1       3.484   3.732  19.331  0.00  0.00    +0.000 A 
ATOM     10  C   UNL     1       3.343   2.560  20.113  0.00  0.00    +0.000 A 
ATOM     11  C   UNL     1       2.219   2.390  20.938  0.00  0.00    +0.000 A 
ATOM     12  C   UNL     1       1.240   3.377  21.007  0.00  0.00    +0.000 A 
ATOM     13  C   UNL     1       1.376   4.560  20.279  0.00  0.00    +0.000 A 
ATOM     14  C   UNL     1       2.505   4.715  19.453  0.00  0.00    +0.000 A 
ATOM     15  S   UNL     1       2.919   6.050  18.457  0.00  0.00    +0.000 S 
ENDBRANCH   4   7
BRANCH   1  16
ATOM     16  C   UNL     1       8.319   7.836  18.337  0.00  0.00    +0.000 C 
BRANCH  16  20
ATOM     17  O   UNL     1       7.519  12.334  16.791  0.00  0.00    +0.000 OA
ATOM     18  C   UNL     1       8.140  11.604  17.563  0.00  0.00    +0.000 A 
ATOM     19  C   UNL     1       7.862  10.160  17.542  0.00  0.00    +0.000 A 
ATOM     20  C   UNL     1       8.496   9.358  18.405  0.00  0.00    +0.000 A 
ATOM     21  N   UNL     1       9.377   9.840  19.345  0.00  0.00    +0.000 NA
ATOM     22  C   UNL     1       9.693  11.096  19.310  0.00  0.00    +0.000 A 
ATOM     23  C   UNL     1      10.737  11.601  20.245  0.00  0.00    +0.000 A 
ATOM     24  C   UNL     1      11.082  12.896  20.230  0.00  0.00    +0.000 A 
ATOM     25  C   UNL     1      10.430  13.816  19.330  0.00  0.00    +0.000 A 
ATOM     26 BR   UNL     1      10.938  15.608  19.383  0.00  0.00    +0.000 Br
ATOM     27  C   UNL     1       9.489  13.361  18.490  0.00  0.00    +0.000 A 
ATOM     28  N   UNL     1       9.116  12.020  18.454  0.00  0.00    +0.000 N 
ENDBRANCH  16  20
ENDBRANCH   1  16
TORSDOF 3
ENDMDL
MODEL 6
REMARK VINA RESULT:      -7.6      1.730      2.542
REMARK  Name = 
REMARK  3 active torsions:
REMARK  status: ('A' for Active; 'I' for Inactive)
REMARK    1  A    between atoms: C_4  and  C_5
REMARK    2  A    between atoms: C_5  and  N_6
REMARK    3  A    between atoms: C_9  and  C_10
REMARK                            x       y       z     vdW  Elec       q    Type
REMARK                         _______ _______ _______ _____ _____    ______ ____
ROOT
ATOM      1  N   UNL     1       0.913   9.640  20.448  0.00  0.00    +0.000 NA
ATOM      2  C   UNL     1      -0.290   9.752  19.618  0.00  0.00    +0.000 C 
ATOM      3  C   UNL     1      -0.557  11.166  19.118  0.00  0.00    +0.000 C 
ATOM      4  C   UNL     1      -0.583  12.192  20.245  0.00  0.00    +0.000 C 
ATOM      5  C   UNL     1       0.714  12.092  21.046  0.00  0.00    +0.000 C 
ATOM      6  C   UNL     1       1.069  10.671  21.477  0.00  0.00    +0.000 C 
ENDROOT
BRANCH   4   7
ATOM      7  C   UNL     1      -1.856  12.197  21.084  0.00  0.00    +0.000 A 
ATOM      8  N   UNL     1      -3.078  12.509  20.703  0.00  0.00    +0.000 NA
ATOM      9  C   UNL     1      -3.920  12.633  21.815  0.00  0.00    +0.000 A 
ATOM     10  C   UNL     1      -5.285  13.011  21.821  0.00  0.00    +0.000 A 
ATOM     11  C   UNL     1      -5.969  13.177  23.036  0.00  0.00    +0.000 A 
ATOM     12  C   UNL     1      -5.319  12.959  24.247  0.00  0.00    +0.000 A 
ATOM     13  C   UNL     1      -3.986  12.545  24.268  0.00  0.00    +0.000 A 
ATOM     14  C   UNL     1      -3.311  12.386  23.043  0.00  0.00    +0.000 A 
ATOM     15  S   UNL     1      -1.688  11.896  22.779  0.00  0.00    +0.000 S 
ENDBRANCH   4   7
BRANCH   1  16
ATOM     16  C   UNL     1       1.040   8.276  21.024  0.00  0.00    +0.000 C 
BRANCH  16  20
ATOM     17  O   UNL     1       2.625   3.807  20.140  0.00  0.00    +0.000 OA
ATOM     18  C   UNL     1       2.615   4.986  19.789  0.00  0.00    +0.000 A 
ATOM     19  C   UNL     1       1.820   5.946  20.568  0.00  0.00    +0.000 A 
ATOM     20  C   UNL     1       1.763   7.223  20.174  0.00  0.00    +0.000 A 
ATOM     21  N   UNL     1       2.394   7.669  19.036  0.00  0.00    +0.000 NA
ATOM     22  C   UNL     1       3.167   6.851  18.395  0.00  0.00    +0.000 A 
ATOM     23  C   UNL     1       3.948   7.359  17.233  0.00  0.00    +0.000 A 
ATOM     24  C   UNL     1       4.754   6.532  16.553  0.00  0.00    +0.000 A 
ATOM     25  C   UNL     1       4.854   5.141  16.921  0.00  0.00    +0.000 A 
ATOM     26 BR   UNL     1       5.972   4.042  15.914  0.00  0.00    +0.000 Br
ATOM     27  C   UNL     1       4.149   4.684  17.966  0.00  0.00    +0.000 A 
ATOM     28  N   UNL     1       3.318   5.511  18.716  0.00  0.00    +0.000 N 
ENDBRANCH  16  20
ENDBRANCH   1  16
TORSDOF 3
ENDMDL
MODEL 7
REMARK VINA RESULT:      -7.5      7.770     10.474
REMARK  Name = 
REMARK  3 active torsions:
REMARK  status: ('A' for Active; 'I' for Inactive)
REMARK    1  A    between atoms: C_4  and  C_5
REMARK    2  A    between atoms: C_5  and  N_6
REMARK    3  A    between atoms: C_9  and  C_10
REMARK                            x       y       z     vdW  Elec       q    Type
REMARK                         _______ _______ _______ _____ _____    ______ ____
ROOT
ATOM      1  N   UNL     1       7.371   7.191  17.250  0.00  0.00    +0.000 NA
ATOM      2  C   UNL     1       7.398   5.726  17.213  0.00  0.00    +0.000 C 
ATOM      3  C   UNL     1       6.485   5.125  16.151  0.00  0.00    +0.000 C 
ATOM      4  C   UNL     1       5.053   5.634  16.252  0.00  0.00    +0.000 C 
ATOM      5  C   UNL     1       5.058   7.162  16.219  0.00  0.00    +0.000 C 
ATOM      6  C   UNL     1       6.038   7.800  17.200  0.00  0.00    +0.000 C 
ENDROOT
BRANCH   4   7
ATOM      7  C   UNL     1       4.227   5.020  17.378  0.00  0.00    +0.000 A 
ATOM      8  N   UNL     1       3.486   5.641  18.273  0.00  0.00    +0.000 NA
ATOM      9  C   UNL     1       3.092   4.754  19.282  0.00  0.00    +0.000 A 
ATOM     10  C   UNL     1       2.339   5.054  20.443  0.00  0.00    +0.000 A 
ATOM     11  C   UNL     1       2.104   4.064  21.410  0.00  0.00    +0.000 A 
ATOM     12  C   UNL     1       2.594   2.773  21.232  0.00  0.00    +0.000 A 
ATOM     13  C   UNL     1       3.302   2.440  20.076  0.00  0.00    +0.000 A 
ATOM     14  C   UNL     1       3.535   3.444  19.117  0.00  0.00    +0.000 A 
ATOM     15  S   UNL     1       4.371   3.315  17.624  0.00  0.00    +0.000 S 
ENDBRANCH   4   7
BRANCH   1  16
ATOM     16  C   UNL     1       8.162   7.712  18.395  0.00  0.00    +0.000 C 
BRANCH  16  20
ATOM     17  O   UNL     1       7.563  12.224  16.798  0.00  0.00    +0.000 OA
ATOM     18  C   UNL     1       8.164  11.473  17.564  0.00  0.00    +0.000 A 
ATOM     19  C   UNL     1       7.809  10.046  17.575  0.00  0.00    +0.000 A 
ATOM     20  C   UNL     1       8.422   9.224  18.433  0.00  0.00    +0.000 A 
ATOM     21  N   UNL     1       9.354   9.671  19.341  0.00  0.00    +0.000 NA
ATOM     22  C   UNL     1       9.735  10.907  19.278  0.00  0.00    +0.000 A 
ATOM     23  C   UNL     1      10.830  11.368  20.176  0.00  0.00    +0.000 A 
ATOM     24  C   UNL     1      11.244  12.643  20.131  0.00  0.00    +0.000 A 
ATOM     25  C   UNL     1      10.618  13.583  19.234  0.00  0.00    +0.000 A 
ATOM     26 BR   UNL     1      11.222  15.345  19.244  0.00  0.00    +0.000 Br
ATOM     27  C   UNL     1       9.630  13.167  18.427  0.00  0.00    +0.000 A 
ATOM     28  N   UNL     1       9.186  11.848  18.423  0.00  0.00    +0.000 N 
ENDBRANCH  16  20
ENDBRANCH   1  16
TORSDOF 3
ENDMDL
MODEL 8
REMARK VINA RESULT:      -7.5      1.931      2.454
REMARK  Name = 
REMARK  3 active torsions:
REMARK  status: ('A' for Active; 'I' for Inactive)
REMARK    1  A    between atoms: C_4  and  C_5
REMARK    2  A    between atoms: C_5  and  N_6
REMARK    3  A    between atoms: C_9  and  C_10
REMARK                            x       y       z     vdW  Elec       q    Type
REMARK                         _______ _______ _______ _____ _____    ______ ____
ROOT
ATOM      1  N   UNL     1       0.629  10.097  20.603  0.00  0.00    +0.000 NA
ATOM      2  C   UNL     1       0.107   9.998  19.237  0.00  0.00    +0.000 C 
ATOM      3  C   UNL     1      -0.059  11.347  18.548  0.00  0.00    +0.000 C 
ATOM      4  C   UNL     1      -0.885  12.328  19.370  0.00  0.00    +0.000 C 
ATOM      5  C   UNL     1      -0.273  12.457  20.764  0.00  0.00    +0.000 C 
ATOM      6  C   UNL     1       0.003  11.120  21.447  0.00  0.00    +0.000 C 
ENDROOT
BRANCH   4   7
ATOM      7  C   UNL     1      -2.390  12.079  19.351  0.00  0.00    +0.000 A 
ATOM      8  N   UNL     1      -3.091  11.414  18.456  0.00  0.00    +0.000 NA
ATOM      9  C   UNL     1      -4.461  11.621  18.655  0.00  0.00    +0.000 A 
ATOM     10  C   UNL     1      -5.528  11.124  17.868  0.00  0.00    +0.000 A 
ATOM     11  C   UNL     1      -6.851  11.502  18.149  0.00  0.00    +0.000 A 
ATOM     12  C   UNL     1      -7.130  12.356  19.212  0.00  0.00    +0.000 A 
ATOM     13  C   UNL     1      -6.101  12.826  20.030  0.00  0.00    +0.000 A 
ATOM     14  C   UNL     1      -4.779  12.443  19.734  0.00  0.00    +0.000 A 
ATOM     15  S   UNL     1      -3.338  12.872  20.560  0.00  0.00    +0.000 S 
ENDBRANCH   4   7
BRANCH   1  16
ATOM     16  C   UNL     1       0.630   8.770  21.273  0.00  0.00    +0.000 C 
BRANCH  16  20
ATOM     17  O   UNL     1       3.551   7.019  17.857  0.00  0.00    +0.000 OA
ATOM     18  C   UNL     1       2.825   6.772  18.819  0.00  0.00    +0.000 A 
ATOM     19  C   UNL     1       2.174   7.891  19.515  0.00  0.00    +0.000 A 
ATOM     20  C   UNL     1       1.417   7.644  20.590  0.00  0.00    +0.000 A 
ATOM     21  N   UNL     1       1.253   6.375  21.097  0.00  0.00    +0.000 NA
ATOM     22  C   UNL     1       1.750   5.377  20.438  0.00  0.00    +0.000 A 
ATOM     23  C   UNL     1       1.473   3.992  20.913  0.00  0.00    +0.000 A 
ATOM     24  C   UNL     1       1.976   2.942  20.250  0.00  0.00    +0.000 A 
ATOM     25  C   UNL     1       2.808   3.140  19.088  0.00  0.00    +0.000 A 
ATOM     26 BR   UNL     1       3.498   1.637  18.232  0.00  0.00    +0.000 Br
ATOM     27  C   UNL     1       3.059   4.387  18.662  0.00  0.00    +0.000 A 
ATOM     28  N   UNL     1       2.537   5.507  19.305  0.00  0.00    +0.000 N 
ENDBRANCH  16  20
ENDBRANCH   1  16
TORSDOF 3
ENDMDL
MODEL 9
REMARK VINA RESULT:      -7.5      1.397      2.112
REMARK  Name = 
REMARK  3 active torsions:
REMARK  status: ('A' for Active; 'I' for Inactive)
REMARK    1  A    between atoms: C_4  and  C_5
REMARK    2  A    between atoms: C_5  and  N_6
REMARK    3  A    between atoms: C_9  and  C_10
REMARK                            x       y       z     vdW  Elec       q    Type
REMARK                         _______ _______ _______ _____ _____    ______ ____
ROOT
ATOM      1  N   UNL     1       0.517  10.105  20.222  0.00  0.00    +0.000 NA
ATOM      2  C   UNL     1      -0.843  10.068  19.679  0.00  0.00    +0.000 C 
ATOM      3  C   UNL     1      -1.256  11.356  18.978  0.00  0.00    +0.000 C 
ATOM      4  C   UNL     1      -1.058  12.590  19.851  0.00  0.00    +0.000 C 
ATOM      5  C   UNL     1       0.388  12.631  20.343  0.00  0.00    +0.000 C 
ATOM      6  C   UNL     1       0.871  11.321  20.961  0.00  0.00    +0.000 C 
ENDROOT
BRANCH   4   7
ATOM      7  C   UNL     1      -2.110  12.787  20.937  0.00  0.00    +0.000 A 
ATOM      8  N   UNL     1      -1.998  12.554  22.229  0.00  0.00    +0.000 NA
ATOM      9  C   UNL     1      -3.251  12.621  22.849  0.00  0.00    +0.000 A 
ATOM     10  C   UNL     1      -3.550  12.374  24.211  0.00  0.00    +0.000 A 
ATOM     11  C   UNL     1      -4.880  12.395  24.659  0.00  0.00    +0.000 A 
ATOM     12  C   UNL     1      -5.918  12.671  23.775  0.00  0.00    +0.000 A 
ATOM     13  C   UNL     1      -5.648  12.960  22.436  0.00  0.00    +0.000 A 
ATOM     14  C   UNL     1      -4.310  12.931  21.999  0.00  0.00    +0.000 A 
ATOM     15  S   UNL     1      -3.699  13.239  20.425  0.00  0.00    +0.000 S 
ENDBRANCH   4   7
BRANCH   1  16
ATOM     16  C   UNL     1       0.809   8.884  21.018  0.00  0.00    +0.000 C 
BRANCH  16  20
ATOM     17  O   UNL     1       2.366   4.333  20.663  0.00  0.00    +0.000 OA
ATOM     18  C   UNL     1       2.362   5.462  20.176  0.00  0.00    +0.000 A 
ATOM     19  C   UNL     1       1.575   6.512  20.838  0.00  0.00    +0.000 A 
ATOM     20  C   UNL     1       1.524   7.734  20.296  0.00  0.00    +0.000 A 
ATOM     21  N   UNL     1       2.154   8.040  19.112  0.00  0.00    +0.000 NA
ATOM     22  C   UNL     1       2.920   7.146  18.571  0.00  0.00    +0.000 A 
ATOM     23  C   UNL     1       3.701   7.510  17.356  0.00  0.00    +0.000 A 
ATOM     24  C   UNL     1       4.501   6.604  16.776  0.00  0.00    +0.000 A 
ATOM     25  C   UNL     1       4.594   5.265  17.305  0.00  0.00    +0.000 A 
ATOM     26 BR   UNL     1       5.702   4.048  16.432  0.00  0.00    +0.000 Br
ATOM     27  C   UNL     1       3.889   4.938  18.398  0.00  0.00    +0.000 A 
ATOM     28  N   UNL     1       3.065   5.853  19.047  0.00  0.00    +0.000 N 
ENDBRANCH  16  20
ENDBRANCH   1  16
TORSDOF 3
ENDMDL
