MODEL 1
REMARK VINA RESULT:      -9.5      0.000      0.000
REMARK  Name = 
REMARK  3 active torsions:
REMARK  status: ('A' for Active; 'I' for Inactive)
REMARK    1  A    between atoms: C_1  and  C_2
REMARK    2  A    between atoms: C_4  and  C_5
REMARK    3  A    between atoms: C_5  and  N_6
REMARK                            x       y       z     vdW  Elec       q    Type
REMARK                         _______ _______ _______ _____ _____    ______ ____
ROOT
ATOM      1  N   UNL     1       1.565   9.008  19.231  0.00  0.00    +0.000 N 
ATOM      2  C   UNL     1       2.248   8.653  18.099  0.00  0.00    +0.000 C 
ATOM      3  O   UNL     1       2.245   9.369  17.100  0.00  0.00    +0.000 OA
ATOM      4  N   UNL     1       2.928   7.450  18.167  0.00  0.00    +0.000 N 
ATOM      5  C   UNL     1       3.819   7.112  17.057  0.00  0.00    +0.000 C 
ATOM      6  C   UNL     1       5.108   6.446  17.497  0.00  0.00    +0.000 A 
ATOM      7  C   UNL     1       6.326   7.133  17.356  0.00  0.00    +0.000 A 
ATOM      8  C   UNL     1       7.530   6.534  17.727  0.00  0.00    +0.000 A 
ATOM      9  C   UNL     1       7.530   5.249  18.255  0.00  0.00    +0.000 A 
ATOM     10  C   UNL     1       6.326   4.561  18.412  0.00  0.00    +0.000 A 
ATOM     11  C   UNL     1       5.098   5.138  18.034  0.00  0.00    +0.000 A 
ATOM     12  C   UNL     1       3.832   4.393  18.199  0.00  0.00    +0.000 A 
ATOM     13  C   UNL     1       3.739   3.049  17.787  0.00  0.00    +0.000 A 
ATOM     14  C   UNL     1       2.544   2.336  17.896  0.00  0.00    +0.000 A 
ATOM     15  C   UNL     1       1.413   2.955  18.413  0.00  0.00    +0.000 A 
ATOM     16  C   UNL     1       1.476   4.285  18.825  0.00  0.00    +0.000 A 
ATOM     17  C   UNL     1       2.675   5.013  18.731  0.00  0.00    +0.000 A 
ATOM     18  C   UNL     1       2.712   6.450  19.219  0.00  0.00    +0.000 C 
ATOM     19  H   UNL     1       2.030   8.777  20.097  0.00  0.00    +0.000 HD
ENDROOT
BRANCH   1  20
ATOM     20  C   UNL     1       0.869  10.279  19.261  0.00  0.00    +0.000 C 
BRANCH  20  24
ATOM     21  C   UNL     1      -1.865  11.581  23.378  0.00  0.00    +0.000 C 
ATOM     22  C   UNL     1      -0.922  11.110  22.347  0.00  0.00    +0.000 A 
ATOM     23  C   UNL     1      -0.919  11.117  20.974  0.00  0.00    +0.000 A 
ATOM     24  C   UNL     1       0.312  10.515  20.622  0.00  0.00    +0.000 A 
ATOM     25  N   UNL     1       1.004  10.156  21.715  0.00  0.00    +0.000 NA
ATOM     26  O   UNL     1       0.224  10.535  22.794  0.00  0.00    +0.000 OA
ENDBRANCH  20  24
ENDBRANCH   1  20
TORSDOF 2
ENDMDL
MODEL 2
REMARK VINA RESULT:      -9.2      2.226      4.365
REMARK  Name = 
REMARK  3 active torsions:
REMARK  status: ('A' for Active; 'I' for Inactive)
REMARK    1  A    between atoms: C_1  and  C_2
REMARK    2  A    between atoms: C_4  and  C_5
REMARK    3  A    between atoms: C_5  and  N_6
REMARK                            x       y       z     vdW  Elec       q    Type
REMARK                         _______ _______ _______ _____ _____    ______ ____
ROOT
ATOM      1  N   UNL     1       1.304   9.291  18.878  0.00  0.00    +0.000 N 
ATOM      2  C   UNL     1       1.667   8.339  19.792  0.00  0.00    +0.000 C 
ATOM      3  O   UNL     1       1.515   8.522  20.998  0.00  0.00    +0.000 OA
ATOM      4  N   UNL     1       2.206   7.181  19.263  0.00  0.00    +0.000 N 
ATOM      5  C   UNL     1       2.439   6.063  20.178  0.00  0.00    +0.000 C 
ATOM      6  C   UNL     1       2.110   4.711  19.577  0.00  0.00    +0.000 A 
ATOM      7  C   UNL     1       1.014   3.982  20.071  0.00  0.00    +0.000 A 
ATOM      8  C   UNL     1       0.704   2.723  19.556  0.00  0.00    +0.000 A 
ATOM      9  C   UNL     1       1.476   2.184  18.535  0.00  0.00    +0.000 A 
ATOM     10  C   UNL     1       2.560   2.903  18.027  0.00  0.00    +0.000 A 
ATOM     11  C   UNL     1       2.901   4.170  18.538  0.00  0.00    +0.000 A 
ATOM     12  C   UNL     1       4.056   4.915  17.994  0.00  0.00    +0.000 A 
ATOM     13  C   UNL     1       5.290   4.266  17.792  0.00  0.00    +0.000 A 
ATOM     14  C   UNL     1       6.406   4.956  17.317  0.00  0.00    +0.000 A 
ATOM     15  C   UNL     1       6.315   6.315  17.042  0.00  0.00    +0.000 A 
ATOM     16  C   UNL     1       5.108   6.984  17.238  0.00  0.00    +0.000 A 
ATOM     17  C   UNL     1       3.971   6.299  17.706  0.00  0.00    +0.000 A 
ATOM     18  C   UNL     1       2.667   7.055  17.875  0.00  0.00    +0.000 C 
ATOM     19  H   UNL     1       0.900   8.929  18.025  0.00  0.00    +0.000 HD
ENDROOT
BRANCH   1  20
ATOM     20  C   UNL     1       0.682  10.514  19.346  0.00  0.00    +0.000 C 
BRANCH  20  24
ATOM     21  C   UNL     1      -3.317  10.478  16.164  0.00  0.00    +0.000 C 
ATOM     22  C   UNL     1      -2.241  10.705  17.147  0.00  0.00    +0.000 A 
ATOM     23  C   UNL     1      -1.195   9.950  17.616  0.00  0.00    +0.000 A 
ATOM     24  C   UNL     1      -0.541  10.795  18.544  0.00  0.00    +0.000 A 
ATOM     25  N   UNL     1      -1.162  11.982  18.638  0.00  0.00    +0.000 NA
ATOM     26  O   UNL     1      -2.226  11.919  17.756  0.00  0.00    +0.000 OA
ENDBRANCH  20  24
ENDBRANCH   1  20
TORSDOF 2
ENDMDL
MODEL 3
REMARK VINA RESULT:      -8.8      1.907      2.350
REMARK  Name = 
REMARK  3 active torsions:
REMARK  status: ('A' for Active; 'I' for Inactive)
REMARK    1  A    between atoms: C_1  and  C_2
REMARK    2  A    between atoms: C_4  and  C_5
REMARK    3  A    between atoms: C_5  and  N_6
REMARK                            x       y       z     vdW  Elec       q    Type
REMARK                         _______ _______ _______ _____ _____    ______ ____
ROOT
ATOM      1  N   UNL     1       1.198   9.364  19.561  0.00  0.00    +0.000 N 
ATOM      2  C   UNL     1       1.683   8.710  18.460  0.00  0.00    +0.000 C 
ATOM      3  O   UNL     1       1.466   9.126  17.324  0.00  0.00    +0.000 OA
ATOM      4  N   UNL     1       2.420   7.570  18.723  0.00  0.00    +0.000 N 
ATOM      5  C   UNL     1       3.113   6.938  17.600  0.00  0.00    +0.000 C 
ATOM      6  C   UNL     1       4.489   6.413  17.956  0.00  0.00    +0.000 A 
ATOM      7  C   UNL     1       5.629   7.032  17.411  0.00  0.00    +0.000 A 
ATOM      8  C   UNL     1       6.906   6.553  17.700  0.00  0.00    +0.000 A 
ATOM      9  C   UNL     1       7.062   5.461  18.544  0.00  0.00    +0.000 A 
ATOM     10  C   UNL     1       5.940   4.846  19.102  0.00  0.00    +0.000 A 
ATOM     11  C   UNL     1       4.639   5.302  18.817  0.00  0.00    +0.000 A 
ATOM     12  C   UNL     1       3.459   4.635  19.409  0.00  0.00    +0.000 A 
ATOM     13  C   UNL     1       3.358   3.230  19.399  0.00  0.00    +0.000 A 
ATOM     14  C   UNL     1       2.237   2.578  19.916  0.00  0.00    +0.000 A 
ATOM     15  C   UNL     1       1.190   3.318  20.448  0.00  0.00    +0.000 A 
ATOM     16  C   UNL     1       1.262   4.710  20.467  0.00  0.00    +0.000 A 
ATOM     17  C   UNL     1       2.389   5.381  19.959  0.00  0.00    +0.000 A 
ATOM     18  C   UNL     1       2.444   6.896  20.026  0.00  0.00    +0.000 C 
ATOM     19  H   UNL     1       1.821   9.377  20.356  0.00  0.00    +0.000 HD
ENDROOT
BRANCH   1  20
ATOM     20  C   UNL     1       0.459  10.597  19.376  0.00  0.00    +0.000 C 
BRANCH  20  24
ATOM     21  C   UNL     1       3.584  14.623  19.758  0.00  0.00    +0.000 C 
ATOM     22  C   UNL     1       2.656  13.485  19.884  0.00  0.00    +0.000 A 
ATOM     23  C   UNL     1       2.065  12.624  18.993  0.00  0.00    +0.000 A 
ATOM     24  C   UNL     1       1.297  11.754  19.801  0.00  0.00    +0.000 A 
ATOM     25  N   UNL     1       1.406  12.077  21.100  0.00  0.00    +0.000 NA
ATOM     26  O   UNL     1       2.264  13.163  21.145  0.00  0.00    +0.000 OA
ENDBRANCH  20  24
ENDBRANCH   1  20
TORSDOF 2
ENDMDL
MODEL 4
REMARK VINA RESULT:      -8.8      2.033      4.346
REMARK  Name = 
REMARK  3 active torsions:
REMARK  status: ('A' for Active; 'I' for Inactive)
REMARK    1  A    between atoms: C_1  and  C_2
REMARK    2  A    between atoms: C_4  and  C_5
REMARK    3  A    between atoms: C_5  and  N_6
REMARK                            x       y       z     vdW  Elec       q    Type
REMARK                         _______ _______ _______ _____ _____    ______ ____
ROOT
ATOM      1  N   UNL     1       1.016   9.386  19.617  0.00  0.00    +0.000 N 
ATOM      2  C   UNL     1       1.525   8.361  20.369  0.00  0.00    +0.000 C 
ATOM      3  O   UNL     1       1.558   8.426  21.596  0.00  0.00    +0.000 OA
ATOM      4  N   UNL     1       1.987   7.271  19.655  0.00  0.00    +0.000 N 
ATOM      5  C   UNL     1       2.370   6.079  20.412  0.00  0.00    +0.000 C 
ATOM      6  C   UNL     1       1.966   4.781  19.741  0.00  0.00    +0.000 A 
ATOM      7  C   UNL     1       0.965   3.983  20.323  0.00  0.00    +0.000 A 
ATOM      8  C   UNL     1       0.593   2.771  19.742  0.00  0.00    +0.000 A 
ATOM      9  C   UNL     1       1.204   2.349  18.569  0.00  0.00    +0.000 A 
ATOM     10  C   UNL     1       2.189   3.138  17.973  0.00  0.00    +0.000 A 
ATOM     11  C   UNL     1       2.593   4.360  18.546  0.00  0.00    +0.000 A 
ATOM     12  C   UNL     1       3.643   5.181  17.907  0.00  0.00    +0.000 A 
ATOM     13  C   UNL     1       4.837   4.584  17.458  0.00  0.00    +0.000 A 
ATOM     14  C   UNL     1       5.861   5.343  16.888  0.00  0.00    +0.000 A 
ATOM     15  C   UNL     1       5.715   6.718  16.762  0.00  0.00    +0.000 A 
ATOM     16  C   UNL     1       4.546   7.336  17.203  0.00  0.00    +0.000 A 
ATOM     17  C   UNL     1       3.501   6.583  17.770  0.00  0.00    +0.000 A 
ATOM     18  C   UNL     1       2.231   7.288  18.208  0.00  0.00    +0.000 C 
ATOM     19  H   UNL     1       0.490   9.096  18.805  0.00  0.00    +0.000 HD
ENDROOT
BRANCH   1  20
ATOM     20  C   UNL     1       0.462  10.544  20.290  0.00  0.00    +0.000 C 
BRANCH  20  24
ATOM     21  C   UNL     1       3.293  14.275  18.244  0.00  0.00    +0.000 C 
ATOM     22  C   UNL     1       2.508  13.315  19.041  0.00  0.00    +0.000 A 
ATOM     23  C   UNL     1       1.774  12.193  18.743  0.00  0.00    +0.000 A 
ATOM     24  C   UNL     1       1.297  11.743  19.997  0.00  0.00    +0.000 A 
ATOM     25  N   UNL     1       1.707  12.549  20.989  0.00  0.00    +0.000 NA
ATOM     26  O   UNL     1       2.470  13.532  20.381  0.00  0.00    +0.000 OA
ENDBRANCH  20  24
ENDBRANCH   1  20
TORSDOF 2
ENDMDL
MODEL 5
REMARK VINA RESULT:      -8.7      1.109      1.155
REMARK  Name = 
REMARK  3 active torsions:
REMARK  status: ('A' for Active; 'I' for Inactive)
REMARK    1  A    between atoms: C_1  and  C_2
REMARK    2  A    between atoms: C_4  and  C_5
REMARK    3  A    between atoms: C_5  and  N_6
REMARK                            x       y       z     vdW  Elec       q    Type
REMARK                         _______ _______ _______ _____ _____    ______ ____
ROOT
ATOM      1  N   UNL     1       1.380   9.470  19.370  0.00  0.00    +0.000 N 
ATOM      2  C   UNL     1       1.857   8.756  18.303  0.00  0.00    +0.000 C 
ATOM      3  O   UNL     1       1.668   9.131  17.148  0.00  0.00    +0.000 OA
ATOM      4  N   UNL     1       2.554   7.604  18.622  0.00  0.00    +0.000 N 
ATOM      5  C   UNL     1       3.239   6.905  17.534  0.00  0.00    +0.000 C 
ATOM      6  C   UNL     1       4.593   6.351  17.930  0.00  0.00    +0.000 A 
ATOM      7  C   UNL     1       5.759   6.910  17.377  0.00  0.00    +0.000 A 
ATOM      8  C   UNL     1       7.017   6.402  17.702  0.00  0.00    +0.000 A 
ATOM      9  C   UNL     1       7.126   5.342  18.592  0.00  0.00    +0.000 A 
ATOM     10  C   UNL     1       5.978   4.786  19.158  0.00  0.00    +0.000 A 
ATOM     11  C   UNL     1       4.696   5.272  18.838  0.00  0.00    +0.000 A 
ATOM     12  C   UNL     1       3.488   4.668  19.440  0.00  0.00    +0.000 A 
ATOM     13  C   UNL     1       3.341   3.268  19.486  0.00  0.00    +0.000 A 
ATOM     14  C   UNL     1       2.193   2.674  20.013  0.00  0.00    +0.000 A 
ATOM     15  C   UNL     1       1.164   3.469  20.501  0.00  0.00    +0.000 A 
ATOM     16  C   UNL     1       1.281   4.857  20.464  0.00  0.00    +0.000 A 
ATOM     17  C   UNL     1       2.436   5.470  19.945  0.00  0.00    +0.000 A 
ATOM     18  C   UNL     1       2.540   6.984  19.951  0.00  0.00    +0.000 C 
ATOM     19  H   UNL     1       1.994   9.495  20.172  0.00  0.00    +0.000 HD
ENDROOT
BRANCH   1  20
ATOM     20  C   UNL     1       0.685  10.717  19.125  0.00  0.00    +0.000 C 
BRANCH  20  24
ATOM     21  C   UNL     1      -2.197  12.093  23.116  0.00  0.00    +0.000 C 
ATOM     22  C   UNL     1      -1.185  11.797  22.085  0.00  0.00    +0.000 A 
ATOM     23  C   UNL     1      -1.202  11.122  20.890  0.00  0.00    +0.000 A 
ATOM     24  C   UNL     1       0.122  11.238  20.403  0.00  0.00    +0.000 A 
ATOM     25  N   UNL     1       0.893  11.929  21.257  0.00  0.00    +0.000 NA
ATOM     26  O   UNL     1       0.064  12.280  22.309  0.00  0.00    +0.000 OA
ENDBRANCH  20  24
ENDBRANCH   1  20
TORSDOF 2
ENDMDL
MODEL 6
REMARK VINA RESULT:      -8.6      1.803      2.309
REMARK  Name = 
REMARK  3 active torsions:
REMARK  status: ('A' for Active; 'I' for Inactive)
REMARK    1  A    between atoms: C_1  and  C_2
REMARK    2  A    between atoms: C_4  and  C_5
REMARK    3  A    between atoms: C_5  and  N_6
REMARK                            x       y       z     vdW  Elec       q    Type
REMARK                         _______ _______ _______ _____ _____    ______ ____
ROOT
ATOM      1  N   UNL     1       1.639   9.141  19.316  0.00  0.00    +0.000 N 
ATOM      2  C   UNL     1       2.321   8.818  18.174  0.00  0.00    +0.000 C 
ATOM      3  O   UNL     1       2.355   9.583  17.212  0.00  0.00    +0.000 OA
ATOM      4  N   UNL     1       2.956   7.589  18.188  0.00  0.00    +0.000 N 
ATOM      5  C   UNL     1       3.847   7.275  17.070  0.00  0.00    +0.000 C 
ATOM      6  C   UNL     1       5.106   6.541  17.488  0.00  0.00    +0.000 A 
ATOM      7  C   UNL     1       6.350   7.190  17.394  0.00  0.00    +0.000 A 
ATOM      8  C   UNL     1       7.527   6.530  17.745  0.00  0.00    +0.000 A 
ATOM      9  C   UNL     1       7.475   5.221  18.207  0.00  0.00    +0.000 A 
ATOM     10  C   UNL     1       6.245   4.570  18.318  0.00  0.00    +0.000 A 
ATOM     11  C   UNL     1       5.044   5.209  17.958  0.00  0.00    +0.000 A 
ATOM     12  C   UNL     1       3.749   4.503  18.074  0.00  0.00    +0.000 A 
ATOM     13  C   UNL     1       3.613   3.186  17.593  0.00  0.00    +0.000 A 
ATOM     14  C   UNL     1       2.392   2.512  17.655  0.00  0.00    +0.000 A 
ATOM     15  C   UNL     1       1.279   3.145  18.192  0.00  0.00    +0.000 A 
ATOM     16  C   UNL     1       1.384   4.450  18.671  0.00  0.00    +0.000 A 
ATOM     17  C   UNL     1       2.610   5.138  18.625  0.00  0.00    +0.000 A 
ATOM     18  C   UNL     1       2.693   6.546  19.185  0.00  0.00    +0.000 C 
ATOM     19  H   UNL     1       2.085   8.850  20.174  0.00  0.00    +0.000 HD
ENDROOT
BRANCH   1  20
ATOM     20  C   UNL     1       0.988  10.433  19.403  0.00  0.00    +0.000 C 
BRANCH  20  24
ATOM     21  C   UNL     1      -3.158   9.651  16.519  0.00  0.00    +0.000 C 
ATOM     22  C   UNL     1      -2.113   9.979  17.506  0.00  0.00    +0.000 A 
ATOM     23  C   UNL     1      -0.764   9.738  17.592  0.00  0.00    +0.000 A 
ATOM     24  C   UNL     1      -0.374  10.352  18.806  0.00  0.00    +0.000 A 
ATOM     25  N   UNL     1      -1.425  10.917  19.422  0.00  0.00    +0.000 NA
ATOM     26  O   UNL     1      -2.513  10.681  18.598  0.00  0.00    +0.000 OA
ENDBRANCH  20  24
ENDBRANCH   1  20
TORSDOF 2
ENDMDL
MODEL 7
REMARK VINA RESULT:      -8.6      1.990      4.251
REMARK  Name = 
REMARK  3 active torsions:
REMARK  status: ('A' for Active; 'I' for Inactive)
REMARK    1  A    between atoms: C_1  and  C_2
REMARK    2  A    between atoms: C_4  and  C_5
REMARK    3  A    between atoms: C_5  and  N_6
REMARK                            x       y       z     vdW  Elec       q    Type
REMARK                         _______ _______ _______ _____ _____    ______ ____
ROOT
ATOM      1  N   UNL     1       1.588   9.234  18.238  0.00  0.00    +0.000 N 
ATOM      2  C   UNL     1       1.849   8.277  19.182  0.00  0.00    +0.000 C 
ATOM      3  O   UNL     1       1.443   8.392  20.336  0.00  0.00    +0.000 OA
ATOM      4  N   UNL     1       2.589   7.194  18.742  0.00  0.00    +0.000 N 
ATOM      5  C   UNL     1       2.739   6.061  19.656  0.00  0.00    +0.000 C 
ATOM      6  C   UNL     1       2.664   4.714  18.966  0.00  0.00    +0.000 A 
ATOM      7  C   UNL     1       1.564   3.872  19.208  0.00  0.00    +0.000 A 
ATOM      8  C   UNL     1       1.483   2.615  18.608  0.00  0.00    +0.000 A 
ATOM      9  C   UNL     1       2.490   2.191  17.751  0.00  0.00    +0.000 A 
ATOM     10  C   UNL     1       3.581   3.023  17.492  0.00  0.00    +0.000 A 
ATOM     11  C   UNL     1       3.693   4.290  18.094  0.00  0.00    +0.000 A 
ATOM     12  C   UNL     1       4.859   5.157  17.816  0.00  0.00    +0.000 A 
ATOM     13  C   UNL     1       6.163   4.626  17.851  0.00  0.00    +0.000 A 
ATOM     14  C   UNL     1       7.282   5.431  17.631  0.00  0.00    +0.000 A 
ATOM     15  C   UNL     1       7.121   6.787  17.378  0.00  0.00    +0.000 A 
ATOM     16  C   UNL     1       5.842   7.339  17.343  0.00  0.00    +0.000 A 
ATOM     17  C   UNL     1       4.704   6.539  17.552  0.00  0.00    +0.000 A 
ATOM     18  C   UNL     1       3.327   7.171  17.474  0.00  0.00    +0.000 C 
ATOM     19  H   UNL     1       1.398   8.877  17.312  0.00  0.00    +0.000 HD
ENDROOT
BRANCH   1  20
ATOM     20  C   UNL     1       0.774  10.377  18.602  0.00  0.00    +0.000 C 
BRANCH  20  24
ATOM     21  C   UNL     1       3.080  14.734  19.950  0.00  0.00    +0.000 C 
ATOM     22  C   UNL     1       2.576  13.469  19.385  0.00  0.00    +0.000 A 
ATOM     23  C   UNL     1       1.594  12.580  19.746  0.00  0.00    +0.000 A 
ATOM     24  C   UNL     1       1.636  11.584  18.742  0.00  0.00    +0.000 A 
ATOM     25  N   UNL     1       2.593  11.848  17.838  0.00  0.00    +0.000 NA
ATOM     26  O   UNL     1       3.177  13.035  18.247  0.00  0.00    +0.000 OA
ENDBRANCH  20  24
ENDBRANCH   1  20
TORSDOF 2
ENDMDL
MODEL 8
REMARK VINA RESULT:      -8.5      1.929      4.091
REMARK  Name = 
REMARK  3 active torsions:
REMARK  status: ('A' for Active; 'I' for Inactive)
REMARK    1  A    between atoms: C_1  and  C_2
REMARK    2  A    between atoms: C_4  and  C_5
REMARK    3  A    between atoms: C_5  and  N_6
REMARK                            x       y       z     vdW  Elec       q    Type
REMARK                         _______ _______ _______ _____ _____    ______ ____
ROOT
ATOM      1  N   UNL     1       1.140   9.435  19.666  0.00  0.00    +0.000 N 
ATOM      2  C   UNL     1       1.636   8.392  20.401  0.00  0.00    +0.000 C 
ATOM      3  O   UNL     1       1.704   8.451  21.627  0.00  0.00    +0.000 OA
ATOM      4  N   UNL     1       2.046   7.292  19.671  0.00  0.00    +0.000 N 
ATOM      5  C   UNL     1       2.412   6.085  20.413  0.00  0.00    +0.000 C 
ATOM      6  C   UNL     1       1.950   4.803  19.748  0.00  0.00    +0.000 A 
ATOM      7  C   UNL     1       0.941   4.033  20.354  0.00  0.00    +0.000 A 
ATOM      8  C   UNL     1       0.517   2.836  19.780  0.00  0.00    +0.000 A 
ATOM      9  C   UNL     1       1.083   2.400  18.589  0.00  0.00    +0.000 A 
ATOM     10  C   UNL     1       2.076   3.161  17.970  0.00  0.00    +0.000 A 
ATOM     11  C   UNL     1       2.532   4.368  18.536  0.00  0.00    +0.000 A 
ATOM     12  C   UNL     1       3.590   5.159  17.873  0.00  0.00    +0.000 A 
ATOM     13  C   UNL     1       4.753   4.527  17.390  0.00  0.00    +0.000 A 
ATOM     14  C   UNL     1       5.783   5.257  16.795  0.00  0.00    +0.000 A 
ATOM     15  C   UNL     1       5.677   6.637  16.678  0.00  0.00    +0.000 A 
ATOM     16  C   UNL     1       4.539   7.288  17.152  0.00  0.00    +0.000 A 
ATOM     17  C   UNL     1       3.488   6.565  17.744  0.00  0.00    +0.000 A 
ATOM     18  C   UNL     1       2.252   7.307  18.218  0.00  0.00    +0.000 C 
ATOM     19  H   UNL     1       0.584   9.165  18.867  0.00  0.00    +0.000 HD
ENDROOT
BRANCH   1  20
ATOM     20  C   UNL     1       0.640  10.607  20.358  0.00  0.00    +0.000 C 
BRANCH  20  24
ATOM     21  C   UNL     1      -4.023  12.485  19.434  0.00  0.00    +0.000 C 
ATOM     22  C   UNL     1      -2.707  11.824  19.495  0.00  0.00    +0.000 A 
ATOM     23  C   UNL     1      -1.636  11.894  20.352  0.00  0.00    +0.000 A 
ATOM     24  C   UNL     1      -0.702  10.971  19.823  0.00  0.00    +0.000 A 
ATOM     25  N   UNL     1      -1.175  10.389  18.709  0.00  0.00    +0.000 NA
ATOM     26  O   UNL     1      -2.435  10.928  18.511  0.00  0.00    +0.000 OA
ENDBRANCH  20  24
ENDBRANCH   1  20
TORSDOF 2
ENDMDL
MODEL 9
REMARK VINA RESULT:      -7.7      2.859      8.511
REMARK  Name = 
REMARK  3 active torsions:
REMARK  status: ('A' for Active; 'I' for Inactive)
REMARK    1  A    between atoms: C_1  and  C_2
REMARK    2  A    between atoms: C_4  and  C_5
REMARK    3  A    between atoms: C_5  and  N_6
REMARK                            x       y       z     vdW  Elec       q    Type
REMARK                         _______ _______ _______ _____ _____    ______ ____
ROOT
ATOM      1  N   UNL     1       1.563   8.287  19.301  0.00  0.00    +0.000 N 
ATOM      2  C   UNL     1       1.281   9.364  18.504  0.00  0.00    +0.000 C 
ATOM      3  O   UNL     1       1.990   9.649  17.542  0.00  0.00    +0.000 OA
ATOM      4  N   UNL     1       0.158  10.090  18.860  0.00  0.00    +0.000 N 
ATOM      5  C   UNL     1      -0.291  11.136  17.940  0.00  0.00    +0.000 C 
ATOM      6  C   UNL     1      -1.799  11.219  17.810  0.00  0.00    +0.000 A 
ATOM      7  C   UNL     1      -2.411  10.856  16.597  0.00  0.00    +0.000 A 
ATOM      8  C   UNL     1      -3.793  10.949  16.440  0.00  0.00    +0.000 A 
ATOM      9  C   UNL     1      -4.581  11.394  17.494  0.00  0.00    +0.000 A 
ATOM     10  C   UNL     1      -3.987  11.745  18.708  0.00  0.00    +0.000 A 
ATOM     11  C   UNL     1      -2.593  11.672  18.888  0.00  0.00    +0.000 A 
ATOM     12  C   UNL     1      -1.978  12.056  20.177  0.00  0.00    +0.000 A 
ATOM     13  C   UNL     1      -2.361  13.250  20.819  0.00  0.00    +0.000 A 
ATOM     14  C   UNL     1      -1.768  13.654  22.016  0.00  0.00    +0.000 A 
ATOM     15  C   UNL     1      -0.772  12.876  22.593  0.00  0.00    +0.000 A 
ATOM     16  C   UNL     1      -0.371  11.692  21.976  0.00  0.00    +0.000 A 
ATOM     17  C   UNL     1      -0.966  11.267  20.775  0.00  0.00    +0.000 A 
ATOM     18  C   UNL     1      -0.525   9.956  20.151  0.00  0.00    +0.000 C 
ATOM     19  H   UNL     1       0.754   7.777  19.627  0.00  0.00    +0.000 HD
ENDROOT
BRANCH   1  20
ATOM     20  C   UNL     1       2.692   7.443  18.967  0.00  0.00    +0.000 C 
BRANCH  20  24
ATOM     21  C   UNL     1       1.358   3.070  21.253  0.00  0.00    +0.000 C 
ATOM     22  C   UNL     1       1.802   4.193  20.407  0.00  0.00    +0.000 A 
ATOM     23  C   UNL     1       1.818   5.558  20.555  0.00  0.00    +0.000 A 
ATOM     24  C   UNL     1       2.398   6.034  19.355  0.00  0.00    +0.000 A 
ATOM     25  N   UNL     1       2.702   5.021  18.529  0.00  0.00    +0.000 NA
ATOM     26  O   UNL     1       2.328   3.867  19.198  0.00  0.00    +0.000 OA
ENDBRANCH  20  24
ENDBRANCH   1  20
TORSDOF 2
ENDMDL
