MODEL 1
REMARK VINA RESULT:      -8.6      0.000      0.000
REMARK  Name = 
REMARK  6 active torsions:
REMARK  status: ('A' for Active; 'I' for Inactive)
REMARK    1  A    between atoms: C_1  and  N_2
REMARK    2  A    between atoms: C_6  and  C_7
REMARK    3  A    between atoms: C_7  and  C_8
REMARK    4  A    between atoms: C_8  and  C_9
REMARK    5  A    between atoms: C_13  and  N_14
REMARK    6  A    between atoms: C_19  and  C_20
REMARK                            x       y       z     vdW  Elec       q    Type
REMARK                         _______ _______ _______ _____ _____    ______ ____
ROOT
ATOM      1  C   UNL     1       1.818   7.194  20.271  0.00  0.00    +0.000 A 
ATOM      2  C   UNL     1       1.360   6.006  20.864  0.00  0.00    +0.000 A 
ATOM      3  C   UNL     1       1.967   4.780  20.601  0.00  0.00    +0.000 A 
ATOM      4  C   UNL     1       3.069   4.705  19.747  0.00  0.00    +0.000 A 
ATOM      5  C   UNL     1       3.598   5.856  19.161  0.00  0.00    +0.000 A 
ATOM      6  C   UNL     1       2.957   7.074  19.444  0.00  0.00    +0.000 A 
ENDROOT
BRANCH   5   7
ATOM      7  N   UNL     1       4.728   5.830  18.293  0.00  0.00    +0.000 N 
ATOM      8  C   UNL     1       4.607   6.235  16.879  0.00  0.00    +0.000 C 
ATOM      9  C   UNL     1       5.978   5.897  16.385  0.00  0.00    +0.000 C 
ATOM     10  C   UNL     1       6.815   5.545  17.368  0.00  0.00    +0.000 C 
ATOM     11  N   UNL     1       7.442   4.578  16.548  0.00  0.00    +0.000 NA
ATOM     12  C   UNL     1       6.672   4.934  15.567  0.00  0.00    +0.000 C 
ATOM     13  C   UNL     1       6.046   5.435  18.653  0.00  0.00    +0.000 C 
ATOM     14  O   UNL     1       6.466   5.070  19.739  0.00  0.00    +0.000 OA
BRANCH  12  15
ATOM     15  C   UNL     1       6.435   4.484  14.175  0.00  0.00    +0.000 C 
ATOM     16  F   UNL     1       6.584   3.136  14.037  0.00  0.00    +0.000 F 
ATOM     17  F   UNL     1       5.183   4.777  13.735  0.00  0.00    +0.000 F 
ATOM     18  F   UNL     1       7.299   5.051  13.290  0.00  0.00    +0.000 F 
ENDBRANCH  12  15
ENDBRANCH   5   7
BRANCH   1  19
ATOM     19  C   UNL     1       1.083   8.623  20.485  0.00  0.00    +0.000 C 
ATOM     20  C   UNL     1      -0.349   8.591  21.143  0.00  0.00    +0.000 C 
ATOM     21  C   UNL     1       0.277   8.931  22.498  0.00  0.00    +0.000 C 
ATOM     22  C   UNL     1       1.536   9.415  21.771  0.00  0.00    +0.000 C 
BRANCH  19  23
ATOM     23  C   UNL     1       1.180   9.494  19.205  0.00  0.00    +0.000 C 
BRANCH  23  29
ATOM     24  C   UNL     1      -1.495  10.054  17.633  0.00  0.00    +0.000 C 
ATOM     25  N   UNL     1      -0.809  10.950  18.525  0.00  0.00    +0.000 N 
ATOM     26  C   UNL     1      -1.208  12.220  18.814  0.00  0.00    +0.000 A 
ATOM     27  N   UNL     1      -0.342  12.781  19.622  0.00  0.00    +0.000 NA
ATOM     28  N   UNL     1       0.652  11.865  19.861  0.00  0.00    +0.000 NA
ATOM     29  C   UNL     1       0.359  10.747  19.223  0.00  0.00    +0.000 A 
ENDBRANCH  23  29
ENDBRANCH  19  23
ENDBRANCH   1  19
TORSDOF 5
ENDMDL
MODEL 2
REMARK VINA RESULT:      -8.6      0.511      1.105
REMARK  Name = 
REMARK  6 active torsions:
REMARK  status: ('A' for Active; 'I' for Inactive)
REMARK    1  A    between atoms: C_1  and  N_2
REMARK    2  A    between atoms: C_6  and  C_7
REMARK    3  A    between atoms: C_7  and  C_8
REMARK    4  A    between atoms: C_8  and  C_9
REMARK    5  A    between atoms: C_13  and  N_14
REMARK    6  A    between atoms: C_19  and  C_20
REMARK                            x       y       z     vdW  Elec       q    Type
REMARK                         _______ _______ _______ _____ _____    ______ ____
ROOT
ATOM      1  C   UNL     1       1.817   7.206  20.268  0.00  0.00    +0.000 A 
ATOM      2  C   UNL     1       1.346   6.016  20.845  0.00  0.00    +0.000 A 
ATOM      3  C   UNL     1       1.945   4.787  20.571  0.00  0.00    +0.000 A 
ATOM      4  C   UNL     1       3.050   4.714  19.721  0.00  0.00    +0.000 A 
ATOM      5  C   UNL     1       3.591   5.866  19.151  0.00  0.00    +0.000 A 
ATOM      6  C   UNL     1       2.959   7.086  19.444  0.00  0.00    +0.000 A 
ENDROOT
BRANCH   5   7
ATOM      7  N   UNL     1       4.725   5.841  18.288  0.00  0.00    +0.000 N 
ATOM      8  C   UNL     1       4.611   6.247  16.874  0.00  0.00    +0.000 C 
ATOM      9  C   UNL     1       5.984   5.909  16.386  0.00  0.00    +0.000 C 
ATOM     10  C   UNL     1       6.816   5.555  17.373  0.00  0.00    +0.000 C 
ATOM     11  N   UNL     1       7.446   4.589  16.555  0.00  0.00    +0.000 NA
ATOM     12  C   UNL     1       6.682   4.947  15.570  0.00  0.00    +0.000 C 
ATOM     13  C   UNL     1       6.041   5.444  18.654  0.00  0.00    +0.000 C 
ATOM     14  O   UNL     1       6.456   5.077  19.742  0.00  0.00    +0.000 OA
BRANCH  12  15
ATOM     15  C   UNL     1       6.450   4.499  14.177  0.00  0.00    +0.000 C 
ATOM     16  F   UNL     1       6.629   3.156  14.031  0.00  0.00    +0.000 F 
ATOM     17  F   UNL     1       5.191   4.766  13.741  0.00  0.00    +0.000 F 
ATOM     18  F   UNL     1       7.300   5.090  13.293  0.00  0.00    +0.000 F 
ENDBRANCH  12  15
ENDBRANCH   5   7
BRANCH   1  19
ATOM     19  C   UNL     1       1.093   8.639  20.494  0.00  0.00    +0.000 C 
ATOM     20  C   UNL     1      -0.356   8.610  21.115  0.00  0.00    +0.000 C 
ATOM     21  C   UNL     1       0.239   8.914  22.492  0.00  0.00    +0.000 C 
ATOM     22  C   UNL     1       1.522   9.398  21.807  0.00  0.00    +0.000 C 
BRANCH  19  23
ATOM     23  C   UNL     1       1.231   9.536  19.235  0.00  0.00    +0.000 C 
BRANCH  23  29
ATOM     24  C   UNL     1       0.725  12.467  20.282  0.00  0.00    +0.000 C 
ATOM     25  N   UNL     1      -0.128  11.693  19.419  0.00  0.00    +0.000 N 
ATOM     26  C   UNL     1      -1.329  12.113  18.931  0.00  0.00    +0.000 A 
ATOM     27  N   UNL     1      -1.872  11.156  18.217  0.00  0.00    +0.000 NA
ATOM     28  N   UNL     1      -1.015  10.084  18.244  0.00  0.00    +0.000 NA
ATOM     29  C   UNL     1       0.053  10.414  18.946  0.00  0.00    +0.000 A 
ENDBRANCH  23  29
ENDBRANCH  19  23
ENDBRANCH   1  19
TORSDOF 5
ENDMDL
MODEL 3
REMARK VINA RESULT:      -8.5      4.466      8.777
REMARK  Name = 
REMARK  6 active torsions:
REMARK  status: ('A' for Active; 'I' for Inactive)
REMARK    1  A    between atoms: C_1  and  N_2
REMARK    2  A    between atoms: C_6  and  C_7
REMARK    3  A    between atoms: C_7  and  C_8
REMARK    4  A    between atoms: C_8  and  C_9
REMARK    5  A    between atoms: C_13  and  N_14
REMARK    6  A    between atoms: C_19  and  C_20
REMARK                            x       y       z     vdW  Elec       q    Type
REMARK                         _______ _______ _______ _____ _____    ______ ____
ROOT
ATOM      1  C   UNL     1       4.494   5.042  17.267  0.00  0.00    +0.000 A 
ATOM      2  C   UNL     1       3.586   3.989  17.072  0.00  0.00    +0.000 A 
ATOM      3  C   UNL     1       2.277   4.057  17.546  0.00  0.00    +0.000 A 
ATOM      4  C   UNL     1       1.828   5.196  18.219  0.00  0.00    +0.000 A 
ATOM      5  C   UNL     1       2.670   6.293  18.406  0.00  0.00    +0.000 A 
ATOM      6  C   UNL     1       3.983   6.187  17.920  0.00  0.00    +0.000 A 
ENDROOT
BRANCH   5   7
ATOM      7  N   UNL     1       2.252   7.480  19.075  0.00  0.00    +0.000 N 
ATOM      8  C   UNL     1       2.248   7.558  20.549  0.00  0.00    +0.000 C 
ATOM      9  C   UNL     1       1.609   8.896  20.745  0.00  0.00    +0.000 C 
ATOM     10  C   UNL     1       1.449   9.570  19.600  0.00  0.00    +0.000 C 
ATOM     11  N   UNL     1       0.215  10.107  20.038  0.00  0.00    +0.000 NA
ATOM     12  C   UNL     1       0.372   9.500  21.173  0.00  0.00    +0.000 C 
ATOM     13  C   UNL     1       1.810   8.678  18.448  0.00  0.00    +0.000 C 
ATOM     14  O   UNL     1       1.719   8.931  17.258  0.00  0.00    +0.000 OA
BRANCH  12  15
ATOM     15  C   UNL     1      -0.423   9.324  22.412  0.00  0.00    +0.000 C 
ATOM     16  F   UNL     1      -1.309  10.341  22.604  0.00  0.00    +0.000 F 
ATOM     17  F   UNL     1      -1.152   8.177  22.409  0.00  0.00    +0.000 F 
ATOM     18  F   UNL     1       0.355   9.286  23.527  0.00  0.00    +0.000 F 
ENDBRANCH  12  15
ENDBRANCH   5   7
BRANCH   1  19
ATOM     19  C   UNL     1       6.046   4.961  16.806  0.00  0.00    +0.000 C 
ATOM     20  C   UNL     1       6.817   6.330  16.670  0.00  0.00    +0.000 C 
ATOM     21  C   UNL     1       7.422   6.115  18.061  0.00  0.00    +0.000 C 
ATOM     22  C   UNL     1       7.064   4.628  17.962  0.00  0.00    +0.000 C 
BRANCH  19  23
ATOM     23  C   UNL     1       6.216   4.009  15.593  0.00  0.00    +0.000 C 
BRANCH  23  29
ATOM     24  C   UNL     1       5.778   3.305  12.551  0.00  0.00    +0.000 C 
ATOM     25  N   UNL     1       6.695   4.270  13.095  0.00  0.00    +0.000 N 
ATOM     26  C   UNL     1       7.555   5.029  12.359  0.00  0.00    +0.000 A 
ATOM     27  N   UNL     1       8.281   5.771  13.160  0.00  0.00    +0.000 NA
ATOM     28  N   UNL     1       7.898   5.488  14.447  0.00  0.00    +0.000 NA
ATOM     29  C   UNL     1       6.920   4.602  14.411  0.00  0.00    +0.000 A 
ENDBRANCH  23  29
ENDBRANCH  19  23
ENDBRANCH   1  19
TORSDOF 5
ENDMDL
MODEL 4
REMARK VINA RESULT:      -8.4      4.429      8.321
REMARK  Name = 
REMARK  6 active torsions:
REMARK  status: ('A' for Active; 'I' for Inactive)
REMARK    1  A    between atoms: C_1  and  N_2
REMARK    2  A    between atoms: C_6  and  C_7
REMARK    3  A    between atoms: C_7  and  C_8
REMARK    4  A    between atoms: C_8  and  C_9
REMARK    5  A    between atoms: C_13  and  N_14
REMARK    6  A    between atoms: C_19  and  C_20
REMARK                            x       y       z     vdW  Elec       q    Type
REMARK                         _______ _______ _______ _____ _____    ______ ____
ROOT
ATOM      1  C   UNL     1       4.176   4.600  16.988  0.00  0.00    +0.000 A 
ATOM      2  C   UNL     1       3.268   3.531  17.042  0.00  0.00    +0.000 A 
ATOM      3  C   UNL     1       2.074   3.624  17.755  0.00  0.00    +0.000 A 
ATOM      4  C   UNL     1       1.743   4.803  18.426  0.00  0.00    +0.000 A 
ATOM      5  C   UNL     1       2.583   5.915  18.375  0.00  0.00    +0.000 A 
ATOM      6  C   UNL     1       3.780   5.783  17.651  0.00  0.00    +0.000 A 
ENDROOT
BRANCH   5   7
ATOM      7  N   UNL     1       2.280   7.142  19.033  0.00  0.00    +0.000 N 
ATOM      8  C   UNL     1       2.200   7.212  20.505  0.00  0.00    +0.000 C 
ATOM      9  C   UNL     1       1.725   8.621  20.680  0.00  0.00    +0.000 C 
ATOM     10  C   UNL     1       1.718   9.315  19.536  0.00  0.00    +0.000 C 
ATOM     11  N   UNL     1       0.539  10.002  19.909  0.00  0.00    +0.000 NA
ATOM     12  C   UNL     1       0.551   9.374  21.043  0.00  0.00    +0.000 C 
ATOM     13  C   UNL     1       2.031   8.389  18.396  0.00  0.00    +0.000 C 
ATOM     14  O   UNL     1       2.043   8.657  17.206  0.00  0.00    +0.000 OA
BRANCH  12  15
ATOM     15  C   UNL     1      -0.330   9.294  22.232  0.00  0.00    +0.000 C 
ATOM     16  F   UNL     1      -1.155  10.374  22.335  0.00  0.00    +0.000 F 
ATOM     17  F   UNL     1      -1.135   8.199  22.217  0.00  0.00    +0.000 F 
ATOM     18  F   UNL     1       0.371   9.244  23.397  0.00  0.00    +0.000 F 
ENDBRANCH  12  15
ENDBRANCH   5   7
BRANCH   1  19
ATOM     19  C   UNL     1       5.611   4.497  16.241  0.00  0.00    +0.000 C 
ATOM     20  C   UNL     1       5.777   3.342  15.181  0.00  0.00    +0.000 C 
ATOM     21  C   UNL     1       5.485   4.343  14.060  0.00  0.00    +0.000 C 
ATOM     22  C   UNL     1       5.800   5.488  15.029  0.00  0.00    +0.000 C 
BRANCH  19  23
ATOM     23  C   UNL     1       6.776   4.601  17.261  0.00  0.00    +0.000 C 
BRANCH  23  29
ATOM     24  C   UNL     1       8.131   5.711  19.883  0.00  0.00    +0.000 C 
ATOM     25  N   UNL     1       7.880   6.432  18.663  0.00  0.00    +0.000 N 
ATOM     26  C   UNL     1       8.174   7.747  18.461  0.00  0.00    +0.000 A 
ATOM     27  N   UNL     1       7.777   8.107  17.265  0.00  0.00    +0.000 NA
ATOM     28  N   UNL     1       7.203   7.010  16.672  0.00  0.00    +0.000 NA
ATOM     29  C   UNL     1       7.288   5.988  17.504  0.00  0.00    +0.000 A 
ENDBRANCH  23  29
ENDBRANCH  19  23
ENDBRANCH   1  19
TORSDOF 5
ENDMDL
MODEL 5
REMARK VINA RESULT:      -8.1      2.628      4.700
REMARK  Name = 
REMARK  6 active torsions:
REMARK  status: ('A' for Active; 'I' for Inactive)
REMARK    1  A    between atoms: C_1  and  N_2
REMARK    2  A    between atoms: C_6  and  C_7
REMARK    3  A    between atoms: C_7  and  C_8
REMARK    4  A    between atoms: C_8  and  C_9
REMARK    5  A    between atoms: C_13  and  N_14
REMARK    6  A    between atoms: C_19  and  C_20
REMARK                            x       y       z     vdW  Elec       q    Type
REMARK                         _______ _______ _______ _____ _____    ______ ____
ROOT
ATOM      1  C   UNL     1       4.443   4.916  18.234  0.00  0.00    +0.000 A 
ATOM      2  C   UNL     1       5.592   4.998  19.038  0.00  0.00    +0.000 A 
ATOM      3  C   UNL     1       6.871   4.895  18.494  0.00  0.00    +0.000 A 
ATOM      4  C   UNL     1       7.042   4.721  17.118  0.00  0.00    +0.000 A 
ATOM      5  C   UNL     1       5.941   4.675  16.262  0.00  0.00    +0.000 A 
ATOM      6  C   UNL     1       4.667   4.777  16.846  0.00  0.00    +0.000 A 
ENDROOT
BRANCH   5   7
ATOM      7  N   UNL     1       6.068   4.512  14.852  0.00  0.00    +0.000 N 
ATOM      8  C   UNL     1       5.048   3.776  14.079  0.00  0.00    +0.000 C 
ATOM      9  C   UNL     1       5.696   3.758  12.731  0.00  0.00    +0.000 C 
ATOM     10  C   UNL     1       6.798   4.514  12.671  0.00  0.00    +0.000 C 
ATOM     11  N   UNL     1       7.438   3.591  11.810  0.00  0.00    +0.000 NA
ATOM     12  C   UNL     1       6.363   2.866  11.816  0.00  0.00    +0.000 C 
ATOM     13  C   UNL     1       7.131   5.008  14.049  0.00  0.00    +0.000 C 
ATOM     14  O   UNL     1       8.104   5.664  14.386  0.00  0.00    +0.000 OA
BRANCH  12  15
ATOM     15  C   UNL     1       5.952   1.557  11.255  0.00  0.00    +0.000 C 
ATOM     16  F   UNL     1       4.694   1.594  10.731  0.00  0.00    +0.000 F 
ATOM     17  F   UNL     1       6.770   1.133  10.256  0.00  0.00    +0.000 F 
ATOM     18  F   UNL     1       5.941   0.570  12.192  0.00  0.00    +0.000 F 
ENDBRANCH  12  15
ENDBRANCH   5   7
BRANCH   1  19
ATOM     19  C   UNL     1       2.941   4.945  18.842  0.00  0.00    +0.000 C 
ATOM     20  C   UNL     1       1.762   4.676  17.831  0.00  0.00    +0.000 C 
ATOM     21  C   UNL     1       1.711   3.218  18.295  0.00  0.00    +0.000 C 
ATOM     22  C   UNL     1       2.488   3.614  19.555  0.00  0.00    +0.000 C 
BRANCH  19  23
ATOM     23  C   UNL     1       2.734   6.187  19.750  0.00  0.00    +0.000 C 
BRANCH  23  29
ATOM     24  C   UNL     1       1.016   8.597  20.836  0.00  0.00    +0.000 C 
ATOM     25  N   UNL     1       1.635   8.485  19.542  0.00  0.00    +0.000 N 
ATOM     26  C   UNL     1       1.547   9.419  18.554  0.00  0.00    +0.000 A 
ATOM     27  N   UNL     1       2.182   8.993  17.489  0.00  0.00    +0.000 NA
ATOM     28  N   UNL     1       2.689   7.750  17.780  0.00  0.00    +0.000 NA
ATOM     29  C   UNL     1       2.384   7.452  19.030  0.00  0.00    +0.000 A 
ENDBRANCH  23  29
ENDBRANCH  19  23
ENDBRANCH   1  19
TORSDOF 5
ENDMDL
MODEL 6
REMARK VINA RESULT:      -8.1      3.880      5.763
REMARK  Name = 
REMARK  6 active torsions:
REMARK  status: ('A' for Active; 'I' for Inactive)
REMARK    1  A    between atoms: C_1  and  N_2
REMARK    2  A    between atoms: C_6  and  C_7
REMARK    3  A    between atoms: C_7  and  C_8
REMARK    4  A    between atoms: C_8  and  C_9
REMARK    5  A    between atoms: C_13  and  N_14
REMARK    6  A    between atoms: C_19  and  C_20
REMARK                            x       y       z     vdW  Elec       q    Type
REMARK                         _______ _______ _______ _____ _____    ______ ____
ROOT
ATOM      1  C   UNL     1       4.205   5.470  18.056  0.00  0.00    +0.000 A 
ATOM      2  C   UNL     1       5.263   5.286  18.961  0.00  0.00    +0.000 A 
ATOM      3  C   UNL     1       6.523   4.868  18.534  0.00  0.00    +0.000 A 
ATOM      4  C   UNL     1       6.769   4.636  17.179  0.00  0.00    +0.000 A 
ATOM      5  C   UNL     1       5.771   4.844  16.227  0.00  0.00    +0.000 A 
ATOM      6  C   UNL     1       4.513   5.260  16.693  0.00  0.00    +0.000 A 
ENDROOT
BRANCH   5   7
ATOM      7  N   UNL     1       5.980   4.632  14.833  0.00  0.00    +0.000 N 
ATOM      8  C   UNL     1       4.977   3.924  14.014  0.00  0.00    +0.000 C 
ATOM      9  C   UNL     1       5.708   3.835  12.712  0.00  0.00    +0.000 C 
ATOM     10  C   UNL     1       6.849   4.535  12.705  0.00  0.00    +0.000 C 
ATOM     11  N   UNL     1       7.495   3.557  11.913  0.00  0.00    +0.000 NA
ATOM     12  C   UNL     1       6.388   2.884  11.868  0.00  0.00    +0.000 C 
ATOM     13  C   UNL     1       7.116   5.053  14.088  0.00  0.00    +0.000 C 
ATOM     14  O   UNL     1       8.096   5.672  14.471  0.00  0.00    +0.000 OA
BRANCH  12  15
ATOM     15  C   UNL     1       5.949   1.580  11.316  0.00  0.00    +0.000 C 
ATOM     16  F   UNL     1       6.723   1.178  10.269  0.00  0.00    +0.000 F 
ATOM     17  F   UNL     1       5.997   0.579  12.234  0.00  0.00    +0.000 F 
ATOM     18  F   UNL     1       4.672   1.617  10.849  0.00  0.00    +0.000 F 
ENDBRANCH  12  15
ENDBRANCH   5   7
BRANCH   1  19
ATOM     19  C   UNL     1       2.707   5.871  18.526  0.00  0.00    +0.000 C 
ATOM     20  C   UNL     1       2.588   6.937  19.681  0.00  0.00    +0.000 C 
ATOM     21  C   UNL     1       2.341   8.028  18.635  0.00  0.00    +0.000 C 
ATOM     22  C   UNL     1       1.990   6.939  17.615  0.00  0.00    +0.000 C 
BRANCH  19  23
ATOM     23  C   UNL     1       1.833   4.606  18.732  0.00  0.00    +0.000 C 
BRANCH  23  29
ATOM     24  C   UNL     1       3.560   1.980  18.986  0.00  0.00    +0.000 C 
ATOM     25  N   UNL     1       2.889   2.684  20.047  0.00  0.00    +0.000 N 
ATOM     26  C   UNL     1       2.878   2.298  21.353  0.00  0.00    +0.000 A 
ATOM     27  N   UNL     1       2.142   3.129  22.051  0.00  0.00    +0.000 NA
ATOM     28  N   UNL     1       1.652   4.074  21.185  0.00  0.00    +0.000 NA
ATOM     29  C   UNL     1       2.124   3.825  19.977  0.00  0.00    +0.000 A 
ENDBRANCH  23  29
ENDBRANCH  19  23
ENDBRANCH   1  19
TORSDOF 5
ENDMDL
MODEL 7
REMARK VINA RESULT:      -8.0      3.409      6.040
REMARK  Name = 
REMARK  6 active torsions:
REMARK  status: ('A' for Active; 'I' for Inactive)
REMARK    1  A    between atoms: C_1  and  N_2
REMARK    2  A    between atoms: C_6  and  C_7
REMARK    3  A    between atoms: C_7  and  C_8
REMARK    4  A    between atoms: C_8  and  C_9
REMARK    5  A    between atoms: C_13  and  N_14
REMARK    6  A    between atoms: C_19  and  C_20
REMARK                            x       y       z     vdW  Elec       q    Type
REMARK                         _______ _______ _______ _____ _____    ______ ____
ROOT
ATOM      1  C   UNL     1      -1.715  10.935  17.702  0.00  0.00    +0.000 A 
ATOM      2  C   UNL     1      -1.306  12.238  18.029  0.00  0.00    +0.000 A 
ATOM      3  C   UNL     1      -0.107  12.479  18.697  0.00  0.00    +0.000 A 
ATOM      4  C   UNL     1       0.733  11.420  19.045  0.00  0.00    +0.000 A 
ATOM      5  C   UNL     1       0.404  10.107  18.710  0.00  0.00    +0.000 A 
ATOM      6  C   UNL     1      -0.814   9.900  18.041  0.00  0.00    +0.000 A 
ENDROOT
BRANCH   5   7
ATOM      7  N   UNL     1       1.236   8.996  19.034  0.00  0.00    +0.000 N 
ATOM      8  C   UNL     1       2.055   8.335  17.999  0.00  0.00    +0.000 C 
ATOM      9  C   UNL     1       2.603   7.185  18.785  0.00  0.00    +0.000 C 
ATOM     10  C   UNL     1       2.320   7.264  20.090  0.00  0.00    +0.000 C 
ATOM     11  N   UNL     1       2.151   5.862  20.183  0.00  0.00    +0.000 NA
ATOM     12  C   UNL     1       2.467   5.757  18.930  0.00  0.00    +0.000 C 
ATOM     13  C   UNL     1       1.381   8.412  20.322  0.00  0.00    +0.000 C 
ATOM     14  O   UNL     1       0.857   8.740  21.375  0.00  0.00    +0.000 OA
BRANCH  12  15
ATOM     15  C   UNL     1       2.541   4.664  17.932  0.00  0.00    +0.000 C 
ATOM     16  F   UNL     1       2.899   3.476  18.495  0.00  0.00    +0.000 F 
ATOM     17  F   UNL     1       1.356   4.446  17.302  0.00  0.00    +0.000 F 
ATOM     18  F   UNL     1       3.458   4.910  16.957  0.00  0.00    +0.000 F 
ENDBRANCH  12  15
ENDBRANCH   5   7
BRANCH   1  19
ATOM     19  C   UNL     1      -3.141  10.610  17.004  0.00  0.00    +0.000 C 
ATOM     20  C   UNL     1      -3.580  11.552  15.818  0.00  0.00    +0.000 C 
ATOM     21  C   UNL     1      -3.074  10.510  14.817  0.00  0.00    +0.000 C 
ATOM     22  C   UNL     1      -3.106   9.457  15.929  0.00  0.00    +0.000 C 
BRANCH  19  23
ATOM     23  C   UNL     1      -4.241  10.372  18.072  0.00  0.00    +0.000 C 
BRANCH  23  29
ATOM     24  C   UNL     1      -4.136  12.728  20.165  0.00  0.00    +0.000 C 
ATOM     25  N   UNL     1      -5.140  12.505  19.159  0.00  0.00    +0.000 N 
ATOM     26  C   UNL     1      -6.240  13.285  18.969  0.00  0.00    +0.000 A 
ATOM     27  N   UNL     1      -6.974  12.784  18.005  0.00  0.00    +0.000 NA
ATOM     28  N   UNL     1      -6.348  11.647  17.558  0.00  0.00    +0.000 NA
ATOM     29  C   UNL     1      -5.225  11.490  18.234  0.00  0.00    +0.000 A 
ENDBRANCH  23  29
ENDBRANCH  19  23
ENDBRANCH   1  19
TORSDOF 5
ENDMDL
MODEL 8
REMARK VINA RESULT:      -8.0      3.716      8.221
REMARK  Name = 
REMARK  6 active torsions:
REMARK  status: ('A' for Active; 'I' for Inactive)
REMARK    1  A    between atoms: C_1  and  N_2
REMARK    2  A    between atoms: C_6  and  C_7
REMARK    3  A    between atoms: C_7  and  C_8
REMARK    4  A    between atoms: C_8  and  C_9
REMARK    5  A    between atoms: C_13  and  N_14
REMARK    6  A    between atoms: C_19  and  C_20
REMARK                            x       y       z     vdW  Elec       q    Type
REMARK                         _______ _______ _______ _____ _____    ______ ____
ROOT
ATOM      1  C   UNL     1       4.568   5.373  17.841  0.00  0.00    +0.000 A 
ATOM      2  C   UNL     1       4.032   4.189  18.373  0.00  0.00    +0.000 A 
ATOM      3  C   UNL     1       2.857   4.194  19.124  0.00  0.00    +0.000 A 
ATOM      4  C   UNL     1       2.169   5.388  19.352  0.00  0.00    +0.000 A 
ATOM      5  C   UNL     1       2.628   6.590  18.813  0.00  0.00    +0.000 A 
ATOM      6  C   UNL     1       3.818   6.548  18.067  0.00  0.00    +0.000 A 
ENDROOT
BRANCH   5   7
ATOM      7  N   UNL     1       1.953   7.830  19.009  0.00  0.00    +0.000 N 
ATOM      8  C   UNL     1       1.840   8.813  17.914  0.00  0.00    +0.000 C 
ATOM      9  C   UNL     1       1.205   9.955  18.644  0.00  0.00    +0.000 C 
ATOM     10  C   UNL     1       0.831   9.636  19.888  0.00  0.00    +0.000 C 
ATOM     11  N   UNL     1       1.184  10.918  20.370  0.00  0.00    +0.000 NA
ATOM     12  C   UNL     1       1.510  11.264  19.164  0.00  0.00    +0.000 C 
ATOM     13  C   UNL     1       1.334   8.259  20.215  0.00  0.00    +0.000 C 
ATOM     14  O   UNL     1       1.241   7.671  21.280  0.00  0.00    +0.000 OA
BRANCH  12  15
ATOM     15  C   UNL     1       2.103  12.458  18.516  0.00  0.00    +0.000 C 
ATOM     16  F   UNL     1       2.980  12.124  17.527  0.00  0.00    +0.000 F 
ATOM     17  F   UNL     1       1.170  13.264  17.944  0.00  0.00    +0.000 F 
ATOM     18  F   UNL     1       2.800  13.233  19.391  0.00  0.00    +0.000 F 
ENDBRANCH  12  15
ENDBRANCH   5   7
BRANCH   1  19
ATOM     19  C   UNL     1       5.975   5.416  17.038  0.00  0.00    +0.000 C 
ATOM     20  C   UNL     1       6.529   6.842  16.656  0.00  0.00    +0.000 C 
ATOM     21  C   UNL     1       7.451   6.800  17.878  0.00  0.00    +0.000 C 
ATOM     22  C   UNL     1       7.259   5.281  17.944  0.00  0.00    +0.000 C 
BRANCH  19  23
ATOM     23  C   UNL     1       5.980   4.394  15.871  0.00  0.00    +0.000 C 
BRANCH  23  29
ATOM     24  C   UNL     1       5.573   3.473  12.883  0.00  0.00    +0.000 C 
ATOM     25  N   UNL     1       6.576   4.375  13.385  0.00  0.00    +0.000 N 
ATOM     26  C   UNL     1       7.544   4.963  12.627  0.00  0.00    +0.000 A 
ATOM     27  N   UNL     1       8.323   5.687  13.394  0.00  0.00    +0.000 NA
ATOM     28  N   UNL     1       7.863   5.565  14.682  0.00  0.00    +0.000 NA
ATOM     29  C   UNL     1       6.791   4.796  14.677  0.00  0.00    +0.000 A 
ENDBRANCH  23  29
ENDBRANCH  19  23
ENDBRANCH   1  19
TORSDOF 5
ENDMDL
MODEL 9
REMARK VINA RESULT:      -7.9      2.839      4.553
REMARK  Name = 
REMARK  6 active torsions:
REMARK  status: ('A' for Active; 'I' for Inactive)
REMARK    1  A    between atoms: C_1  and  N_2
REMARK    2  A    between atoms: C_6  and  C_7
REMARK    3  A    between atoms: C_7  and  C_8
REMARK    4  A    between atoms: C_8  and  C_9
REMARK    5  A    between atoms: C_13  and  N_14
REMARK    6  A    between atoms: C_19  and  C_20
REMARK                            x       y       z     vdW  Elec       q    Type
REMARK                         _______ _______ _______ _____ _____    ______ ____
ROOT
ATOM      1  C   UNL     1      -0.482  10.479  20.200  0.00  0.00    +0.000 A 
ATOM      2  C   UNL     1      -0.331  10.439  21.595  0.00  0.00    +0.000 A 
ATOM      3  C   UNL     1       0.549   9.548  22.208  0.00  0.00    +0.000 A 
ATOM      4  C   UNL     1       1.324   8.678  21.437  0.00  0.00    +0.000 A 
ATOM      5  C   UNL     1       1.251   8.701  20.044  0.00  0.00    +0.000 A 
ATOM      6  C   UNL     1       0.349   9.607  19.462  0.00  0.00    +0.000 A 
ENDROOT
BRANCH   5   7
ATOM      7  N   UNL     1       2.030   7.840  19.218  0.00  0.00    +0.000 N 
ATOM      8  C   UNL     1       2.362   6.469  19.650  0.00  0.00    +0.000 C 
ATOM      9  C   UNL     1       3.282   6.054  18.546  0.00  0.00    +0.000 C 
ATOM     10  C   UNL     1       3.328   6.941  17.545  0.00  0.00    +0.000 C 
ATOM     11  N   UNL     1       4.708   6.706  17.342  0.00  0.00    +0.000 NA
ATOM     12  C   UNL     1       4.677   5.810  18.277  0.00  0.00    +0.000 C 
ATOM     13  C   UNL     1       2.559   8.169  17.939  0.00  0.00    +0.000 C 
ATOM     14  O   UNL     1       2.444   9.206  17.306  0.00  0.00    +0.000 OA
BRANCH  12  15
ATOM     15  C   UNL     1       5.664   4.940  18.961  0.00  0.00    +0.000 C 
ATOM     16  F   UNL     1       5.065   3.968  19.705  0.00  0.00    +0.000 F 
ATOM     17  F   UNL     1       6.492   4.301  18.093  0.00  0.00    +0.000 F 
ATOM     18  F   UNL     1       6.462   5.633  19.818  0.00  0.00    +0.000 F 
ENDBRANCH  12  15
ENDBRANCH   5   7
BRANCH   1  19
ATOM     19  C   UNL     1      -1.558  11.439  19.460  0.00  0.00    +0.000 C 
ATOM     20  C   UNL     1      -1.971  12.758  20.219  0.00  0.00    +0.000 C 
ATOM     21  C   UNL     1      -0.973  13.548  19.368  0.00  0.00    +0.000 C 
ATOM     22  C   UNL     1      -0.950  12.393  18.361  0.00  0.00    +0.000 C 
BRANCH  19  23
ATOM     23  C   UNL     1      -2.754  10.615  18.913  0.00  0.00    +0.000 C 
BRANCH  23  29
ATOM     24  C   UNL     1      -4.974  11.922  17.096  0.00  0.00    +0.000 C 
ATOM     25  N   UNL     1      -3.842  11.148  16.662  0.00  0.00    +0.000 N 
ATOM     26  C   UNL     1      -3.565  10.832  15.366  0.00  0.00    +0.000 A 
ATOM     27  N   UNL     1      -2.492  10.080  15.317  0.00  0.00    +0.000 NA
ATOM     28  N   UNL     1      -2.061   9.890  16.606  0.00  0.00    +0.000 NA
ATOM     29  C   UNL     1      -2.858  10.557  17.420  0.00  0.00    +0.000 A 
ENDBRANCH  23  29
ENDBRANCH  19  23
ENDBRANCH   1  19
TORSDOF 5
ENDMDL
