MODEL 1
REMARK VINA RESULT:      -9.2      0.000      0.000
REMARK  Name = 
REMARK  7 active torsions:
REMARK  status: ('A' for Active; 'I' for Inactive)
REMARK    1  A    between atoms: C_1  and  C_2
REMARK    2  A    between atoms: C_6  and  C_7
REMARK    3  A    between atoms: C_7  and  O_8
REMARK    4  A    between atoms: O_8  and  C_9
REMARK    5  A    between atoms: C_13  and  C_14
REMARK    6  A    between atoms: C_14  and  C_15
REMARK    7  A    between atoms: N_17  and  C_18
REMARK                            x       y       z     vdW  Elec       q    Type
REMARK                         _______ _______ _______ _____ _____    ______ ____
ROOT
ATOM      1  C   UNL     1       8.048   7.271  18.475  0.00  0.00    +0.000 C 
ENDROOT
BRANCH   1   6
ATOM      2  C   UNL     1       4.712   6.061  17.076  0.00  0.00    +0.000 A 
ATOM      3  C   UNL     1       5.094   4.985  16.283  0.00  0.00    +0.000 A 
ATOM      4  C   UNL     1       6.452   4.679  16.129  0.00  0.00    +0.000 A 
ATOM      5  C   UNL     1       7.423   5.445  16.789  0.00  0.00    +0.000 A 
ATOM      6  C   UNL     1       7.055   6.525  17.584  0.00  0.00    +0.000 A 
ATOM      7  C   UNL     1       5.683   6.830  17.718  0.00  0.00    +0.000 A 
BRANCH   2   8
ATOM      8  O   UNL     1       3.369   6.218  17.221  0.00  0.00    +0.000 OA
BRANCH   8   9
ATOM      9  C   UNL     1       2.840   6.253  18.563  0.00  0.00    +0.000 C 
BRANCH   9  15
ATOM     10  C   UNL     1       1.952   2.962  22.029  0.00  0.00    +0.000 C 
ATOM     11  C   UNL     1       2.062   3.160  20.546  0.00  0.00    +0.000 A 
ATOM     12  C   UNL     1       1.291   2.412  19.652  0.00  0.00    +0.000 A 
ATOM     13  C   UNL     1       1.085   2.872  18.352  0.00  0.00    +0.000 A 
ATOM     14  C   UNL     1       1.619   4.103  17.954  0.00  0.00    +0.000 A 
ATOM     15  C   UNL     1       2.444   4.822  18.826  0.00  0.00    +0.000 A 
ATOM     16  C   UNL     1       2.726   4.299  20.093  0.00  0.00    +0.000 A 
ENDBRANCH   9  15
ENDBRANCH   8   9
ENDBRANCH   2   8
ENDBRANCH   1   6
BRANCH   1  17
ATOM     17  C   UNL     1       8.251   8.783  18.366  0.00  0.00    +0.000 C 
ATOM     18  O   UNL     1       7.603   9.418  17.542  0.00  0.00    +0.000 OA
ATOM     19  N   UNL     1       9.276   9.323  19.107  0.00  0.00    +0.000 N 
ATOM     20  H   UNL     1       9.866   8.655  19.609  0.00  0.00    +0.000 HD
BRANCH  19  21
ATOM     21  C   UNL     1       9.750  10.672  19.055  0.00  0.00    +0.000 A 
ATOM     22  C   UNL     1       9.554  11.376  20.245  0.00  0.00    +0.000 A 
ATOM     23  C   UNL     1       9.814  12.726  20.306  0.00  0.00    +0.000 A 
ATOM     24  C   UNL     1      10.278  13.369  19.164  0.00  0.00    +0.000 A 
ATOM     25  C   UNL     1      10.558  14.806  19.237  0.00  0.00    +0.000 A 
ATOM     26  O   UNL     1       9.882  15.567  19.916  0.00  0.00    +0.000 OA
ATOM     27  N   UNL     1      11.660  15.176  18.504  0.00  0.00    +0.000 N 
ATOM     28  C   UNL     1      11.996  14.553  17.328  0.00  0.00    +0.000 A 
ATOM     29  C   UNL     1      11.405  13.397  16.986  0.00  0.00    +0.000 A 
ATOM     30  C   UNL     1      10.609  12.665  18.000  0.00  0.00    +0.000 A 
ATOM     31  C   UNL     1      10.275  11.291  17.942  0.00  0.00    +0.000 A 
ATOM     32  H   UNL     1      12.365  15.695  19.008  0.00  0.00    +0.000 HD
ENDBRANCH  19  21
ENDBRANCH   1  17
TORSDOF 6
ENDMDL
MODEL 2
REMARK VINA RESULT:      -9.2      1.033      2.035
REMARK  Name = 
REMARK  7 active torsions:
REMARK  status: ('A' for Active; 'I' for Inactive)
REMARK    1  A    between atoms: C_1  and  C_2
REMARK    2  A    between atoms: C_6  and  C_7
REMARK    3  A    between atoms: C_7  and  O_8
REMARK    4  A    between atoms: O_8  and  C_9
REMARK    5  A    between atoms: C_13  and  C_14
REMARK    6  A    between atoms: C_14  and  C_15
REMARK    7  A    between atoms: N_17  and  C_18
REMARK                            x       y       z     vdW  Elec       q    Type
REMARK                         _______ _______ _______ _____ _____    ______ ____
ROOT
ATOM      1  C   UNL     1       7.987   6.824  18.435  0.00  0.00    +0.000 C 
ENDROOT
BRANCH   1   6
ATOM      2  C   UNL     1       4.503   5.722  17.339  0.00  0.00    +0.000 A 
ATOM      3  C   UNL     1       4.776   4.610  16.551  0.00  0.00    +0.000 A 
ATOM      4  C   UNL     1       6.104   4.241  16.301  0.00  0.00    +0.000 A 
ATOM      5  C   UNL     1       7.155   4.981  16.859  0.00  0.00    +0.000 A 
ATOM      6  C   UNL     1       6.897   6.098  17.647  0.00  0.00    +0.000 A 
ATOM      7  C   UNL     1       5.553   6.466  17.879  0.00  0.00    +0.000 A 
BRANCH   2   8
ATOM      8  O   UNL     1       3.184   5.942  17.583  0.00  0.00    +0.000 OA
BRANCH   8   9
ATOM      9  C   UNL     1       2.816   6.415  18.896  0.00  0.00    +0.000 C 
BRANCH   9  15
ATOM     10  C   UNL     1       1.694   1.724  18.292  0.00  0.00    +0.000 C 
ATOM     11  C   UNL     1       1.577   2.886  19.232  0.00  0.00    +0.000 A 
ATOM     12  C   UNL     1       1.554   2.702  20.617  0.00  0.00    +0.000 A 
ATOM     13  C   UNL     1       1.864   3.764  21.468  0.00  0.00    +0.000 A 
ATOM     14  C   UNL     1       2.235   5.002  20.933  0.00  0.00    +0.000 A 
ATOM     15  C   UNL     1       2.196   5.206  19.549  0.00  0.00    +0.000 A 
ATOM     16  C   UNL     1       1.784   4.162  18.712  0.00  0.00    +0.000 A 
ENDBRANCH   9  15
ENDBRANCH   8   9
ENDBRANCH   2   8
ENDBRANCH   1   6
BRANCH   1  17
ATOM     17  C   UNL     1       8.194   8.334  18.320  0.00  0.00    +0.000 C 
ATOM     18  O   UNL     1       7.810   8.918  17.313  0.00  0.00    +0.000 OA
ATOM     19  N   UNL     1       8.950   8.930  19.302  0.00  0.00    +0.000 N 
ATOM     20  H   UNL     1       9.374   8.299  19.986  0.00  0.00    +0.000 HD
BRANCH  19  21
ATOM     21  C   UNL     1       9.401  10.287  19.329  0.00  0.00    +0.000 A 
ATOM     22  C   UNL     1       9.901  10.731  18.103  0.00  0.00    +0.000 A 
ATOM     23  C   UNL     1      10.513  11.960  18.005  0.00  0.00    +0.000 A 
ATOM     24  C   UNL     1      10.618  12.747  19.147  0.00  0.00    +0.000 A 
ATOM     25  C   UNL     1      11.266  14.057  19.034  0.00  0.00    +0.000 A 
ATOM     26  O   UNL     1      12.216  14.251  18.287  0.00  0.00    +0.000 OA
ATOM     27  N   UNL     1      10.672  15.019  19.815  0.00  0.00    +0.000 N 
ATOM     28  C   UNL     1      10.110  14.725  21.031  0.00  0.00    +0.000 A 
ATOM     29  C   UNL     1       9.897  13.447  21.384  0.00  0.00    +0.000 A 
ATOM     30  C   UNL     1      10.010  12.386  20.354  0.00  0.00    +0.000 A 
ATOM     31  C   UNL     1       9.441  11.094  20.446  0.00  0.00    +0.000 A 
ATOM     32  H   UNL     1      10.396  15.863  19.333  0.00  0.00    +0.000 HD
ENDBRANCH  19  21
ENDBRANCH   1  17
TORSDOF 6
ENDMDL
MODEL 3
REMARK VINA RESULT:      -9.1      6.251      9.999
REMARK  Name = 
REMARK  7 active torsions:
REMARK  status: ('A' for Active; 'I' for Inactive)
REMARK    1  A    between atoms: C_1  and  C_2
REMARK    2  A    between atoms: C_6  and  C_7
REMARK    3  A    between atoms: C_7  and  O_8
REMARK    4  A    between atoms: O_8  and  C_9
REMARK    5  A    between atoms: C_13  and  C_14
REMARK    6  A    between atoms: C_14  and  C_15
REMARK    7  A    between atoms: N_17  and  C_18
REMARK                            x       y       z     vdW  Elec       q    Type
REMARK                         _______ _______ _______ _____ _____    ______ ____
ROOT
ATOM      1  C   UNL     1       2.714   8.591  18.024  0.00  0.00    +0.000 C 
ENDROOT
BRANCH   1   6
ATOM      2  C   UNL     1       4.134   5.196  17.022  0.00  0.00    +0.000 A 
ATOM      3  C   UNL     1       3.256   4.312  17.638  0.00  0.00    +0.000 A 
ATOM      4  C   UNL     1       2.228   4.803  18.452  0.00  0.00    +0.000 A 
ATOM      5  C   UNL     1       2.073   6.185  18.631  0.00  0.00    +0.000 A 
ATOM      6  C   UNL     1       2.946   7.081  18.023  0.00  0.00    +0.000 A 
ATOM      7  C   UNL     1       3.987   6.570  17.216  0.00  0.00    +0.000 A 
BRANCH   2   8
ATOM      8  O   UNL     1       5.041   4.616  16.192  0.00  0.00    +0.000 OA
BRANCH   8   9
ATOM      9  C   UNL     1       6.272   5.328  15.945  0.00  0.00    +0.000 C 
BRANCH   9  15
ATOM     10  C   UNL     1       4.806   3.072  11.896  0.00  0.00    +0.000 C 
ATOM     11  C   UNL     1       6.000   3.648  12.597  0.00  0.00    +0.000 A 
ATOM     12  C   UNL     1       7.059   4.217  11.885  0.00  0.00    +0.000 A 
ATOM     13  C   UNL     1       7.933   5.100  12.519  0.00  0.00    +0.000 A 
ATOM     14  C   UNL     1       7.727   5.445  13.858  0.00  0.00    +0.000 A 
ATOM     15  C   UNL     1       6.707   4.827  14.591  0.00  0.00    +0.000 A 
ATOM     16  C   UNL     1       5.901   3.867  13.970  0.00  0.00    +0.000 A 
ENDBRANCH   9  15
ENDBRANCH   8   9
ENDBRANCH   2   8
ENDBRANCH   1   6
BRANCH   1  17
ATOM     17  C   UNL     1       1.459   9.214  18.636  0.00  0.00    +0.000 C 
ATOM     18  O   UNL     1       1.220   9.036  19.825  0.00  0.00    +0.000 OA
ATOM     19  N   UNL     1       0.581   9.817  17.766  0.00  0.00    +0.000 N 
ATOM     20  H   UNL     1       0.806   9.730  16.772  0.00  0.00    +0.000 HD
BRANCH  19  21
ATOM     21  C   UNL     1      -0.716  10.331  18.080  0.00  0.00    +0.000 A 
ATOM     22  C   UNL     1      -1.742   9.739  17.342  0.00  0.00    +0.000 A 
ATOM     23  C   UNL     1      -3.026  10.230  17.416  0.00  0.00    +0.000 A 
ATOM     24  C   UNL     1      -3.277  11.320  18.242  0.00  0.00    +0.000 A 
ATOM     25  C   UNL     1      -4.647  11.835  18.321  0.00  0.00    +0.000 A 
ATOM     26  O   UNL     1      -5.395  11.846  17.352  0.00  0.00    +0.000 OA
ATOM     27  N   UNL     1      -4.992  12.254  19.584  0.00  0.00    +0.000 N 
ATOM     28  C   UNL     1      -4.080  12.827  20.434  0.00  0.00    +0.000 A 
ATOM     29  C   UNL     1      -2.768  12.765  20.158  0.00  0.00    +0.000 A 
ATOM     30  C   UNL     1      -2.298  11.847  19.092  0.00  0.00    +0.000 A 
ATOM     31  C   UNL     1      -0.975  11.367  18.952  0.00  0.00    +0.000 A 
ATOM     32  H   UNL     1      -5.837  11.851  19.962  0.00  0.00    +0.000 HD
ENDBRANCH  19  21
ENDBRANCH   1  17
TORSDOF 6
ENDMDL
MODEL 4
REMARK VINA RESULT:      -9.1      1.008      1.789
REMARK  Name = 
REMARK  7 active torsions:
REMARK  status: ('A' for Active; 'I' for Inactive)
REMARK    1  A    between atoms: C_1  and  C_2
REMARK    2  A    between atoms: C_6  and  C_7
REMARK    3  A    between atoms: C_7  and  O_8
REMARK    4  A    between atoms: O_8  and  C_9
REMARK    5  A    between atoms: C_13  and  C_14
REMARK    6  A    between atoms: C_14  and  C_15
REMARK    7  A    between atoms: N_17  and  C_18
REMARK                            x       y       z     vdW  Elec       q    Type
REMARK                         _______ _______ _______ _____ _____    ______ ____
ROOT
ATOM      1  C   UNL     1       8.114   7.298  18.160  0.00  0.00    +0.000 C 
ENDROOT
BRANCH   1   6
ATOM      2  C   UNL     1       4.573   6.356  17.101  0.00  0.00    +0.000 A 
ATOM      3  C   UNL     1       4.797   5.339  16.180  0.00  0.00    +0.000 A 
ATOM      4  C   UNL     1       6.108   4.989  15.832  0.00  0.00    +0.000 A 
ATOM      5  C   UNL     1       7.192   5.653  16.424  0.00  0.00    +0.000 A 
ATOM      6  C   UNL     1       6.982   6.674  17.344  0.00  0.00    +0.000 A 
ATOM      7  C   UNL     1       5.654   7.025  17.675  0.00  0.00    +0.000 A 
BRANCH   2   8
ATOM      8  O   UNL     1       3.268   6.557  17.425  0.00  0.00    +0.000 OA
BRANCH   8   9
ATOM      9  C   UNL     1       2.895   6.418  18.813  0.00  0.00    +0.000 C 
BRANCH   9  15
ATOM     10  C   UNL     1       1.878   2.827  21.927  0.00  0.00    +0.000 C 
ATOM     11  C   UNL     1       2.044   3.160  20.475  0.00  0.00    +0.000 A 
ATOM     12  C   UNL     1       1.307   2.499  19.488  0.00  0.00    +0.000 A 
ATOM     13  C   UNL     1       1.150   3.077  18.228  0.00  0.00    +0.000 A 
ATOM     14  C   UNL     1       1.698   4.337  17.965  0.00  0.00    +0.000 A 
ATOM     15  C   UNL     1       2.489   4.971  18.929  0.00  0.00    +0.000 A 
ATOM     16  C   UNL     1       2.724   4.333  20.153  0.00  0.00    +0.000 A 
ENDBRANCH   9  15
ENDBRANCH   8   9
ENDBRANCH   2   8
ENDBRANCH   1   6
BRANCH   1  17
ATOM     17  C   UNL     1       8.239   8.811  18.343  0.00  0.00    +0.000 C 
ATOM     18  O   UNL     1       7.673   9.559  17.554  0.00  0.00    +0.000 OA
ATOM     19  N   UNL     1       9.119   9.246  19.306  0.00  0.00    +0.000 N 
ATOM     20  H   UNL     1       9.673   8.521  19.767  0.00  0.00    +0.000 HD
BRANCH  19  21
ATOM     21  C   UNL     1       9.513  10.598  19.555  0.00  0.00    +0.000 A 
ATOM     22  C   UNL     1      10.202  11.182  18.490  0.00  0.00    +0.000 A 
ATOM     23  C   UNL     1      10.781  12.423  18.633  0.00  0.00    +0.000 A 
ATOM     24  C   UNL     1      10.660  13.080  19.852  0.00  0.00    +0.000 A 
ATOM     25  C   UNL     1      11.274  14.403  19.994  0.00  0.00    +0.000 A 
ATOM     26  O   UNL     1      12.332  14.692  19.451  0.00  0.00    +0.000 OA
ATOM     27  N   UNL     1      10.521  15.265  20.756  0.00  0.00    +0.000 N 
ATOM     28  C   UNL     1       9.768  14.830  21.817  0.00  0.00    +0.000 A 
ATOM     29  C   UNL     1       9.539  13.518  21.989  0.00  0.00    +0.000 A 
ATOM     30  C   UNL     1       9.864  12.579  20.888  0.00  0.00    +0.000 A 
ATOM     31  C   UNL     1       9.331  11.277  20.741  0.00  0.00    +0.000 A 
ATOM     32  H   UNL     1      10.305  16.153  20.326  0.00  0.00    +0.000 HD
ENDBRANCH  19  21
ENDBRANCH   1  17
TORSDOF 6
ENDMDL
MODEL 5
REMARK VINA RESULT:      -9.0      1.029      1.391
REMARK  Name = 
REMARK  7 active torsions:
REMARK  status: ('A' for Active; 'I' for Inactive)
REMARK    1  A    between atoms: C_1  and  C_2
REMARK    2  A    between atoms: C_6  and  C_7
REMARK    3  A    between atoms: C_7  and  O_8
REMARK    4  A    between atoms: O_8  and  C_9
REMARK    5  A    between atoms: C_13  and  C_14
REMARK    6  A    between atoms: C_14  and  C_15
REMARK    7  A    between atoms: N_17  and  C_18
REMARK                            x       y       z     vdW  Elec       q    Type
REMARK                         _______ _______ _______ _____ _____    ______ ____
ROOT
ATOM      1  C   UNL     1       7.720   6.731  18.151  0.00  0.00    +0.000 C 
ENDROOT
BRANCH   1   6
ATOM      2  C   UNL     1       4.995   4.722  16.394  0.00  0.00    +0.000 A 
ATOM      3  C   UNL     1       5.628   4.319  15.225  0.00  0.00    +0.000 A 
ATOM      4  C   UNL     1       6.931   4.754  14.951  0.00  0.00    +0.000 A 
ATOM      5  C   UNL     1       7.601   5.582  15.863  0.00  0.00    +0.000 A 
ATOM      6  C   UNL     1       6.978   5.994  17.036  0.00  0.00    +0.000 A 
ATOM      7  C   UNL     1       5.659   5.558  17.292  0.00  0.00    +0.000 A 
BRANCH   2   8
ATOM      8  O   UNL     1       3.766   4.176  16.598  0.00  0.00    +0.000 OA
BRANCH   8   9
ATOM      9  C   UNL     1       3.650   3.146  17.602  0.00  0.00    +0.000 C 
BRANCH   9  15
ATOM     10  C   UNL     1       1.516   2.461  21.916  0.00  0.00    +0.000 C 
ATOM     11  C   UNL     1       1.586   3.377  20.731  0.00  0.00    +0.000 A 
ATOM     12  C   UNL     1       1.386   4.754  20.863  0.00  0.00    +0.000 A 
ATOM     13  C   UNL     1       1.854   5.625  19.879  0.00  0.00    +0.000 A 
ATOM     14  C   UNL     1       2.557   5.123  18.779  0.00  0.00    +0.000 A 
ATOM     15  C   UNL     1       2.702   3.741  18.612  0.00  0.00    +0.000 A 
ATOM     16  C   UNL     1       2.138   2.873  19.555  0.00  0.00    +0.000 A 
ENDBRANCH   9  15
ENDBRANCH   8   9
ENDBRANCH   2   8
ENDBRANCH   1   6
BRANCH   1  17
ATOM     17  C   UNL     1       7.938   8.244  18.113  0.00  0.00    +0.000 C 
ATOM     18  O   UNL     1       7.412   8.903  17.224  0.00  0.00    +0.000 OA
ATOM     19  N   UNL     1       8.851   8.759  19.003  0.00  0.00    +0.000 N 
ATOM     20  H   UNL     1       9.364   8.075  19.564  0.00  0.00    +0.000 HD
BRANCH  19  21
ATOM     21  C   UNL     1       9.328  10.106  19.054  0.00  0.00    +0.000 A 
ATOM     22  C   UNL     1       9.255  10.674  20.328  0.00  0.00    +0.000 A 
ATOM     23  C   UNL     1       9.532  12.010  20.511  0.00  0.00    +0.000 A 
ATOM     24  C   UNL     1       9.887  12.776  19.407  0.00  0.00    +0.000 A 
ATOM     25  C   UNL     1      10.185  14.196  19.610  0.00  0.00    +0.000 A 
ATOM     26  O   UNL     1       9.585  14.876  20.432  0.00  0.00    +0.000 OA
ATOM     27  N   UNL     1      11.214  14.648  18.818  0.00  0.00    +0.000 N 
ATOM     28  C   UNL     1      11.427  14.160  17.554  0.00  0.00    +0.000 A 
ATOM     29  C   UNL     1      10.797  13.047  17.145  0.00  0.00    +0.000 A 
ATOM     30  C   UNL     1      10.097  12.206  18.146  0.00  0.00    +0.000 A 
ATOM     31  C   UNL     1       9.748  10.846  17.970  0.00  0.00    +0.000 A 
ATOM     32  H   UNL     1      11.969  15.110  19.304  0.00  0.00    +0.000 HD
ENDBRANCH  19  21
ENDBRANCH   1  17
TORSDOF 6
ENDMDL
MODEL 6
REMARK VINA RESULT:      -8.8      6.214      8.501
REMARK  Name = 
REMARK  7 active torsions:
REMARK  status: ('A' for Active; 'I' for Inactive)
REMARK    1  A    between atoms: C_1  and  C_2
REMARK    2  A    between atoms: C_6  and  C_7
REMARK    3  A    between atoms: C_7  and  O_8
REMARK    4  A    between atoms: O_8  and  C_9
REMARK    5  A    between atoms: C_13  and  C_14
REMARK    6  A    between atoms: C_14  and  C_15
REMARK    7  A    between atoms: N_17  and  C_18
REMARK                            x       y       z     vdW  Elec       q    Type
REMARK                         _______ _______ _______ _____ _____    ______ ____
ROOT
ATOM      1  C   UNL     1       3.671   3.957  17.544  0.00  0.00    +0.000 C 
ENDROOT
BRANCH   1   6
ATOM      2  C   UNL     1       6.275   5.124  15.013  0.00  0.00    +0.000 A 
ATOM      3  C   UNL     1       7.462   4.995  15.725  0.00  0.00    +0.000 A 
ATOM      4  C   UNL     1       7.431   4.595  17.066  0.00  0.00    +0.000 A 
ATOM      5  C   UNL     1       6.206   4.309  17.685  0.00  0.00    +0.000 A 
ATOM      6  C   UNL     1       5.011   4.437  16.986  0.00  0.00    +0.000 A 
ATOM      7  C   UNL     1       5.057   4.854  15.637  0.00  0.00    +0.000 A 
BRANCH   2   8
ATOM      8  O   UNL     1       6.427   5.439  13.698  0.00  0.00    +0.000 OA
BRANCH   8   9
ATOM      9  C   UNL     1       7.433   4.723  12.952  0.00  0.00    +0.000 C 
BRANCH   9  15
ATOM     10  C   UNL     1       3.334   3.315  10.749  0.00  0.00    +0.000 C 
ATOM     11  C   UNL     1       4.618   2.823  11.347  0.00  0.00    +0.000 A 
ATOM     12  C   UNL     1       5.262   1.685  10.855  0.00  0.00    +0.000 A 
ATOM     13  C   UNL     1       6.617   1.480  11.116  0.00  0.00    +0.000 A 
ATOM     14  C   UNL     1       7.341   2.435  11.839  0.00  0.00    +0.000 A 
ATOM     15  C   UNL     1       6.685   3.542  12.387  0.00  0.00    +0.000 A 
ATOM     16  C   UNL     1       5.304   3.682  12.204  0.00  0.00    +0.000 A 
ENDBRANCH   9  15
ENDBRANCH   8   9
ENDBRANCH   2   8
ENDBRANCH   1   6
BRANCH   1  17
ATOM     17  C   UNL     1       2.708   4.906  18.257  0.00  0.00    +0.000 C 
ATOM     18  O   UNL     1       1.591   4.508  18.564  0.00  0.00    +0.000 OA
ATOM     19  N   UNL     1       3.108   6.217  18.376  0.00  0.00    +0.000 N 
ATOM     20  H   UNL     1       3.983   6.462  17.907  0.00  0.00    +0.000 HD
BRANCH  19  21
ATOM     21  C   UNL     1       2.324   7.308  18.865  0.00  0.00    +0.000 A 
ATOM     22  C   UNL     1       1.995   8.242  17.880  0.00  0.00    +0.000 A 
ATOM     23  C   UNL     1       1.377   9.425  18.220  0.00  0.00    +0.000 A 
ATOM     24  C   UNL     1       1.085   9.664  19.558  0.00  0.00    +0.000 A 
ATOM     25  C   UNL     1       0.422  10.923  19.913  0.00  0.00    +0.000 A 
ATOM     26  O   UNL     1       0.660  11.971  19.328  0.00  0.00    +0.000 OA
ATOM     27  N   UNL     1      -0.499  10.778  20.923  0.00  0.00    +0.000 N 
ATOM     28  C   UNL     1      -0.325   9.878  21.943  0.00  0.00    +0.000 A 
ATOM     29  C   UNL     1       0.622   8.931  21.852  0.00  0.00    +0.000 A 
ATOM     30  C   UNL     1       1.281   8.692  20.545  0.00  0.00    +0.000 A 
ATOM     31  C   UNL     1       1.972   7.512  20.182  0.00  0.00    +0.000 A 
ATOM     32  H   UNL     1      -1.426  11.126  20.722  0.00  0.00    +0.000 HD
ENDBRANCH  19  21
ENDBRANCH   1  17
TORSDOF 6
ENDMDL
MODEL 7
REMARK VINA RESULT:      -8.8      6.452     10.266
REMARK  Name = 
REMARK  7 active torsions:
REMARK  status: ('A' for Active; 'I' for Inactive)
REMARK    1  A    between atoms: C_1  and  C_2
REMARK    2  A    between atoms: C_6  and  C_7
REMARK    3  A    between atoms: C_7  and  O_8
REMARK    4  A    between atoms: O_8  and  C_9
REMARK    5  A    between atoms: C_13  and  C_14
REMARK    6  A    between atoms: C_14  and  C_15
REMARK    7  A    between atoms: N_17  and  C_18
REMARK                            x       y       z     vdW  Elec       q    Type
REMARK                         _______ _______ _______ _____ _____    ______ ____
ROOT
ATOM      1  C   UNL     1       1.978   9.499  17.931  0.00  0.00    +0.000 C 
ENDROOT
BRANCH   1   6
ATOM      2  C   UNL     1       2.562   5.792  18.617  0.00  0.00    +0.000 A 
ATOM      3  C   UNL     1       2.171   5.669  19.945  0.00  0.00    +0.000 A 
ATOM      4  C   UNL     1       1.778   6.804  20.665  0.00  0.00    +0.000 A 
ATOM      5  C   UNL     1       1.764   8.060  20.042  0.00  0.00    +0.000 A 
ATOM      6  C   UNL     1       2.155   8.198  18.715  0.00  0.00    +0.000 A 
ATOM      7  C   UNL     1       2.562   7.047  18.006  0.00  0.00    +0.000 A 
BRANCH   2   8
ATOM      8  O   UNL     1       2.844   4.618  17.992  0.00  0.00    +0.000 OA
BRANCH   8   9
ATOM      9  C   UNL     1       3.781   3.727  18.633  0.00  0.00    +0.000 C 
BRANCH   9  15
ATOM     10  C   UNL     1       5.654   4.313  14.186  0.00  0.00    +0.000 C 
ATOM     11  C   UNL     1       6.002   4.158  15.636  0.00  0.00    +0.000 A 
ATOM     12  C   UNL     1       7.134   4.768  16.182  0.00  0.00    +0.000 A 
ATOM     13  C   UNL     1       7.223   4.972  17.559  0.00  0.00    +0.000 A 
ATOM     14  C   UNL     1       6.161   4.599  18.390  0.00  0.00    +0.000 A 
ATOM     15  C   UNL     1       5.055   3.930  17.854  0.00  0.00    +0.000 A 
ATOM     16  C   UNL     1       5.026   3.640  16.485  0.00  0.00    +0.000 A 
ENDBRANCH   9  15
ENDBRANCH   8   9
ENDBRANCH   2   8
ENDBRANCH   1   6
BRANCH   1  17
ATOM     17  C   UNL     1       0.756  10.397  18.126  0.00  0.00    +0.000 C 
ATOM     18  O   UNL     1       0.884  11.465  18.713  0.00  0.00    +0.000 OA
ATOM     19  N   UNL     1      -0.461   9.873  17.758  0.00  0.00    +0.000 N 
ATOM     20  H   UNL     1      -0.455   8.895  17.457  0.00  0.00    +0.000 HD
BRANCH  19  21
ATOM     21  C   UNL     1      -1.747  10.458  17.981  0.00  0.00    +0.000 A 
ATOM     22  C   UNL     1      -2.690  10.115  17.011  0.00  0.00    +0.000 A 
ATOM     23  C   UNL     1      -3.928  10.718  16.998  0.00  0.00    +0.000 A 
ATOM     24  C   UNL     1      -4.217  11.669  17.971  0.00  0.00    +0.000 A 
ATOM     25  C   UNL     1      -5.538  12.303  17.955  0.00  0.00    +0.000 A 
ATOM     26  O   UNL     1      -6.124  12.561  16.912  0.00  0.00    +0.000 OA
ATOM     27  N   UNL     1      -6.039  12.531  19.214  0.00  0.00    +0.000 N 
ATOM     28  C   UNL     1      -5.228  12.849  20.274  0.00  0.00    +0.000 A 
ATOM     29  C   UNL     1      -3.898  12.698  20.174  0.00  0.00    +0.000 A 
ATOM     30  C   UNL     1      -3.342  11.934  19.031  0.00  0.00    +0.000 A 
ATOM     31  C   UNL     1      -2.055  11.348  18.987  0.00  0.00    +0.000 A 
ATOM     32  H   UNL     1      -6.962  12.160  19.391  0.00  0.00    +0.000 HD
ENDBRANCH  19  21
ENDBRANCH   1  17
TORSDOF 6
ENDMDL
MODEL 8
REMARK VINA RESULT:      -8.7      6.384      9.976
REMARK  Name = 
REMARK  7 active torsions:
REMARK  status: ('A' for Active; 'I' for Inactive)
REMARK    1  A    between atoms: C_1  and  C_2
REMARK    2  A    between atoms: C_6  and  C_7
REMARK    3  A    between atoms: C_7  and  O_8
REMARK    4  A    between atoms: O_8  and  C_9
REMARK    5  A    between atoms: C_13  and  C_14
REMARK    6  A    between atoms: C_14  and  C_15
REMARK    7  A    between atoms: N_17  and  C_18
REMARK                            x       y       z     vdW  Elec       q    Type
REMARK                         _______ _______ _______ _____ _____    ______ ____
ROOT
ATOM      1  C   UNL     1       2.033   9.180  17.937  0.00  0.00    +0.000 C 
ENDROOT
BRANCH   1   6
ATOM      2  C   UNL     1       2.392   5.457  18.683  0.00  0.00    +0.000 A 
ATOM      3  C   UNL     1       2.067   5.390  20.033  0.00  0.00    +0.000 A 
ATOM      4  C   UNL     1       1.795   6.565  20.744  0.00  0.00    +0.000 A 
ATOM      5  C   UNL     1       1.835   7.806  20.092  0.00  0.00    +0.000 A 
ATOM      6  C   UNL     1       2.161   7.887  18.742  0.00  0.00    +0.000 A 
ATOM      7  C   UNL     1       2.446   6.695  18.042  0.00  0.00    +0.000 A 
BRANCH   2   8
ATOM      8  O   UNL     1       2.556   4.253  18.073  0.00  0.00    +0.000 OA
BRANCH   8   9
ATOM      9  C   UNL     1       3.700   3.460  18.455  0.00  0.00    +0.000 C 
BRANCH   9  15
ATOM     10  C   UNL     1       8.009   5.603  19.141  0.00  0.00    +0.000 C 
ATOM     11  C   UNL     1       6.971   5.272  18.111  0.00  0.00    +0.000 A 
ATOM     12  C   UNL     1       7.320   5.020  16.781  0.00  0.00    +0.000 A 
ATOM     13  C   UNL     1       6.444   4.322  15.949  0.00  0.00    +0.000 A 
ATOM     14  C   UNL     1       5.233   3.840  16.458  0.00  0.00    +0.000 A 
ATOM     15  C   UNL     1       4.854   4.147  17.769  0.00  0.00    +0.000 A 
ATOM     16  C   UNL     1       5.696   4.936  18.561  0.00  0.00    +0.000 A 
ENDBRANCH   9  15
ENDBRANCH   8   9
ENDBRANCH   2   8
ENDBRANCH   1   6
BRANCH   1  17
ATOM     17  C   UNL     1       0.947  10.214  18.240  0.00  0.00    +0.000 C 
ATOM     18  O   UNL     1       1.198  11.142  19.000  0.00  0.00    +0.000 OA
ATOM     19  N   UNL     1      -0.311   9.949  17.752  0.00  0.00    +0.000 N 
ATOM     20  H   UNL     1      -0.431   9.043  17.293  0.00  0.00    +0.000 HD
BRANCH  19  21
ATOM     21  C   UNL     1      -1.507  10.683  18.028  0.00  0.00    +0.000 A 
ATOM     22  C   UNL     1      -1.441  11.430  19.206  0.00  0.00    +0.000 A 
ATOM     23  C   UNL     1      -2.562  12.067  19.689  0.00  0.00    +0.000 A 
ATOM     24  C   UNL     1      -3.752  11.955  18.979  0.00  0.00    +0.000 A 
ATOM     25  C   UNL     1      -4.940  12.641  19.497  0.00  0.00    +0.000 A 
ATOM     26  O   UNL     1      -5.160  12.746  20.696  0.00  0.00    +0.000 OA
ATOM     27  N   UNL     1      -5.730  13.169  18.504  0.00  0.00    +0.000 N 
ATOM     28  C   UNL     1      -5.867  12.561  17.282  0.00  0.00    +0.000 A 
ATOM     29  C   UNL     1      -5.036  11.568  16.926  0.00  0.00    +0.000 A 
ATOM     30  C   UNL     1      -3.814  11.327  17.731  0.00  0.00    +0.000 A 
ATOM     31  C   UNL     1      -2.667  10.628  17.286  0.00  0.00    +0.000 A 
ATOM     32  H   UNL     1      -5.949  14.151  18.596  0.00  0.00    +0.000 HD
ENDBRANCH  19  21
ENDBRANCH   1  17
TORSDOF 6
ENDMDL
MODEL 9
REMARK VINA RESULT:      -8.6      1.582      2.197
REMARK  Name = 
REMARK  7 active torsions:
REMARK  status: ('A' for Active; 'I' for Inactive)
REMARK    1  A    between atoms: C_1  and  C_2
REMARK    2  A    between atoms: C_6  and  C_7
REMARK    3  A    between atoms: C_7  and  O_8
REMARK    4  A    between atoms: O_8  and  C_9
REMARK    5  A    between atoms: C_13  and  C_14
REMARK    6  A    between atoms: C_14  and  C_15
REMARK    7  A    between atoms: N_17  and  C_18
REMARK                            x       y       z     vdW  Elec       q    Type
REMARK                         _______ _______ _______ _____ _____    ______ ____
ROOT
ATOM      1  C   UNL     1       8.477   8.306  17.485  0.00  0.00    +0.000 C 
ENDROOT
BRANCH   1   6
ATOM      2  C   UNL     1       5.322   6.187  17.807  0.00  0.00    +0.000 A 
ATOM      3  C   UNL     1       5.650   5.319  18.842  0.00  0.00    +0.000 A 
ATOM      4  C   UNL     1       6.931   5.358  19.406  0.00  0.00    +0.000 A 
ATOM      5  C   UNL     1       7.876   6.283  18.939  0.00  0.00    +0.000 A 
ATOM      6  C   UNL     1       7.562   7.155  17.903  0.00  0.00    +0.000 A 
ATOM      7  C   UNL     1       6.271   7.095  17.334  0.00  0.00    +0.000 A 
BRANCH   2   8
ATOM      8  O   UNL     1       4.030   6.119  17.390  0.00  0.00    +0.000 OA
BRANCH   8   9
ATOM      9  C   UNL     1       3.027   6.748  18.216  0.00  0.00    +0.000 C 
BRANCH   9  15
ATOM     10  C   UNL     1       2.223   1.969  17.832  0.00  0.00    +0.000 C 
ATOM     11  C   UNL     1       1.790   3.217  18.542  0.00  0.00    +0.000 A 
ATOM     12  C   UNL     1       1.319   3.180  19.857  0.00  0.00    +0.000 A 
ATOM     13  C   UNL     1       1.321   4.339  20.633  0.00  0.00    +0.000 A 
ATOM     14  C   UNL     1       1.831   5.531  20.106  0.00  0.00    +0.000 A 
ATOM     15  C   UNL     1       2.243   5.585  18.770  0.00  0.00    +0.000 A 
ATOM     16  C   UNL     1       2.140   4.440  17.972  0.00  0.00    +0.000 A 
ENDBRANCH   9  15
ENDBRANCH   8   9
ENDBRANCH   2   8
ENDBRANCH   1   6
BRANCH   1  17
ATOM     17  C   UNL     1       8.424   9.670  18.174  0.00  0.00    +0.000 C 
ATOM     18  O   UNL     1       7.673  10.534  17.736  0.00  0.00    +0.000 OA
ATOM     19  N   UNL     1       9.350   9.899  19.165  0.00  0.00    +0.000 N 
ATOM     20  H   UNL     1      10.047   9.163  19.304  0.00  0.00    +0.000 HD
BRANCH  19  21
ATOM     21  C   UNL     1       9.590  11.136  19.841  0.00  0.00    +0.000 A 
ATOM     22  C   UNL     1       9.145  11.141  21.165  0.00  0.00    +0.000 A 
ATOM     23  C   UNL     1       9.163  12.305  21.901  0.00  0.00    +0.000 A 
ATOM     24  C   UNL     1       9.637  13.466  21.301  0.00  0.00    +0.000 A 
ATOM     25  C   UNL     1       9.659  14.700  22.092  0.00  0.00    +0.000 A 
ATOM     26  O   UNL     1       8.792  14.961  22.915  0.00  0.00    +0.000 OA
ATOM     27  N   UNL     1      10.758  15.484  21.834  0.00  0.00    +0.000 N 
ATOM     28  C   UNL     1      11.324  15.555  20.586  0.00  0.00    +0.000 A 
ATOM     29  C   UNL     1      10.982  14.668  19.638  0.00  0.00    +0.000 A 
ATOM     30  C   UNL     1      10.211  13.460  20.025  0.00  0.00    +0.000 A 
ATOM     31  C   UNL     1      10.125  12.269  19.267  0.00  0.00    +0.000 A 
ATOM     32  H   UNL     1      11.303  15.752  22.641  0.00  0.00    +0.000 HD
ENDBRANCH  19  21
ENDBRANCH   1  17
TORSDOF 6
ENDMDL
