MODEL 1
REMARK VINA RESULT:      -7.8      0.000      0.000
REMARK  Name = 
REMARK  2 active torsions:
REMARK  status: ('A' for Active; 'I' for Inactive)
REMARK    1  A    between atoms: C_2  and  C_3
REMARK    2  A    between atoms: C_13  and  C_14
REMARK                            x       y       z     vdW  Elec       q    Type
REMARK                         _______ _______ _______ _____ _____    ______ ____
ROOT
ATOM      1  O   UNL     1       3.634   5.803  18.657  0.00  0.00    +0.000 OA
ATOM      2  C   UNL     1       2.716   6.143  19.404  0.00  0.00    +0.000 C 
ATOM      3  N   UNL     1       2.101   7.399  19.329  0.00  0.00    +0.000 N 
ATOM      4  C   UNL     1       2.220   8.140  18.073  0.00  0.00    +0.000 C 
ATOM      5  C   UNL     1       2.177   9.651  18.256  0.00  0.00    +0.000 C 
ATOM      6  C   UNL     1       1.143  10.178  19.273  0.00  0.00    +0.000 C 
ATOM      7  C   UNL     1       1.145   9.328  20.547  0.00  0.00    +0.000 C 
ATOM      8  C   UNL     1       1.054   7.846  20.255  0.00  0.00    +0.000 C 
ENDROOT
BRANCH   6   9
ATOM      9  C   UNL     1      -0.276  10.409  18.738  0.00  0.00    +0.000 A 
ATOM     10  C   UNL     1      -0.724   9.697  17.607  0.00  0.00    +0.000 A 
ATOM     11  C   UNL     1      -2.027   9.805  17.134  0.00  0.00    +0.000 A 
ATOM     12  C   UNL     1      -2.917  10.652  17.770  0.00  0.00    +0.000 A 
ATOM     13  C   UNL     1      -2.520  11.403  18.881  0.00  0.00    +0.000 A 
ATOM     14  C   UNL     1      -3.452  12.265  19.483  0.00  0.00    +0.000 A 
ATOM     15  C   UNL     1      -3.108  13.035  20.586  0.00  0.00    +0.000 A 
ATOM     16  C   UNL     1      -1.829  12.947  21.110  0.00  0.00    +0.000 A 
ATOM     17  C   UNL     1      -0.893  12.086  20.526  0.00  0.00    +0.000 A 
ATOM     18  C   UNL     1      -1.195  11.294  19.392  0.00  0.00    +0.000 A 
ENDBRANCH   6   9
BRANCH   2  19
ATOM     19  C   UNL     1       2.106   5.165  20.403  0.00  0.00    +0.000 C 
ATOM     20  C   UNL     1       2.978   4.013  20.935  0.00  0.00    +0.000 C 
ATOM     21  C   UNL     1       2.114   2.772  20.647  0.00  0.00    +0.000 C 
ATOM     22  C   UNL     1       2.177   2.416  19.163  0.00  0.00    +0.000 C 
ATOM     23  C   UNL     1       1.448   3.593  18.514  0.00  0.00    +0.000 C 
ATOM     24  C   UNL     1       0.958   4.391  19.733  0.00  0.00    +0.000 C 
ATOM     25  N   UNL     1       0.753   3.336  20.741  0.00  0.00    +0.000 NA
ATOM     26  H   UNL     1       0.064   2.662  20.405  0.00  0.00    +0.000 HD
ENDBRANCH   2  19
TORSDOF 2
ENDMDL
MODEL 2
REMARK VINA RESULT:      -7.3      2.512      7.645
REMARK  Name = 
REMARK  2 active torsions:
REMARK  status: ('A' for Active; 'I' for Inactive)
REMARK    1  A    between atoms: C_2  and  C_3
REMARK    2  A    between atoms: C_13  and  C_14
REMARK                            x       y       z     vdW  Elec       q    Type
REMARK                         _______ _______ _______ _____ _____    ______ ____
ROOT
ATOM      1  O   UNL     1      -1.195  10.998  20.311  0.00  0.00    +0.000 OA
ATOM      2  C   UNL     1      -0.618  10.443  19.375  0.00  0.00    +0.000 C 
ATOM      3  N   UNL     1       0.295   9.397  19.559  0.00  0.00    +0.000 N 
ATOM      4  C   UNL     1       0.222   8.643  20.810  0.00  0.00    +0.000 C 
ATOM      5  C   UNL     1       1.560   8.059  21.244  0.00  0.00    +0.000 C 
ATOM      6  C   UNL     1       2.426   7.451  20.121  0.00  0.00    +0.000 C 
ATOM      7  C   UNL     1       2.434   8.355  18.885  0.00  0.00    +0.000 C 
ATOM      8  C   UNL     1       1.042   8.771  18.462  0.00  0.00    +0.000 C 
ENDROOT
BRANCH   6   9
ATOM      9  C   UNL     1       2.138   5.987  19.762  0.00  0.00    +0.000 A 
ATOM     10  C   UNL     1       1.140   5.277  20.460  0.00  0.00    +0.000 A 
ATOM     11  C   UNL     1       0.781   3.979  20.117  0.00  0.00    +0.000 A 
ATOM     12  C   UNL     1       1.430   3.342  19.074  0.00  0.00    +0.000 A 
ATOM     13  C   UNL     1       2.447   3.989  18.364  0.00  0.00    +0.000 A 
ATOM     14  C   UNL     1       3.092   3.297  17.326  0.00  0.00    +0.000 A 
ATOM     15  C   UNL     1       4.110   3.892  16.592  0.00  0.00    +0.000 A 
ATOM     16  C   UNL     1       4.490   5.192  16.879  0.00  0.00    +0.000 A 
ATOM     17  C   UNL     1       3.850   5.897  17.904  0.00  0.00    +0.000 A 
ATOM     18  C   UNL     1       2.818   5.325  18.688  0.00  0.00    +0.000 A 
ENDBRANCH   6   9
BRANCH   2  19
ATOM     19  C   UNL     1      -0.945  10.791  17.927  0.00  0.00    +0.000 C 
ATOM     20  C   UNL     1      -1.798  12.041  17.643  0.00  0.00    +0.000 C 
ATOM     21  C   UNL     1      -2.932  11.486  16.763  0.00  0.00    +0.000 C 
ATOM     22  C   UNL     1      -3.945  10.729  17.619  0.00  0.00    +0.000 C 
ATOM     23  C   UNL     1      -3.140   9.515  18.080  0.00  0.00    +0.000 C 
ATOM     24  C   UNL     1      -1.818   9.683  17.314  0.00  0.00    +0.000 C 
ATOM     25  N   UNL     1      -2.251  10.367  16.082  0.00  0.00    +0.000 NA
ATOM     26  H   UNL     1      -2.928   9.789  15.583  0.00  0.00    +0.000 HD
ENDBRANCH   2  19
TORSDOF 2
ENDMDL
MODEL 3
REMARK VINA RESULT:      -7.3      1.129      1.210
REMARK  Name = 
REMARK  2 active torsions:
REMARK  status: ('A' for Active; 'I' for Inactive)
REMARK    1  A    between atoms: C_2  and  C_3
REMARK    2  A    between atoms: C_13  and  C_14
REMARK                            x       y       z     vdW  Elec       q    Type
REMARK                         _______ _______ _______ _____ _____    ______ ____
ROOT
ATOM      1  O   UNL     1       3.904   7.024  17.758  0.00  0.00    +0.000 OA
ATOM      2  C   UNL     1       2.952   7.029  18.538  0.00  0.00    +0.000 C 
ATOM      3  N   UNL     1       2.122   8.142  18.719  0.00  0.00    +0.000 N 
ATOM      4  C   UNL     1       2.087   9.144  17.654  0.00  0.00    +0.000 C 
ATOM      5  C   UNL     1       1.779  10.549  18.153  0.00  0.00    +0.000 C 
ATOM      6  C   UNL     1       0.684  10.654  19.235  0.00  0.00    +0.000 C 
ATOM      7  C   UNL     1       0.857   9.564  20.298  0.00  0.00    +0.000 C 
ATOM      8  C   UNL     1       1.027   8.187  19.694  0.00  0.00    +0.000 C 
ENDROOT
BRANCH   6   9
ATOM      9  C   UNL     1      -0.762  10.739  18.729  0.00  0.00    +0.000 A 
ATOM     10  C   UNL     1      -1.175   9.935  17.647  0.00  0.00    +0.000 A 
ATOM     11  C   UNL     1      -2.493   9.911  17.206  0.00  0.00    +0.000 A 
ATOM     12  C   UNL     1      -3.437  10.712  17.824  0.00  0.00    +0.000 A 
ATOM     13  C   UNL     1      -3.078  11.550  18.885  0.00  0.00    +0.000 A 
ATOM     14  C   UNL     1      -4.065  12.360  19.470  0.00  0.00    +0.000 A 
ATOM     15  C   UNL     1      -3.761  13.212  20.524  0.00  0.00    +0.000 A 
ATOM     16  C   UNL     1      -2.467  13.257  21.016  0.00  0.00    +0.000 A 
ATOM     17  C   UNL     1      -1.475  12.448  20.449  0.00  0.00    +0.000 A 
ATOM     18  C   UNL     1      -1.737  11.576  19.364  0.00  0.00    +0.000 A 
ENDBRANCH   6   9
BRANCH   2  19
ATOM     19  C   UNL     1       2.542   5.767  19.291  0.00  0.00    +0.000 C 
ATOM     20  C   UNL     1       3.634   4.931  19.983  0.00  0.00    +0.000 C 
ATOM     21  C   UNL     1       3.393   3.521  19.416  0.00  0.00    +0.000 C 
ATOM     22  C   UNL     1       3.926   3.425  17.989  0.00  0.00    +0.000 C 
ATOM     23  C   UNL     1       2.980   4.350  17.224  0.00  0.00    +0.000 C 
ATOM     24  C   UNL     1       1.958   4.742  18.303  0.00  0.00    +0.000 C 
ATOM     25  N   UNL     1       1.938   3.551  19.169  0.00  0.00    +0.000 NA
ATOM     26  H   UNL     1       1.651   2.733  18.630  0.00  0.00    +0.000 HD
ENDBRANCH   2  19
TORSDOF 2
ENDMDL
MODEL 4
REMARK VINA RESULT:      -7.0      2.783      7.855
REMARK  Name = 
REMARK  2 active torsions:
REMARK  status: ('A' for Active; 'I' for Inactive)
REMARK    1  A    between atoms: C_2  and  C_3
REMARK    2  A    between atoms: C_13  and  C_14
REMARK                            x       y       z     vdW  Elec       q    Type
REMARK                         _______ _______ _______ _____ _____    ______ ____
ROOT
ATOM      1  O   UNL     1      -1.060  10.434  20.164  0.00  0.00    +0.000 OA
ATOM      2  C   UNL     1      -0.471  10.156  19.119  0.00  0.00    +0.000 C 
ATOM      3  N   UNL     1       0.575   9.227  19.060  0.00  0.00    +0.000 N 
ATOM      4  C   UNL     1       0.667   8.238  20.135  0.00  0.00    +0.000 C 
ATOM      5  C   UNL     1       2.090   7.766  20.403  0.00  0.00    +0.000 C 
ATOM      6  C   UNL     1       2.961   7.512  19.155  0.00  0.00    +0.000 C 
ATOM      7  C   UNL     1       2.787   8.634  18.127  0.00  0.00    +0.000 C 
ATOM      8  C   UNL     1       1.333   8.935  17.838  0.00  0.00    +0.000 C 
ENDROOT
BRANCH   6   9
ATOM      9  C   UNL     1       2.840   6.122  18.516  0.00  0.00    +0.000 A 
ATOM     10  C   UNL     1       1.677   5.354  18.724  0.00  0.00    +0.000 A 
ATOM     11  C   UNL     1       1.481   4.128  18.099  0.00  0.00    +0.000 A 
ATOM     12  C   UNL     1       2.459   3.622  17.262  0.00  0.00    +0.000 A 
ATOM     13  C   UNL     1       3.645   4.329  17.040  0.00  0.00    +0.000 A 
ATOM     14  C   UNL     1       4.620   3.768  16.198  0.00  0.00    +0.000 A 
ATOM     15  C   UNL     1       5.816   4.427  15.947  0.00  0.00    +0.000 A 
ATOM     16  C   UNL     1       6.051   5.662  16.527  0.00  0.00    +0.000 A 
ATOM     17  C   UNL     1       5.086   6.238  17.362  0.00  0.00    +0.000 A 
ATOM     18  C   UNL     1       3.859   5.595  17.656  0.00  0.00    +0.000 A 
ENDBRANCH   6   9
BRANCH   2  19
ATOM     19  C   UNL     1      -0.920  10.735  17.781  0.00  0.00    +0.000 C 
ATOM     20  C   UNL     1      -1.789  12.006  17.780  0.00  0.00    +0.000 C 
ATOM     21  C   UNL     1      -2.996  11.592  16.920  0.00  0.00    +0.000 C 
ATOM     22  C   UNL     1      -3.935  10.695  17.723  0.00  0.00    +0.000 C 
ATOM     23  C   UNL     1      -3.099   9.429  17.908  0.00  0.00    +0.000 C 
ATOM     24  C   UNL     1      -1.847   9.734  17.070  0.00  0.00    +0.000 C 
ATOM     25  N   UNL     1      -2.381  10.607  16.009  0.00  0.00    +0.000 NA
ATOM     26  H   UNL     1      -3.100  10.112  15.481  0.00  0.00    +0.000 HD
ENDBRANCH   2  19
TORSDOF 2
ENDMDL
MODEL 5
REMARK VINA RESULT:      -7.0      3.540      8.184
REMARK  Name = 
REMARK  2 active torsions:
REMARK  status: ('A' for Active; 'I' for Inactive)
REMARK    1  A    between atoms: C_2  and  C_3
REMARK    2  A    between atoms: C_13  and  C_14
REMARK                            x       y       z     vdW  Elec       q    Type
REMARK                         _______ _______ _______ _____ _____    ______ ____
ROOT
ATOM      1  O   UNL     1       0.630  10.015  19.487  0.00  0.00    +0.000 OA
ATOM      2  C   UNL     1       1.043   8.995  20.040  0.00  0.00    +0.000 C 
ATOM      3  N   UNL     1       1.770   8.007  19.366  0.00  0.00    +0.000 N 
ATOM      4  C   UNL     1       2.448   8.388  18.127  0.00  0.00    +0.000 C 
ATOM      5  C   UNL     1       2.598   7.237  17.141  0.00  0.00    +0.000 C 
ATOM      6  C   UNL     1       2.988   5.875  17.750  0.00  0.00    +0.000 C 
ATOM      7  C   UNL     1       2.185   5.593  19.023  0.00  0.00    +0.000 C 
ATOM      8  C   UNL     1       2.210   6.755  19.992  0.00  0.00    +0.000 C 
ENDROOT
BRANCH   6   9
ATOM      9  C   UNL     1       4.489   5.627  17.949  0.00  0.00    +0.000 A 
ATOM     10  C   UNL     1       5.044   5.687  19.243  0.00  0.00    +0.000 A 
ATOM     11  C   UNL     1       6.379   5.386  19.489  0.00  0.00    +0.000 A 
ATOM     12  C   UNL     1       7.207   5.037  18.437  0.00  0.00    +0.000 A 
ATOM     13  C   UNL     1       6.717   4.987  17.128  0.00  0.00    +0.000 A 
ATOM     14  C   UNL     1       7.598   4.647  16.089  0.00  0.00    +0.000 A 
ATOM     15  C   UNL     1       7.163   4.586  14.771  0.00  0.00    +0.000 A 
ATOM     16  C   UNL     1       5.837   4.854  14.475  0.00  0.00    +0.000 A 
ATOM     17  C   UNL     1       4.946   5.186  15.502  0.00  0.00    +0.000 A 
ATOM     18  C   UNL     1       5.349   5.274  16.857  0.00  0.00    +0.000 A 
ENDBRANCH   6   9
BRANCH   2  19
ATOM     19  C   UNL     1       0.879   8.790  21.542  0.00  0.00    +0.000 C 
ATOM     20  C   UNL     1      -0.521   8.465  22.095  0.00  0.00    +0.000 C 
ATOM     21  C   UNL     1      -0.711   9.533  23.187  0.00  0.00    +0.000 C 
ATOM     22  C   UNL     1      -1.041  10.883  22.556  0.00  0.00    +0.000 C 
ATOM     23  C   UNL     1       0.264  11.239  21.846  0.00  0.00    +0.000 C 
ATOM     24  C   UNL     1       1.200  10.100  22.282  0.00  0.00    +0.000 C 
ATOM     25  N   UNL     1       0.682   9.759  23.619  0.00  0.00    +0.000 NA
ATOM     26  H   UNL     1       0.738  10.574  24.231  0.00  0.00    +0.000 HD
ENDBRANCH   2  19
TORSDOF 2
ENDMDL
MODEL 6
REMARK VINA RESULT:      -6.9      3.890      8.389
REMARK  Name = 
REMARK  2 active torsions:
REMARK  status: ('A' for Active; 'I' for Inactive)
REMARK    1  A    between atoms: C_2  and  C_3
REMARK    2  A    between atoms: C_13  and  C_14
REMARK                            x       y       z     vdW  Elec       q    Type
REMARK                         _______ _______ _______ _____ _____    ______ ____
ROOT
ATOM      1  O   UNL     1      -4.551  13.656  20.363  0.00  0.00    +0.000 OA
ATOM      2  C   UNL     1      -4.146  12.695  19.708  0.00  0.00    +0.000 C 
ATOM      3  N   UNL     1      -2.812  12.270  19.728  0.00  0.00    +0.000 N 
ATOM      4  C   UNL     1      -1.990  12.662  20.873  0.00  0.00    +0.000 C 
ATOM      5  C   UNL     1      -0.511  12.795  20.539  0.00  0.00    +0.000 C 
ATOM      6  C   UNL     1       0.071  11.707  19.613  0.00  0.00    +0.000 C 
ATOM      7  C   UNL     1      -0.877  11.416  18.446  0.00  0.00    +0.000 C 
ATOM      8  C   UNL     1      -2.299  11.171  18.903  0.00  0.00    +0.000 C 
ENDROOT
BRANCH   6   9
ATOM      9  C   UNL     1       0.553  10.422  20.298  0.00  0.00    +0.000 A 
ATOM     10  C   UNL     1       0.250  10.195  21.656  0.00  0.00    +0.000 A 
ATOM     11  C   UNL     1       0.588   9.010  22.300  0.00  0.00    +0.000 A 
ATOM     12  C   UNL     1       1.262   8.022  21.606  0.00  0.00    +0.000 A 
ATOM     13  C   UNL     1       1.612   8.203  20.264  0.00  0.00    +0.000 A 
ATOM     14  C   UNL     1       2.314   7.181  19.604  0.00  0.00    +0.000 A 
ATOM     15  C   UNL     1       2.688   7.312  18.273  0.00  0.00    +0.000 A 
ATOM     16  C   UNL     1       2.355   8.464  17.579  0.00  0.00    +0.000 A 
ATOM     17  C   UNL     1       1.649   9.487  18.221  0.00  0.00    +0.000 A 
ATOM     18  C   UNL     1       1.260   9.402  19.580  0.00  0.00    +0.000 A 
ENDBRANCH   6   9
BRANCH   2  19
ATOM     19  C   UNL     1      -5.107  11.825  18.905  0.00  0.00    +0.000 C 
ATOM     20  C   UNL     1      -5.717  12.398  17.613  0.00  0.00    +0.000 C 
ATOM     21  C   UNL     1      -7.227  12.195  17.831  0.00  0.00    +0.000 C 
ATOM     22  C   UNL     1      -7.767  13.243  18.801  0.00  0.00    +0.000 C 
ATOM     23  C   UNL     1      -7.098  12.846  20.116  0.00  0.00    +0.000 C 
ATOM     24  C   UNL     1      -6.370  11.546  19.737  0.00  0.00    +0.000 C 
ATOM     25  N   UNL     1      -7.240  10.992  18.684  0.00  0.00    +0.000 NA
ATOM     26  H   UNL     1      -8.176  10.828  19.056  0.00  0.00    +0.000 HD
ENDBRANCH   2  19
TORSDOF 2
ENDMDL
MODEL 7
REMARK VINA RESULT:      -6.8      2.422      3.736
REMARK  Name = 
REMARK  2 active torsions:
REMARK  status: ('A' for Active; 'I' for Inactive)
REMARK    1  A    between atoms: C_2  and  C_3
REMARK    2  A    between atoms: C_13  and  C_14
REMARK                            x       y       z     vdW  Elec       q    Type
REMARK                         _______ _______ _______ _____ _____    ______ ____
ROOT
ATOM      1  O   UNL     1       2.398   5.721  20.164  0.00  0.00    +0.000 OA
ATOM      2  C   UNL     1       2.426   6.468  19.186  0.00  0.00    +0.000 C 
ATOM      3  N   UNL     1       1.870   7.753  19.194  0.00  0.00    +0.000 N 
ATOM      4  C   UNL     1       1.667   8.397  20.491  0.00  0.00    +0.000 C 
ATOM      5  C   UNL     1       0.505   9.381  20.503  0.00  0.00    +0.000 C 
ATOM      6  C   UNL     1       0.371  10.281  19.257  0.00  0.00    +0.000 C 
ATOM      7  C   UNL     1       0.579   9.473  17.973  0.00  0.00    +0.000 C 
ATOM      8  C   UNL     1       1.834   8.628  18.017  0.00  0.00    +0.000 C 
ENDROOT
BRANCH   6   9
ATOM      9  C   UNL     1       1.196  11.574  19.265  0.00  0.00    +0.000 A 
ATOM     10  C   UNL     1       2.191  11.776  18.287  0.00  0.00    +0.000 A 
ATOM     11  C   UNL     1       2.907  12.965  18.196  0.00  0.00    +0.000 A 
ATOM     12  C   UNL     1       2.661  13.982  19.101  0.00  0.00    +0.000 A 
ATOM     13  C   UNL     1       1.703  13.827  20.109  0.00  0.00    +0.000 A 
ATOM     14  C   UNL     1       1.501  14.878  21.017  0.00  0.00    +0.000 A 
ATOM     15  C   UNL     1       0.565  14.774  22.038  0.00  0.00    +0.000 A 
ATOM     16  C   UNL     1      -0.190  13.620  22.158  0.00  0.00    +0.000 A 
ATOM     17  C   UNL     1      -0.006  12.567  21.255  0.00  0.00    +0.000 A 
ATOM     18  C   UNL     1       0.947  12.624  20.208  0.00  0.00    +0.000 A 
ENDBRANCH   6   9
BRANCH   2  19
ATOM     19  C   UNL     1       3.175   6.077  17.916  0.00  0.00    +0.000 C 
ATOM     20  C   UNL     1       3.125   4.611  17.450  0.00  0.00    +0.000 C 
ATOM     21  C   UNL     1       4.614   4.253  17.294  0.00  0.00    +0.000 C 
ATOM     22  C   UNL     1       5.247   4.017  18.663  0.00  0.00    +0.000 C 
ATOM     23  C   UNL     1       5.216   5.414  19.282  0.00  0.00    +0.000 C 
ATOM     24  C   UNL     1       4.686   6.276  18.125  0.00  0.00    +0.000 C 
ATOM     25  N   UNL     1       5.194   5.563  16.940  0.00  0.00    +0.000 NA
ATOM     26  H   UNL     1       6.213   5.521  16.969  0.00  0.00    +0.000 HD
ENDBRANCH   2  19
TORSDOF 2
ENDMDL
MODEL 8
REMARK VINA RESULT:      -6.7      2.659      4.003
REMARK  Name = 
REMARK  2 active torsions:
REMARK  status: ('A' for Active; 'I' for Inactive)
REMARK    1  A    between atoms: C_2  and  C_3
REMARK    2  A    between atoms: C_13  and  C_14
REMARK                            x       y       z     vdW  Elec       q    Type
REMARK                         _______ _______ _______ _____ _____    ______ ____
ROOT
ATOM      1  O   UNL     1       3.452   5.468  19.455  0.00  0.00    +0.000 OA
ATOM      2  C   UNL     1       3.339   6.318  18.571  0.00  0.00    +0.000 C 
ATOM      3  N   UNL     1       2.554   7.469  18.719  0.00  0.00    +0.000 N 
ATOM      4  C   UNL     1       2.239   7.906  20.078  0.00  0.00    +0.000 C 
ATOM      5  C   UNL     1       0.914   8.651  20.183  0.00  0.00    +0.000 C 
ATOM      6  C   UNL     1       0.613   9.652  19.048  0.00  0.00    +0.000 C 
ATOM      7  C   UNL     1       0.965   9.054  17.682  0.00  0.00    +0.000 C 
ATOM      8  C   UNL     1       2.354   8.456  17.652  0.00  0.00    +0.000 C 
ENDROOT
BRANCH   6   9
ATOM      9  C   UNL     1       1.185  11.065  19.223  0.00  0.00    +0.000 A 
ATOM     10  C   UNL     1       2.158  11.544  18.322  0.00  0.00    +0.000 A 
ATOM     11  C   UNL     1       2.644  12.845  18.384  0.00  0.00    +0.000 A 
ATOM     12  C   UNL     1       2.184  13.701  19.368  0.00  0.00    +0.000 A 
ATOM     13  C   UNL     1       1.238  13.272  20.305  0.00  0.00    +0.000 A 
ATOM     14  C   UNL     1       0.815  14.170  21.298  0.00  0.00    +0.000 A 
ATOM     15  C   UNL     1      -0.120  13.793  22.254  0.00  0.00    +0.000 A 
ATOM     16  C   UNL     1      -0.653  12.515  22.223  0.00  0.00    +0.000 A 
ATOM     17  C   UNL     1      -0.246  11.612  21.233  0.00  0.00    +0.000 A 
ATOM     18  C   UNL     1       0.714  11.949  20.248  0.00  0.00    +0.000 A 
ENDBRANCH   6   9
BRANCH   2  19
ATOM     19  C   UNL     1       4.144   6.226  17.280  0.00  0.00    +0.000 C 
ATOM     20  C   UNL     1       4.449   4.834  16.697  0.00  0.00    +0.000 C 
ATOM     21  C   UNL     1       5.978   4.865  16.523  0.00  0.00    +0.000 C 
ATOM     22  C   UNL     1       6.668   4.684  17.873  0.00  0.00    +0.000 C 
ATOM     23  C   UNL     1       6.303   5.977  18.602  0.00  0.00    +0.000 C 
ATOM     24  C   UNL     1       5.563   6.772  17.514  0.00  0.00    +0.000 C 
ATOM     25  N   UNL     1       6.214   6.302  16.279  0.00  0.00    +0.000 NA
ATOM     26  H   UNL     1       7.213   6.509  16.312  0.00  0.00    +0.000 HD
ENDBRANCH   2  19
TORSDOF 2
ENDMDL
MODEL 9
REMARK VINA RESULT:      -6.6      3.260      8.050
REMARK  Name = 
REMARK  2 active torsions:
REMARK  status: ('A' for Active; 'I' for Inactive)
REMARK    1  A    between atoms: C_2  and  C_3
REMARK    2  A    between atoms: C_13  and  C_14
REMARK                            x       y       z     vdW  Elec       q    Type
REMARK                         _______ _______ _______ _____ _____    ______ ____
ROOT
ATOM      1  O   UNL     1      -0.304  14.180  20.428  0.00  0.00    +0.000 OA
ATOM      2  C   UNL     1      -0.857  13.091  20.272  0.00  0.00    +0.000 C 
ATOM      3  N   UNL     1      -0.206  11.980  19.721  0.00  0.00    +0.000 N 
ATOM      4  C   UNL     1       1.256  11.961  19.760  0.00  0.00    +0.000 C 
ATOM      5  C   UNL     1       1.882  11.174  18.617  0.00  0.00    +0.000 C 
ATOM      6  C   UNL     1       1.184   9.848  18.251  0.00  0.00    +0.000 C 
ATOM      7  C   UNL     1      -0.338  10.019  18.220  0.00  0.00    +0.000 C 
ATOM      8  C   UNL     1      -0.869  10.697  19.464  0.00  0.00    +0.000 C 
ENDROOT
BRANCH   6   9
ATOM      9  C   UNL     1       1.608   8.614  19.058  0.00  0.00    +0.000 A 
ATOM     10  C   UNL     1       1.003   8.348  20.303  0.00  0.00    +0.000 A 
ATOM     11  C   UNL     1       1.289   7.200  21.033  0.00  0.00    +0.000 A 
ATOM     12  C   UNL     1       2.210   6.290  20.545  0.00  0.00    +0.000 A 
ATOM     13  C   UNL     1       2.861   6.515  19.328  0.00  0.00    +0.000 A 
ATOM     14  C   UNL     1       3.804   5.575  18.881  0.00  0.00    +0.000 A 
ATOM     15  C   UNL     1       4.480   5.752  17.681  0.00  0.00    +0.000 A 
ATOM     16  C   UNL     1       4.215   6.868  16.905  0.00  0.00    +0.000 A 
ATOM     17  C   UNL     1       3.272   7.809  17.333  0.00  0.00    +0.000 A 
ATOM     18  C   UNL     1       2.570   7.676  18.556  0.00  0.00    +0.000 A 
ENDBRANCH   6   9
BRANCH   2  19
ATOM     19  C   UNL     1      -2.276  12.846  20.773  0.00  0.00    +0.000 C 
ATOM     20  C   UNL     1      -3.195  14.059  21.011  0.00  0.00    +0.000 C 
ATOM     21  C   UNL     1      -3.670  13.847  22.460  0.00  0.00    +0.000 C 
ATOM     22  C   UNL     1      -2.562  14.226  23.441  0.00  0.00    +0.000 C 
ATOM     23  C   UNL     1      -1.513  13.145  23.182  0.00  0.00    +0.000 C 
ATOM     24  C   UNL     1      -2.228  12.224  22.179  0.00  0.00    +0.000 C 
ATOM     25  N   UNL     1      -3.642  12.375  22.563  0.00  0.00    +0.000 NA
ATOM     26  H   UNL     1      -3.773  12.083  23.532  0.00  0.00    +0.000 HD
ENDBRANCH   2  19
TORSDOF 2
ENDMDL
