MODEL 1
REMARK VINA RESULT:      -7.6      0.000      0.000
REMARK  Name = 
REMARK  4 active torsions:
REMARK  status: ('A' for Active; 'I' for Inactive)
REMARK    1  A    between atoms: C_4  and  C_5
REMARK    2  A    between atoms: C_11  and  C_12
REMARK    3  A    between atoms: C_21  and  C_22
REMARK    4  A    between atoms: C_25  and  O_26
REMARK                            x       y       z     vdW  Elec       q    Type
REMARK                         _______ _______ _______ _____ _____    ______ ____
ROOT
ATOM      1  O   UNL     1      -3.463  10.347  17.702  0.00  0.00    +0.000 OA
ATOM      2  C   UNL     1      -2.467  10.828  18.229  0.00  0.00    +0.000 C 
ATOM      3  N   UNL     1      -1.366  10.089  18.529  0.00  0.00    +0.000 N 
ATOM      4  C   UNL     1      -0.166  10.606  18.970  0.00  0.00    +0.000 C 
ATOM      5  C   UNL     1      -0.109  11.901  19.363  0.00  0.00    +0.000 C 
ATOM      6  C   UNL     1      -1.433  12.650  19.495  0.00  0.00    +0.000 C 
ATOM      7  N   UNL     1      -2.368  12.156  18.501  0.00  0.00    +0.000 N 
ATOM      8  H   UNL     1      -1.418   9.113  18.262  0.00  0.00    +0.000 HD
ATOM      9  H   UNL     1      -3.225  12.663  18.335  0.00  0.00    +0.000 HD
ENDROOT
BRANCH   5  10
ATOM     10  C   UNL     1       1.144  12.546  19.650  0.00  0.00    +0.000 A 
ATOM     11  N   UNL     1       1.640  12.849  20.837  0.00  0.00    +0.000 NA
ATOM     12  C   UNL     1       2.750  13.683  20.708  0.00  0.00    +0.000 A 
ATOM     13  C   UNL     1       3.512  14.240  21.760  0.00  0.00    +0.000 A 
ATOM     14  C   UNL     1       4.576  15.111  21.474  0.00  0.00    +0.000 A 
ATOM     15  C   UNL     1       4.891  15.428  20.158  0.00  0.00    +0.000 A 
ATOM     16  C   UNL     1       4.165  14.876  19.100  0.00  0.00    +0.000 A 
ATOM     17  C   UNL     1       3.101  14.005  19.398  0.00  0.00    +0.000 A 
ATOM     18  S   UNL     1       2.042  13.192  18.318  0.00  0.00    +0.000 S 
ENDBRANCH   5  10
BRANCH   4  19
ATOM     19  C   UNL     1       0.916   9.610  18.986  0.00  0.00    +0.000 A 
ATOM     20  C   UNL     1       1.089   8.830  20.139  0.00  0.00    +0.000 A 
ATOM     21  C   UNL     1       1.934   7.721  20.120  0.00  0.00    +0.000 A 
ATOM     22  C   UNL     1       2.615   7.389  18.951  0.00  0.00    +0.000 A 
ATOM     23  C   UNL     1       2.461   8.169  17.805  0.00  0.00    +0.000 A 
ATOM     24  C   UNL     1       1.611   9.278  17.820  0.00  0.00    +0.000 A 
ENDBRANCH   4  19
BRANCH   6  25
ATOM     25  C   UNL     1      -2.071  12.605  20.890  0.00  0.00    +0.000 A 
ATOM     26  C   UNL     1      -1.549  11.828  21.941  0.00  0.00    +0.000 A 
ATOM     27  C   UNL     1      -2.150  11.811  23.202  0.00  0.00    +0.000 A 
ATOM     28  C   UNL     1      -3.287  12.574  23.427  0.00  0.00    +0.000 A 
ATOM     29  C   UNL     1      -3.831  13.349  22.413  0.00  0.00    +0.000 A 
ATOM     30  C   UNL     1      -3.226  13.368  21.152  0.00  0.00    +0.000 A 
BRANCH  28  31
ATOM     31  O   UNL     1      -3.899  12.590  24.644  0.00  0.00    +0.000 OA
ATOM     32  H   UNL     1      -4.451  11.794  24.719  0.00  0.00    +0.000 HD
ENDBRANCH  28  31
ENDBRANCH   6  25
TORSDOF 4
ENDMDL
MODEL 2
REMARK VINA RESULT:      -7.3      2.121      5.939
REMARK  Name = 
REMARK  4 active torsions:
REMARK  status: ('A' for Active; 'I' for Inactive)
REMARK    1  A    between atoms: C_4  and  C_5
REMARK    2  A    between atoms: C_11  and  C_12
REMARK    3  A    between atoms: C_21  and  C_22
REMARK    4  A    between atoms: C_25  and  O_26
REMARK                            x       y       z     vdW  Elec       q    Type
REMARK                         _______ _______ _______ _____ _____    ______ ____
ROOT
ATOM      1  O   UNL     1      -2.903  14.114  20.686  0.00  0.00    +0.000 OA
ATOM      2  C   UNL     1      -2.141  13.224  20.329  0.00  0.00    +0.000 C 
ATOM      3  N   UNL     1      -0.876  13.471  19.897  0.00  0.00    +0.000 N 
ATOM      4  C   UNL     1       0.072  12.504  19.639  0.00  0.00    +0.000 C 
ATOM      5  C   UNL     1      -0.310  11.205  19.578  0.00  0.00    +0.000 C 
ATOM      6  C   UNL     1      -1.809  10.916  19.585  0.00  0.00    +0.000 C 
ATOM      7  N   UNL     1      -2.488  11.912  20.394  0.00  0.00    +0.000 N 
ATOM      8  H   UNL     1      -0.598  14.446  19.916  0.00  0.00    +0.000 HD
ATOM      9  H   UNL     1      -3.454  11.766  20.648  0.00  0.00    +0.000 HD
ENDROOT
BRANCH   5  10
ATOM     10  C   UNL     1       0.654  10.140  19.503  0.00  0.00    +0.000 A 
ATOM     11  N   UNL     1       1.397   9.799  18.464  0.00  0.00    +0.000 NA
ATOM     12  C   UNL     1       2.023   8.574  18.689  0.00  0.00    +0.000 A 
ATOM     13  C   UNL     1       2.861   7.878  17.788  0.00  0.00    +0.000 A 
ATOM     14  C   UNL     1       3.380   6.620  18.138  0.00  0.00    +0.000 A 
ATOM     15  C   UNL     1       3.080   6.053  19.370  0.00  0.00    +0.000 A 
ATOM     16  C   UNL     1       2.269   6.729  20.285  0.00  0.00    +0.000 A 
ATOM     17  C   UNL     1       1.755   7.988  19.925  0.00  0.00    +0.000 A 
ATOM     18  S   UNL     1       0.739   9.034  20.832  0.00  0.00    +0.000 S 
ENDBRANCH   5  10
BRANCH   4  19
ATOM     19  C   UNL     1       1.415  13.060  19.419  0.00  0.00    +0.000 A 
ATOM     20  C   UNL     1       1.778  13.436  18.118  0.00  0.00    +0.000 A 
ATOM     21  C   UNL     1       2.935  14.181  17.895  0.00  0.00    +0.000 A 
ATOM     22  C   UNL     1       3.739  14.551  18.971  0.00  0.00    +0.000 A 
ATOM     23  C   UNL     1       3.394  14.166  20.267  0.00  0.00    +0.000 A 
ATOM     24  C   UNL     1       2.232  13.424  20.494  0.00  0.00    +0.000 A 
ENDBRANCH   4  19
BRANCH   6  25
ATOM     25  C   UNL     1      -2.462  10.825  18.200  0.00  0.00    +0.000 A 
ATOM     26  C   UNL     1      -3.644  11.512  17.868  0.00  0.00    +0.000 A 
ATOM     27  C   UNL     1      -4.212  11.413  16.596  0.00  0.00    +0.000 A 
ATOM     28  C   UNL     1      -3.602  10.620  15.636  0.00  0.00    +0.000 A 
ATOM     29  C   UNL     1      -2.437   9.924  15.928  0.00  0.00    +0.000 A 
ATOM     30  C   UNL     1      -1.867  10.028  17.201  0.00  0.00    +0.000 A 
BRANCH  28  31
ATOM     31  O   UNL     1      -4.120  10.501  14.381  0.00  0.00    +0.000 OA
ATOM     32  H   UNL     1      -3.843   9.644  14.015  0.00  0.00    +0.000 HD
ENDBRANCH  28  31
ENDBRANCH   6  25
TORSDOF 4
ENDMDL
MODEL 3
REMARK VINA RESULT:      -7.0      3.672      6.692
REMARK  Name = 
REMARK  4 active torsions:
REMARK  status: ('A' for Active; 'I' for Inactive)
REMARK    1  A    between atoms: C_4  and  C_5
REMARK    2  A    between atoms: C_11  and  C_12
REMARK    3  A    between atoms: C_21  and  C_22
REMARK    4  A    between atoms: C_25  and  O_26
REMARK                            x       y       z     vdW  Elec       q    Type
REMARK                         _______ _______ _______ _____ _____    ______ ____
ROOT
ATOM      1  O   UNL     1      -0.866  14.967  24.789  0.00  0.00    +0.000 OA
ATOM      2  C   UNL     1      -1.255  14.462  23.743  0.00  0.00    +0.000 C 
ATOM      3  N   UNL     1      -1.397  15.173  22.592  0.00  0.00    +0.000 N 
ATOM      4  C   UNL     1      -1.672  14.626  21.358  0.00  0.00    +0.000 C 
ATOM      5  C   UNL     1      -2.059  13.331  21.279  0.00  0.00    +0.000 C 
ATOM      6  C   UNL     1      -2.376  12.616  22.591  0.00  0.00    +0.000 C 
ATOM      7  N   UNL     1      -1.518  13.133  23.641  0.00  0.00    +0.000 N 
ATOM      8  H   UNL     1      -1.133  16.150  22.656  0.00  0.00    +0.000 HD
ATOM      9  H   UNL     1      -1.473  12.648  24.525  0.00  0.00    +0.000 HD
ENDROOT
BRANCH   5  10
ATOM     10  C   UNL     1      -2.175  12.654  20.015  0.00  0.00    +0.000 A 
ATOM     11  N   UNL     1      -3.233  12.600  19.225  0.00  0.00    +0.000 NA
ATOM     12  C   UNL     1      -3.047  11.654  18.218  0.00  0.00    +0.000 A 
ATOM     13  C   UNL     1      -3.978  11.296  17.216  0.00  0.00    +0.000 A 
ATOM     14  C   UNL     1      -3.666  10.281  16.296  0.00  0.00    +0.000 A 
ATOM     15  C   UNL     1      -2.442   9.626  16.360  0.00  0.00    +0.000 A 
ATOM     16  C   UNL     1      -1.498   9.974  17.329  0.00  0.00    +0.000 A 
ATOM     17  C   UNL     1      -1.821  10.992  18.245  0.00  0.00    +0.000 A 
ATOM     18  S   UNL     1      -0.874  11.620  19.533  0.00  0.00    +0.000 S 
ENDBRANCH   5  10
BRANCH   4  19
ATOM     19  C   UNL     1      -1.533  15.593  20.259  0.00  0.00    +0.000 A 
ATOM     20  C   UNL     1      -2.407  16.690  20.219  0.00  0.00    +0.000 A 
ATOM     21  C   UNL     1      -2.169  17.751  19.347  0.00  0.00    +0.000 A 
ATOM     22  C   UNL     1      -1.059  17.721  18.505  0.00  0.00    +0.000 A 
ATOM     23  C   UNL     1      -0.194  16.626  18.527  0.00  0.00    +0.000 A 
ATOM     24  C   UNL     1      -0.428  15.564  19.403  0.00  0.00    +0.000 A 
ENDBRANCH   4  19
BRANCH   6  25
ATOM     25  C   UNL     1      -3.845  12.681  23.030  0.00  0.00    +0.000 A 
ATOM     26  C   UNL     1      -4.888  13.026  22.150  0.00  0.00    +0.000 A 
ATOM     27  C   UNL     1      -6.217  13.071  22.579  0.00  0.00    +0.000 A 
ATOM     28  C   UNL     1      -6.519  12.772  23.899  0.00  0.00    +0.000 A 
ATOM     29  C   UNL     1      -5.517  12.432  24.796  0.00  0.00    +0.000 A 
ATOM     30  C   UNL     1      -4.187  12.383  24.364  0.00  0.00    +0.000 A 
BRANCH  28  31
ATOM     31  O   UNL     1      -7.804  12.798  24.355  0.00  0.00    +0.000 OA
ATOM     32  H   UNL     1      -8.344  13.296  23.718  0.00  0.00    +0.000 HD
ENDBRANCH  28  31
ENDBRANCH   6  25
TORSDOF 4
ENDMDL
MODEL 4
REMARK VINA RESULT:      -7.0      0.987      1.344
REMARK  Name = 
REMARK  4 active torsions:
REMARK  status: ('A' for Active; 'I' for Inactive)
REMARK    1  A    between atoms: C_4  and  C_5
REMARK    2  A    between atoms: C_11  and  C_12
REMARK    3  A    between atoms: C_21  and  C_22
REMARK    4  A    between atoms: C_25  and  O_26
REMARK                            x       y       z     vdW  Elec       q    Type
REMARK                         _______ _______ _______ _____ _____    ______ ____
ROOT
ATOM      1  O   UNL     1      -4.063  10.149  17.803  0.00  0.00    +0.000 OA
ATOM      2  C   UNL     1      -3.106  10.758  18.266  0.00  0.00    +0.000 C 
ATOM      3  N   UNL     1      -1.929  10.152  18.576  0.00  0.00    +0.000 N 
ATOM      4  C   UNL     1      -0.776  10.811  18.944  0.00  0.00    +0.000 C 
ATOM      5  C   UNL     1      -0.837  12.129  19.251  0.00  0.00    +0.000 C 
ATOM      6  C   UNL     1      -2.225  12.752  19.379  0.00  0.00    +0.000 C 
ATOM      7  N   UNL     1      -3.133  12.104  18.450  0.00  0.00    +0.000 N 
ATOM      8  H   UNL     1      -1.891   9.159  18.373  0.00  0.00    +0.000 HD
ATOM      9  H   UNL     1      -4.039  12.513  18.279  0.00  0.00    +0.000 HD
ENDROOT
BRANCH   5  10
ATOM     10  C   UNL     1       0.353  12.910  19.455  0.00  0.00    +0.000 A 
ATOM     11  N   UNL     1       1.128  13.452  18.532  0.00  0.00    +0.000 NA
ATOM     12  C   UNL     1       2.314  13.919  19.098  0.00  0.00    +0.000 A 
ATOM     13  C   UNL     1       3.395  14.520  18.413  0.00  0.00    +0.000 A 
ATOM     14  C   UNL     1       4.552  14.894  19.116  0.00  0.00    +0.000 A 
ATOM     15  C   UNL     1       4.643  14.681  20.486  0.00  0.00    +0.000 A 
ATOM     16  C   UNL     1       3.581  14.105  21.188  0.00  0.00    +0.000 A 
ATOM     17  C   UNL     1       2.426  13.735  20.475  0.00  0.00    +0.000 A 
ATOM     18  S   UNL     1       0.985  13.010  21.063  0.00  0.00    +0.000 S 
ENDBRANCH   5  10
BRANCH   4  19
ATOM     19  C   UNL     1       0.399   9.929  18.988  0.00  0.00    +0.000 A 
ATOM     20  C   UNL     1       0.703   9.279  20.193  0.00  0.00    +0.000 A 
ATOM     21  C   UNL     1       1.653   8.259  20.225  0.00  0.00    +0.000 A 
ATOM     22  C   UNL     1       2.309   7.885  19.054  0.00  0.00    +0.000 A 
ATOM     23  C   UNL     1       2.024   8.538  17.854  0.00  0.00    +0.000 A 
ATOM     24  C   UNL     1       1.069   9.557  17.818  0.00  0.00    +0.000 A 
ENDBRANCH   4  19
BRANCH   6  25
ATOM     25  C   UNL     1      -2.818  12.738  20.794  0.00  0.00    +0.000 A 
ATOM     26  C   UNL     1      -2.139  12.192  21.899  0.00  0.00    +0.000 A 
ATOM     27  C   UNL     1      -2.704  12.198  23.176  0.00  0.00    +0.000 A 
ATOM     28  C   UNL     1      -3.962  12.752  23.364  0.00  0.00    +0.000 A 
ATOM     29  C   UNL     1      -4.663  13.296  22.297  0.00  0.00    +0.000 A 
ATOM     30  C   UNL     1      -4.094  13.293  21.020  0.00  0.00    +0.000 A 
BRANCH  28  31
ATOM     31  O   UNL     1      -4.545  12.783  24.596  0.00  0.00    +0.000 OA
ATOM     32  H   UNL     1      -3.975  13.300  25.191  0.00  0.00    +0.000 HD
ENDBRANCH  28  31
ENDBRANCH   6  25
TORSDOF 4
ENDMDL
MODEL 5
REMARK VINA RESULT:      -6.8      1.058      1.648
REMARK  Name = 
REMARK  4 active torsions:
REMARK  status: ('A' for Active; 'I' for Inactive)
REMARK    1  A    between atoms: C_4  and  C_5
REMARK    2  A    between atoms: C_11  and  C_12
REMARK    3  A    between atoms: C_21  and  C_22
REMARK    4  A    between atoms: C_25  and  O_26
REMARK                            x       y       z     vdW  Elec       q    Type
REMARK                         _______ _______ _______ _____ _____    ______ ____
ROOT
ATOM      1  O   UNL     1      -3.675   9.924  17.073  0.00  0.00    +0.000 OA
ATOM      2  C   UNL     1      -2.791  10.558  17.636  0.00  0.00    +0.000 C 
ATOM      3  N   UNL     1      -1.659   9.974  18.113  0.00  0.00    +0.000 N 
ATOM      4  C   UNL     1      -0.568  10.656  18.605  0.00  0.00    +0.000 C 
ATOM      5  C   UNL     1      -0.677  11.982  18.860  0.00  0.00    +0.000 C 
ATOM      6  C   UNL     1      -2.074  12.594  18.789  0.00  0.00    +0.000 C 
ATOM      7  N   UNL     1      -2.849  11.908  17.772  0.00  0.00    +0.000 N 
ATOM      8  H   UNL     1      -1.589   8.976  17.948  0.00  0.00    +0.000 HD
ATOM      9  H   UNL     1      -3.730  12.302  17.474  0.00  0.00    +0.000 HD
ENDROOT
BRANCH   5  10
ATOM     10  C   UNL     1       0.472  12.782  19.191  0.00  0.00    +0.000 A 
ATOM     11  N   UNL     1       1.318  13.359  18.355  0.00  0.00    +0.000 NA
ATOM     12  C   UNL     1       2.435  13.837  19.040  0.00  0.00    +0.000 A 
ATOM     13  C   UNL     1       3.561  14.475  18.471  0.00  0.00    +0.000 A 
ATOM     14  C   UNL     1       4.640  14.856  19.287  0.00  0.00    +0.000 A 
ATOM     15  C   UNL     1       4.608  14.614  20.655  0.00  0.00    +0.000 A 
ATOM     16  C   UNL     1       3.498  14.001  21.243  0.00  0.00    +0.000 A 
ATOM     17  C   UNL     1       2.423  13.624  20.417  0.00  0.00    +0.000 A 
ATOM     18  S   UNL     1       0.950  12.857  20.853  0.00  0.00    +0.000 S 
ENDBRANCH   5  10
BRANCH   4  19
ATOM     19  C   UNL     1       0.599   9.788  18.827  0.00  0.00    +0.000 A 
ATOM     20  C   UNL     1       0.741   9.167  20.077  0.00  0.00    +0.000 A 
ATOM     21  C   UNL     1       1.687   8.159  20.259  0.00  0.00    +0.000 A 
ATOM     22  C   UNL     1       2.499   7.768  19.197  0.00  0.00    +0.000 A 
ATOM     23  C   UNL     1       2.374   8.393  17.955  0.00  0.00    +0.000 A 
ATOM     24  C   UNL     1       1.424   9.400  17.768  0.00  0.00    +0.000 A 
ENDBRANCH   4  19
BRANCH   6  25
ATOM     25  C   UNL     1      -2.844  12.616  20.116  0.00  0.00    +0.000 A 
ATOM     26  C   UNL     1      -4.225  12.878  20.191  0.00  0.00    +0.000 A 
ATOM     27  C   UNL     1      -4.899  12.886  21.414  0.00  0.00    +0.000 A 
ATOM     28  C   UNL     1      -4.196  12.634  22.583  0.00  0.00    +0.000 A 
ATOM     29  C   UNL     1      -2.834  12.376  22.548  0.00  0.00    +0.000 A 
ATOM     30  C   UNL     1      -2.161  12.363  21.322  0.00  0.00    +0.000 A 
BRANCH  28  31
ATOM     31  O   UNL     1      -4.819  12.627  23.796  0.00  0.00    +0.000 OA
ATOM     32  H   UNL     1      -4.170  12.365  24.470  0.00  0.00    +0.000 HD
ENDBRANCH  28  31
ENDBRANCH   6  25
TORSDOF 4
ENDMDL
MODEL 6
REMARK VINA RESULT:      -6.6      2.719      3.486
REMARK  Name = 
REMARK  4 active torsions:
REMARK  status: ('A' for Active; 'I' for Inactive)
REMARK    1  A    between atoms: C_4  and  C_5
REMARK    2  A    between atoms: C_11  and  C_12
REMARK    3  A    between atoms: C_21  and  C_22
REMARK    4  A    between atoms: C_25  and  O_26
REMARK                            x       y       z     vdW  Elec       q    Type
REMARK                         _______ _______ _______ _____ _____    ______ ____
ROOT
ATOM      1  O   UNL     1      -2.755   9.655  15.352  0.00  0.00    +0.000 OA
ATOM      2  C   UNL     1      -2.493  10.291  16.366  0.00  0.00    +0.000 C 
ATOM      3  N   UNL     1      -1.663   9.819  17.334  0.00  0.00    +0.000 N 
ATOM      4  C   UNL     1      -1.209  10.553  18.408  0.00  0.00    +0.000 C 
ATOM      5  C   UNL     1      -1.782  11.750  18.680  0.00  0.00    +0.000 C 
ATOM      6  C   UNL     1      -3.046  12.112  17.904  0.00  0.00    +0.000 C 
ATOM      7  N   UNL     1      -2.970  11.546  16.569  0.00  0.00    +0.000 N 
ATOM      8  H   UNL     1      -1.255   8.911  17.145  0.00  0.00    +0.000 HD
ATOM      9  H   UNL     1      -3.638  11.838  15.872  0.00  0.00    +0.000 HD
ENDROOT
BRANCH   5  10
ATOM     10  C   UNL     1      -1.230  12.643  19.664  0.00  0.00    +0.000 A 
ATOM     11  N   UNL     1      -1.526  12.705  20.950  0.00  0.00    +0.000 NA
ATOM     12  C   UNL     1      -0.976  13.851  21.526  0.00  0.00    +0.000 A 
ATOM     13  C   UNL     1      -1.117  14.269  22.870  0.00  0.00    +0.000 A 
ATOM     14  C   UNL     1      -0.546  15.480  23.293  0.00  0.00    +0.000 A 
ATOM     15  C   UNL     1       0.163  16.274  22.399  0.00  0.00    +0.000 A 
ATOM     16  C   UNL     1       0.331  15.874  21.071  0.00  0.00    +0.000 A 
ATOM     17  C   UNL     1      -0.245  14.658  20.658  0.00  0.00    +0.000 A 
ATOM     18  S   UNL     1      -0.209  13.925  19.106  0.00  0.00    +0.000 S 
ENDBRANCH   5  10
BRANCH   4  19
ATOM     19  C   UNL     1      -0.143   9.873  19.159  0.00  0.00    +0.000 A 
ATOM     20  C   UNL     1      -0.396   9.495  20.485  0.00  0.00    +0.000 A 
ATOM     21  C   UNL     1       0.482   8.645  21.157  0.00  0.00    +0.000 A 
ATOM     22  C   UNL     1       1.621   8.172  20.509  0.00  0.00    +0.000 A 
ATOM     23  C   UNL     1       1.888   8.557  19.194  0.00  0.00    +0.000 A 
ATOM     24  C   UNL     1       1.008   9.404  18.518  0.00  0.00    +0.000 A 
ENDBRANCH   4  19
BRANCH   6  25
ATOM     25  C   UNL     1      -4.363  11.706  18.577  0.00  0.00    +0.000 A 
ATOM     26  C   UNL     1      -5.194  10.689  18.072  0.00  0.00    +0.000 A 
ATOM     27  C   UNL     1      -6.386  10.338  18.711  0.00  0.00    +0.000 A 
ATOM     28  C   UNL     1      -6.764  11.006  19.867  0.00  0.00    +0.000 A 
ATOM     29  C   UNL     1      -5.971  12.017  20.391  0.00  0.00    +0.000 A 
ATOM     30  C   UNL     1      -4.776  12.364  19.753  0.00  0.00    +0.000 A 
BRANCH  28  31
ATOM     31  O   UNL     1      -7.916  10.690  20.523  0.00  0.00    +0.000 OA
ATOM     32  H   UNL     1      -8.199   9.806  20.234  0.00  0.00    +0.000 HD
ENDBRANCH  28  31
ENDBRANCH   6  25
TORSDOF 4
ENDMDL
MODEL 7
REMARK VINA RESULT:      -6.6      3.302      6.577
REMARK  Name = 
REMARK  4 active torsions:
REMARK  status: ('A' for Active; 'I' for Inactive)
REMARK    1  A    between atoms: C_4  and  C_5
REMARK    2  A    between atoms: C_11  and  C_12
REMARK    3  A    between atoms: C_21  and  C_22
REMARK    4  A    between atoms: C_25  and  O_26
REMARK                            x       y       z     vdW  Elec       q    Type
REMARK                         _______ _______ _______ _____ _____    ______ ____
ROOT
ATOM      1  O   UNL     1      -0.442  15.619  23.896  0.00  0.00    +0.000 OA
ATOM      2  C   UNL     1      -0.722  14.982  22.888  0.00  0.00    +0.000 C 
ATOM      3  N   UNL     1      -0.330  13.694  22.701  0.00  0.00    +0.000 N 
ATOM      4  C   UNL     1      -0.750  12.884  21.668  0.00  0.00    +0.000 C 
ATOM      5  C   UNL     1      -1.414  13.436  20.624  0.00  0.00    +0.000 C 
ATOM      6  C   UNL     1      -1.466  14.960  20.556  0.00  0.00    +0.000 C 
ATOM      7  N   UNL     1      -1.499  15.502  21.902  0.00  0.00    +0.000 N 
ATOM      8  H   UNL     1       0.192  13.288  23.470  0.00  0.00    +0.000 HD
ATOM      9  H   UNL     1      -1.713  16.479  22.035  0.00  0.00    +0.000 HD
ENDROOT
BRANCH   5  10
ATOM     10  C   UNL     1      -2.041  12.623  19.616  0.00  0.00    +0.000 A 
ATOM     11  N   UNL     1      -1.491  12.142  18.514  0.00  0.00    +0.000 NA
ATOM     12  C   UNL     1      -2.467  11.615  17.669  0.00  0.00    +0.000 A 
ATOM     13  C   UNL     1      -2.257  11.051  16.389  0.00  0.00    +0.000 A 
ATOM     14  C   UNL     1      -3.351  10.608  15.628  0.00  0.00    +0.000 A 
ATOM     15  C   UNL     1      -4.644  10.715  16.125  0.00  0.00    +0.000 A 
ATOM     16  C   UNL     1      -4.876  11.252  17.393  0.00  0.00    +0.000 A 
ATOM     17  C   UNL     1      -3.773  11.693  18.148  0.00  0.00    +0.000 A 
ATOM     18  S   UNL     1      -3.753  12.393  19.716  0.00  0.00    +0.000 S 
ENDBRANCH   5  10
BRANCH   4  19
ATOM     19  C   UNL     1      -0.359  11.478  21.845  0.00  0.00    +0.000 A 
ATOM     20  C   UNL     1       0.634  10.949  21.008  0.00  0.00    +0.000 A 
ATOM     21  C   UNL     1       1.205   9.708  21.287  0.00  0.00    +0.000 A 
ATOM     22  C   UNL     1       0.784   8.986  22.401  0.00  0.00    +0.000 A 
ATOM     23  C   UNL     1      -0.215   9.497  23.230  0.00  0.00    +0.000 A 
ATOM     24  C   UNL     1      -0.786  10.743  22.956  0.00  0.00    +0.000 A 
ENDBRANCH   4  19
BRANCH   6  25
ATOM     25  C   UNL     1      -0.336  15.615  19.751  0.00  0.00    +0.000 A 
ATOM     26  C   UNL     1      -0.423  16.925  19.244  0.00  0.00    +0.000 A 
ATOM     27  C   UNL     1       0.625  17.496  18.518  0.00  0.00    +0.000 A 
ATOM     28  C   UNL     1       1.778  16.759  18.287  0.00  0.00    +0.000 A 
ATOM     29  C   UNL     1       1.897  15.463  18.768  0.00  0.00    +0.000 A 
ATOM     30  C   UNL     1       0.849  14.894  19.498  0.00  0.00    +0.000 A 
BRANCH  28  31
ATOM     31  O   UNL     1       2.825  17.281  17.589  0.00  0.00    +0.000 OA
ATOM     32  H   UNL     1       2.636  18.218  17.411  0.00  0.00    +0.000 HD
ENDBRANCH  28  31
ENDBRANCH   6  25
TORSDOF 4
ENDMDL
MODEL 8
REMARK VINA RESULT:      -6.6      3.317      6.423
REMARK  Name = 
REMARK  4 active torsions:
REMARK  status: ('A' for Active; 'I' for Inactive)
REMARK    1  A    between atoms: C_4  and  C_5
REMARK    2  A    between atoms: C_11  and  C_12
REMARK    3  A    between atoms: C_21  and  C_22
REMARK    4  A    between atoms: C_25  and  O_26
REMARK                            x       y       z     vdW  Elec       q    Type
REMARK                         _______ _______ _______ _____ _____    ______ ____
ROOT
ATOM      1  O   UNL     1      -0.467  15.629  23.877  0.00  0.00    +0.000 OA
ATOM      2  C   UNL     1      -0.732  14.988  22.868  0.00  0.00    +0.000 C 
ATOM      3  N   UNL     1      -0.277  13.723  22.661  0.00  0.00    +0.000 N 
ATOM      4  C   UNL     1      -0.674  12.902  21.628  0.00  0.00    +0.000 C 
ATOM      5  C   UNL     1      -1.386  13.427  20.602  0.00  0.00    +0.000 C 
ATOM      6  C   UNL     1      -1.519  14.947  20.551  0.00  0.00    +0.000 C 
ATOM      7  N   UNL     1      -1.555  15.474  21.903  0.00  0.00    +0.000 N 
ATOM      8  H   UNL     1       0.281  13.339  23.415  0.00  0.00    +0.000 HD
ATOM      9  H   UNL     1      -1.818  16.438  22.049  0.00  0.00    +0.000 HD
ENDROOT
BRANCH   5  10
ATOM     10  C   UNL     1      -1.989  12.591  19.598  0.00  0.00    +0.000 A 
ATOM     11  N   UNL     1      -1.416  12.095  18.515  0.00  0.00    +0.000 NA
ATOM     12  C   UNL     1      -2.373  11.545  17.663  0.00  0.00    +0.000 A 
ATOM     13  C   UNL     1      -2.136  10.960  16.397  0.00  0.00    +0.000 A 
ATOM     14  C   UNL     1      -3.213  10.494  15.625  0.00  0.00    +0.000 A 
ATOM     15  C   UNL     1      -4.516  10.599  16.098  0.00  0.00    +0.000 A 
ATOM     16  C   UNL     1      -4.774  11.157  17.353  0.00  0.00    +0.000 A 
ATOM     17  C   UNL     1      -3.687  11.620  18.118  0.00  0.00    +0.000 A 
ATOM     18  S   UNL     1      -3.701  12.348  19.673  0.00  0.00    +0.000 S 
ENDBRANCH   5  10
BRANCH   4  19
ATOM     19  C   UNL     1      -0.206  11.517  21.784  0.00  0.00    +0.000 A 
ATOM     20  C   UNL     1      -0.841  10.700  22.731  0.00  0.00    +0.000 A 
ATOM     21  C   UNL     1      -0.602   9.326  22.752  0.00  0.00    +0.000 A 
ATOM     22  C   UNL     1       0.278   8.762  21.831  0.00  0.00    +0.000 A 
ATOM     23  C   UNL     1       0.927   9.570  20.897  0.00  0.00    +0.000 A 
ATOM     24  C   UNL     1       0.685  10.946  20.870  0.00  0.00    +0.000 A 
ENDBRANCH   4  19
BRANCH   6  25
ATOM     25  C   UNL     1      -0.442  15.668  19.730  0.00  0.00    +0.000 A 
ATOM     26  C   UNL     1       0.821  15.105  19.469  0.00  0.00    +0.000 A 
ATOM     27  C   UNL     1       1.779  15.784  18.715  0.00  0.00    +0.000 A 
ATOM     28  C   UNL     1       1.486  17.043  18.211  0.00  0.00    +0.000 A 
ATOM     29  C   UNL     1       0.253  17.632  18.452  0.00  0.00    +0.000 A 
ATOM     30  C   UNL     1      -0.708  16.949  19.204  0.00  0.00    +0.000 A 
BRANCH  28  31
ATOM     31  O   UNL     1       2.392  17.737  17.465  0.00  0.00    +0.000 OA
ATOM     32  H   UNL     1       2.484  18.626  17.846  0.00  0.00    +0.000 HD
ENDBRANCH  28  31
ENDBRANCH   6  25
TORSDOF 4
ENDMDL
MODEL 9
REMARK VINA RESULT:      -6.6      2.888      6.015
REMARK  Name = 
REMARK  4 active torsions:
REMARK  status: ('A' for Active; 'I' for Inactive)
REMARK    1  A    between atoms: C_4  and  C_5
REMARK    2  A    between atoms: C_11  and  C_12
REMARK    3  A    between atoms: C_21  and  C_22
REMARK    4  A    between atoms: C_25  and  O_26
REMARK                            x       y       z     vdW  Elec       q    Type
REMARK                         _______ _______ _______ _____ _____    ______ ____
ROOT
ATOM      1  O   UNL     1      -0.265   9.370  22.995  0.00  0.00    +0.000 OA
ATOM      2  C   UNL     1      -0.323  10.456  22.431  0.00  0.00    +0.000 C 
ATOM      3  N   UNL     1      -1.122  11.467  22.865  0.00  0.00    +0.000 N 
ATOM      4  C   UNL     1      -1.106  12.753  22.369  0.00  0.00    +0.000 C 
ATOM      5  C   UNL     1      -0.431  13.011  21.224  0.00  0.00    +0.000 C 
ATOM      6  C   UNL     1       0.092  11.812  20.436  0.00  0.00    +0.000 C 
ATOM      7  N   UNL     1       0.456  10.751  21.358  0.00  0.00    +0.000 N 
ATOM      8  H   UNL     1      -1.650  11.266  23.707  0.00  0.00    +0.000 HD
ATOM      9  H   UNL     1       0.983   9.961  21.017  0.00  0.00    +0.000 HD
ENDROOT
BRANCH   5  10
ATOM     10  C   UNL     1      -0.218  14.357  20.762  0.00  0.00    +0.000 A 
ATOM     11  N   UNL     1      -1.025  15.086  20.011  0.00  0.00    +0.000 NA
ATOM     12  C   UNL     1      -0.374  16.237  19.566  0.00  0.00    +0.000 A 
ATOM     13  C   UNL     1      -0.909  17.230  18.713  0.00  0.00    +0.000 A 
ATOM     14  C   UNL     1      -0.110  18.312  18.307  0.00  0.00    +0.000 A 
ATOM     15  C   UNL     1       1.205  18.418  18.741  0.00  0.00    +0.000 A 
ATOM     16  C   UNL     1       1.750  17.460  19.600  0.00  0.00    +0.000 A 
ATOM     17  C   UNL     1       0.942  16.380  20.001  0.00  0.00    +0.000 A 
ATOM     18  S   UNL     1       1.338  15.065  21.031  0.00  0.00    +0.000 S 
ENDBRANCH   5  10
BRANCH   4  19
ATOM     19  C   UNL     1      -1.898  13.690  23.180  0.00  0.00    +0.000 A 
ATOM     20  C   UNL     1      -3.295  13.565  23.172  0.00  0.00    +0.000 A 
ATOM     21  C   UNL     1      -4.072  14.263  24.096  0.00  0.00    +0.000 A 
ATOM     22  C   UNL     1      -3.457  15.095  25.030  0.00  0.00    +0.000 A 
ATOM     23  C   UNL     1      -2.069  15.238  25.033  0.00  0.00    +0.000 A 
ATOM     24  C   UNL     1      -1.289  14.535  24.112  0.00  0.00    +0.000 A 
ENDBRANCH   4  19
BRANCH   6  25
ATOM     25  C   UNL     1      -0.859  11.275  19.360  0.00  0.00    +0.000 A 
ATOM     26  C   UNL     1      -2.185  11.724  19.222  0.00  0.00    +0.000 A 
ATOM     27  C   UNL     1      -3.026  11.218  18.228  0.00  0.00    +0.000 A 
ATOM     28  C   UNL     1      -2.548  10.251  17.356  0.00  0.00    +0.000 A 
ATOM     29  C   UNL     1      -1.247   9.781  17.464  0.00  0.00    +0.000 A 
ATOM     30  C   UNL     1      -0.405  10.291  18.458  0.00  0.00    +0.000 A 
BRANCH  28  31
ATOM     31  O   UNL     1      -3.334   9.736  16.368  0.00  0.00    +0.000 OA
ATOM     32  H   UNL     1      -3.228  10.288  15.575  0.00  0.00    +0.000 HD
ENDBRANCH  28  31
ENDBRANCH   6  25
TORSDOF 4
ENDMDL
