MODEL 1
REMARK VINA RESULT:      -8.7      0.000      0.000
REMARK  Name = 
REMARK  10 active torsions:
REMARK  status: ('A' for Active; 'I' for Inactive)
REMARK    1  A    between atoms: C_1  and  O_2
REMARK    2  A    between atoms: O_2  and  C_3
REMARK    3  A    between atoms: C_8  and  N_9
REMARK    4  A    between atoms: N_9  and  S_10
REMARK    5  A    between atoms: S_10  and  C_13
REMARK    6  A    between atoms: C_17  and  C_18
REMARK    7  A    between atoms: N_20  and  C_21
REMARK    8  A    between atoms: C_21  and  C_22
REMARK    9  A    between atoms: N_24  and  C_25
REMARK   10  A    between atoms: C_25  and  C_26
REMARK                            x       y       z     vdW  Elec       q    Type
REMARK                         _______ _______ _______ _____ _____    ______ ____
ROOT
ATOM      1  C   UNL     1       4.807   5.902  18.559  0.00  0.00    +0.000 A 
ATOM      2  C   UNL     1       4.758   6.638  17.370  0.00  0.00    +0.000 A 
ATOM      3  C   UNL     1       3.728   7.560  17.172  0.00  0.00    +0.000 A 
ATOM      4  C   UNL     1       2.745   7.732  18.151  0.00  0.00    +0.000 A 
ATOM      5  C   UNL     1       2.792   6.987  19.339  0.00  0.00    +0.000 A 
ATOM      6  C   UNL     1       3.850   6.101  19.555  0.00  0.00    +0.000 A 
ENDROOT
BRANCH   5   7
ATOM      7  C   UNL     1       1.716   7.167  20.347  0.00  0.00    +0.000 C 
ATOM      8  O   UNL     1       1.293   6.212  20.985  0.00  0.00    +0.000 OA
ATOM      9  N   UNL     1       1.272   8.463  20.519  0.00  0.00    +0.000 N 
ATOM     10  H   UNL     1       1.822   9.237  20.172  0.00  0.00    +0.000 HD
BRANCH   9  11
ATOM     11  C   UNL     1       0.279   8.795  21.519  0.00  0.00    +0.000 C 
BRANCH  11  12
ATOM     12  C   UNL     1      -0.323  10.190  21.316  0.00  0.00    +0.000 C 
ATOM     13  C   UNL     1      -0.066  10.738  19.896  0.00  0.00    +0.000 C 
ATOM     14  N   UNL     1      -0.738  12.039  19.660  0.00  0.00    +0.000 NA
ATOM     15  C   UNL     1      -0.283  12.968  20.724  0.00  0.00    +0.000 C 
ATOM     16  C   UNL     1      -0.401  12.400  22.157  0.00  0.00    +0.000 C 
ATOM     17  O   UNL     1       0.217  11.108  22.292  0.00  0.00    +0.000 OA
BRANCH  14  18
ATOM     18  C   UNL     1      -2.211  11.945  19.651  0.00  0.00    +0.000 C 
BRANCH  18  19
ATOM     19  C   UNL     1      -2.826  11.533  18.330  0.00  0.00    +0.000 A 
ATOM     20  C   UNL     1      -4.221  11.508  18.169  0.00  0.00    +0.000 A 
ATOM     21  C   UNL     1      -4.790  11.189  16.935  0.00  0.00    +0.000 A 
ATOM     22  C   UNL     1      -3.972  10.893  15.847  0.00  0.00    +0.000 A 
ATOM     23  C   UNL     1      -2.586  10.901  15.996  0.00  0.00    +0.000 A 
ATOM     24  C   UNL     1      -2.014  11.212  17.233  0.00  0.00    +0.000 A 
ENDBRANCH  18  19
ENDBRANCH  14  18
ENDBRANCH  11  12
ENDBRANCH   9  11
ENDBRANCH   5   7
BRANCH   1  25
ATOM     25  S   UNL     1       6.146   4.773  18.874  0.00  0.00    +0.000 S 
ATOM     26  O   UNL     1       6.921   5.298  19.976  0.00  0.00    +0.000 OA
ATOM     27  O   UNL     1       6.764   4.484  17.595  0.00  0.00    +0.000 OA
BRANCH  25  28
ATOM     28  N   UNL     1       5.354   3.350  19.339  0.00  0.00    +0.000 N 
ATOM     29  H   UNL     1       5.455   3.245  20.351  0.00  0.00    +0.000 HD
BRANCH  28  35
ATOM     30  C   UNL     1       2.954   2.944  19.768  0.00  0.00    +0.000 A 
ATOM     31  C   UNL     1       1.671   2.706  19.260  0.00  0.00    +0.000 A 
ATOM     32  C   UNL     1       1.453   2.657  17.880  0.00  0.00    +0.000 A 
ATOM     33  C   UNL     1       2.511   2.851  16.996  0.00  0.00    +0.000 A 
ATOM     34  C   UNL     1       3.794   3.086  17.489  0.00  0.00    +0.000 A 
ATOM     35  C   UNL     1       4.019   3.129  18.865  0.00  0.00    +0.000 A 
BRANCH  30  37
ATOM     36  C   UNL     1       2.181   2.897  22.020  0.00  0.00    +0.000 C 
ATOM     37  O   UNL     1       3.268   2.993  21.104  0.00  0.00    +0.000 OA
ENDBRANCH  30  37
ENDBRANCH  28  35
ENDBRANCH  25  28
ENDBRANCH   1  25
TORSDOF 9
ENDMDL
MODEL 2
REMARK VINA RESULT:      -8.6      3.138      9.604
REMARK  Name = 
REMARK  10 active torsions:
REMARK  status: ('A' for Active; 'I' for Inactive)
REMARK    1  A    between atoms: C_1  and  O_2
REMARK    2  A    between atoms: O_2  and  C_3
REMARK    3  A    between atoms: C_8  and  N_9
REMARK    4  A    between atoms: N_9  and  S_10
REMARK    5  A    between atoms: S_10  and  C_13
REMARK    6  A    between atoms: C_17  and  C_18
REMARK    7  A    between atoms: N_20  and  C_21
REMARK    8  A    between atoms: C_21  and  C_22
REMARK    9  A    between atoms: N_24  and  C_25
REMARK   10  A    between atoms: C_25  and  C_26
REMARK                            x       y       z     vdW  Elec       q    Type
REMARK                         _______ _______ _______ _____ _____    ______ ____
ROOT
ATOM      1  C   UNL     1      -1.413  11.041  18.297  0.00  0.00    +0.000 A 
ATOM      2  C   UNL     1      -0.780  12.288  18.238  0.00  0.00    +0.000 A 
ATOM      3  C   UNL     1       0.357  12.521  19.015  0.00  0.00    +0.000 A 
ATOM      4  C   UNL     1       0.847  11.519  19.858  0.00  0.00    +0.000 A 
ATOM      5  C   UNL     1       0.205  10.273  19.922  0.00  0.00    +0.000 A 
ATOM      6  C   UNL     1      -0.902  10.026  19.107  0.00  0.00    +0.000 A 
ENDROOT
BRANCH   5   7
ATOM      7  C   UNL     1       0.728   9.239  20.850  0.00  0.00    +0.000 C 
ATOM      8  O   UNL     1       0.516   9.315  22.053  0.00  0.00    +0.000 OA
ATOM      9  N   UNL     1       1.423   8.202  20.257  0.00  0.00    +0.000 N 
ATOM     10  H   UNL     1       1.345   8.046  19.261  0.00  0.00    +0.000 HD
BRANCH   9  11
ATOM     11  C   UNL     1       1.927   7.089  21.033  0.00  0.00    +0.000 C 
BRANCH  11  12
ATOM     12  C   UNL     1       2.151   5.831  20.186  0.00  0.00    +0.000 C 
ATOM     13  C   UNL     1       2.467   6.165  18.713  0.00  0.00    +0.000 C 
ATOM     14  N   UNL     1       2.792   4.958  17.915  0.00  0.00    +0.000 NA
ATOM     15  C   UNL     1       1.653   4.017  18.059  0.00  0.00    +0.000 C 
ATOM     16  C   UNL     1       1.221   3.760  19.520  0.00  0.00    +0.000 C 
ATOM     17  O   UNL     1       0.988   4.978  20.249  0.00  0.00    +0.000 OA
BRANCH  14  18
ATOM     18  C   UNL     1       4.053   4.308  18.321  0.00  0.00    +0.000 C 
BRANCH  18  19
ATOM     19  C   UNL     1       5.307   5.124  18.085  0.00  0.00    +0.000 A 
ATOM     20  C   UNL     1       5.492   5.816  16.877  0.00  0.00    +0.000 A 
ATOM     21  C   UNL     1       6.616   6.620  16.682  0.00  0.00    +0.000 A 
ATOM     22  C   UNL     1       7.569   6.743  17.691  0.00  0.00    +0.000 A 
ATOM     23  C   UNL     1       7.404   6.051  18.890  0.00  0.00    +0.000 A 
ATOM     24  C   UNL     1       6.283   5.240  19.085  0.00  0.00    +0.000 A 
ENDBRANCH  18  19
ENDBRANCH  14  18
ENDBRANCH  11  12
ENDBRANCH   9  11
ENDBRANCH   5   7
BRANCH   1  25
ATOM     25  S   UNL     1      -2.819  10.686  17.266  0.00  0.00    +0.000 S 
ATOM     26  O   UNL     1      -3.432   9.470  17.752  0.00  0.00    +0.000 OA
ATOM     27  O   UNL     1      -2.375  10.802  15.891  0.00  0.00    +0.000 OA
BRANCH  25  28
ATOM     28  N   UNL     1      -3.843  12.007  17.536  0.00  0.00    +0.000 N 
ATOM     29  H   UNL     1      -4.163  12.354  16.629  0.00  0.00    +0.000 HD
BRANCH  28  35
ATOM     30  C   UNL     1      -4.741  12.369  19.810  0.00  0.00    +0.000 A 
ATOM     31  C   UNL     1      -5.783  12.188  20.728  0.00  0.00    +0.000 A 
ATOM     32  C   UNL     1      -6.954  11.523  20.350  0.00  0.00    +0.000 A 
ATOM     33  C   UNL     1      -7.097  11.040  19.052  0.00  0.00    +0.000 A 
ATOM     34  C   UNL     1      -6.066  11.211  18.130  0.00  0.00    +0.000 A 
ATOM     35  C   UNL     1      -4.893  11.868  18.503  0.00  0.00    +0.000 A 
BRANCH  30  37
ATOM     36  C   UNL     1      -2.987  12.743  21.376  0.00  0.00    +0.000 C 
ATOM     37  O   UNL     1      -3.551  12.993  20.092  0.00  0.00    +0.000 OA
ENDBRANCH  30  37
ENDBRANCH  28  35
ENDBRANCH  25  28
ENDBRANCH   1  25
TORSDOF 9
ENDMDL
MODEL 3
REMARK VINA RESULT:      -8.6      1.015      1.360
REMARK  Name = 
REMARK  10 active torsions:
REMARK  status: ('A' for Active; 'I' for Inactive)
REMARK    1  A    between atoms: C_1  and  O_2
REMARK    2  A    between atoms: O_2  and  C_3
REMARK    3  A    between atoms: C_8  and  N_9
REMARK    4  A    between atoms: N_9  and  S_10
REMARK    5  A    between atoms: S_10  and  C_13
REMARK    6  A    between atoms: C_17  and  C_18
REMARK    7  A    between atoms: N_20  and  C_21
REMARK    8  A    between atoms: C_21  and  C_22
REMARK    9  A    between atoms: N_24  and  C_25
REMARK   10  A    between atoms: C_25  and  C_26
REMARK                            x       y       z     vdW  Elec       q    Type
REMARK                         _______ _______ _______ _____ _____    ______ ____
ROOT
ATOM      1  C   UNL     1       4.646   5.739  17.767  0.00  0.00    +0.000 A 
ATOM      2  C   UNL     1       4.522   6.639  16.703  0.00  0.00    +0.000 A 
ATOM      3  C   UNL     1       3.623   7.703  16.801  0.00  0.00    +0.000 A 
ATOM      4  C   UNL     1       2.840   7.855  17.950  0.00  0.00    +0.000 A 
ATOM      5  C   UNL     1       2.960   6.946  19.012  0.00  0.00    +0.000 A 
ATOM      6  C   UNL     1       3.896   5.912  18.931  0.00  0.00    +0.000 A 
ENDROOT
BRANCH   5   7
ATOM      7  C   UNL     1       2.094   7.113  20.206  0.00  0.00    +0.000 C 
ATOM      8  O   UNL     1       1.643   6.138  20.792  0.00  0.00    +0.000 OA
ATOM      9  N   UNL     1       1.873   8.417  20.605  0.00  0.00    +0.000 N 
ATOM     10  H   UNL     1       2.468   9.159  20.260  0.00  0.00    +0.000 HD
BRANCH   9  11
ATOM     11  C   UNL     1       1.108   8.725  21.794  0.00  0.00    +0.000 C 
BRANCH  11  12
ATOM     12  C   UNL     1       0.071   9.829  21.562  0.00  0.00    +0.000 C 
ATOM     13  C   UNL     1       0.269  10.543  20.208  0.00  0.00    +0.000 C 
ATOM     14  N   UNL     1      -0.796  11.538  19.931  0.00  0.00    +0.000 NA
ATOM     15  C   UNL     1      -0.827  12.480  21.078  0.00  0.00    +0.000 C 
ATOM     16  C   UNL     1      -0.890  11.796  22.461  0.00  0.00    +0.000 C 
ATOM     17  O   UNL     1       0.132  10.798  22.632  0.00  0.00    +0.000 OA
BRANCH  14  18
ATOM     18  C   UNL     1      -2.126  10.932  19.725  0.00  0.00    +0.000 C 
BRANCH  18  19
ATOM     19  C   UNL     1      -2.595  10.872  18.286  0.00  0.00    +0.000 A 
ATOM     20  C   UNL     1      -1.952  10.035  17.360  0.00  0.00    +0.000 A 
ATOM     21  C   UNL     1      -2.421   9.929  16.050  0.00  0.00    +0.000 A 
ATOM     22  C   UNL     1      -3.539  10.658  15.650  0.00  0.00    +0.000 A 
ATOM     23  C   UNL     1      -4.179  11.503  16.555  0.00  0.00    +0.000 A 
ATOM     24  C   UNL     1      -3.706  11.615  17.865  0.00  0.00    +0.000 A 
ENDBRANCH  18  19
ENDBRANCH  14  18
ENDBRANCH  11  12
ENDBRANCH   9  11
ENDBRANCH   5   7
BRANCH   1  25
ATOM     25  S   UNL     1       5.835   4.417  17.705  0.00  0.00    +0.000 S 
ATOM     26  O   UNL     1       6.501   4.356  18.987  0.00  0.00    +0.000 OA
ATOM     27  O   UNL     1       6.588   4.583  16.478  0.00  0.00    +0.000 OA
BRANCH  25  28
ATOM     28  N   UNL     1       4.874   3.040  17.477  0.00  0.00    +0.000 N 
ATOM     29  H   UNL     1       5.474   2.216  17.557  0.00  0.00    +0.000 HD
BRANCH  28  35
ATOM     30  C   UNL     1       3.644   2.470  19.543  0.00  0.00    +0.000 A 
ATOM     31  C   UNL     1       2.420   2.362  20.216  0.00  0.00    +0.000 A 
ATOM     32  C   UNL     1       1.227   2.715  19.578  0.00  0.00    +0.000 A 
ATOM     33  C   UNL     1       1.245   3.184  18.268  0.00  0.00    +0.000 A 
ATOM     34  C   UNL     1       2.456   3.294  17.586  0.00  0.00    +0.000 A 
ATOM     35  C   UNL     1       3.649   2.937  18.214  0.00  0.00    +0.000 A 
BRANCH  30  37
ATOM     36  C   UNL     1       4.844   1.295  21.231  0.00  0.00    +0.000 C 
ATOM     37  O   UNL     1       4.862   2.134  20.079  0.00  0.00    +0.000 OA
ENDBRANCH  30  37
ENDBRANCH  28  35
ENDBRANCH  25  28
ENDBRANCH   1  25
TORSDOF 9
ENDMDL
MODEL 4
REMARK VINA RESULT:      -8.6      2.695      4.531
REMARK  Name = 
REMARK  10 active torsions:
REMARK  status: ('A' for Active; 'I' for Inactive)
REMARK    1  A    between atoms: C_1  and  O_2
REMARK    2  A    between atoms: O_2  and  C_3
REMARK    3  A    between atoms: C_8  and  N_9
REMARK    4  A    between atoms: N_9  and  S_10
REMARK    5  A    between atoms: S_10  and  C_13
REMARK    6  A    between atoms: C_17  and  C_18
REMARK    7  A    between atoms: N_20  and  C_21
REMARK    8  A    between atoms: C_21  and  C_22
REMARK    9  A    between atoms: N_24  and  C_25
REMARK   10  A    between atoms: C_25  and  C_26
REMARK                            x       y       z     vdW  Elec       q    Type
REMARK                         _______ _______ _______ _____ _____    ______ ____
ROOT
ATOM      1  C   UNL     1       2.550   4.562  18.772  0.00  0.00    +0.000 A 
ATOM      2  C   UNL     1       2.317   4.399  20.142  0.00  0.00    +0.000 A 
ATOM      3  C   UNL     1       1.989   5.510  20.923  0.00  0.00    +0.000 A 
ATOM      4  C   UNL     1       1.912   6.778  20.338  0.00  0.00    +0.000 A 
ATOM      5  C   UNL     1       2.155   6.939  18.966  0.00  0.00    +0.000 A 
ATOM      6  C   UNL     1       2.434   5.819  18.179  0.00  0.00    +0.000 A 
ENDROOT
BRANCH   5   7
ATOM      7  C   UNL     1       2.097   8.302  18.378  0.00  0.00    +0.000 C 
ATOM      8  O   UNL     1       2.625   8.540  17.299  0.00  0.00    +0.000 OA
ATOM      9  N   UNL     1       1.395   9.239  19.112  0.00  0.00    +0.000 N 
ATOM     10  H   UNL     1       0.766   8.939  19.845  0.00  0.00    +0.000 HD
BRANCH   9  11
ATOM     11  C   UNL     1       1.197  10.587  18.624  0.00  0.00    +0.000 C 
BRANCH  11  12
ATOM     12  C   UNL     1       0.708  11.545  19.716  0.00  0.00    +0.000 C 
ATOM     13  C   UNL     1      -0.693  12.115  19.410  0.00  0.00    +0.000 C 
ATOM     14  N   UNL     1      -1.216  12.957  20.513  0.00  0.00    +0.000 NA
ATOM     15  C   UNL     1      -0.210  14.016  20.773  0.00  0.00    +0.000 C 
ATOM     16  C   UNL     1       1.232  13.492  20.953  0.00  0.00    +0.000 C 
ATOM     17  O   UNL     1       1.646  12.632  19.878  0.00  0.00    +0.000 OA
BRANCH  14  18
ATOM     18  C   UNL     1      -1.498  12.198  21.747  0.00  0.00    +0.000 C 
BRANCH  18  19
ATOM     19  C   UNL     1      -2.865  12.433  22.355  0.00  0.00    +0.000 A 
ATOM     20  C   UNL     1      -3.062  12.300  23.739  0.00  0.00    +0.000 A 
ATOM     21  C   UNL     1      -4.305  12.578  24.311  0.00  0.00    +0.000 A 
ATOM     22  C   UNL     1      -5.365  12.992  23.507  0.00  0.00    +0.000 A 
ATOM     23  C   UNL     1      -5.186  13.116  22.131  0.00  0.00    +0.000 A 
ATOM     24  C   UNL     1      -3.944  12.831  21.555  0.00  0.00    +0.000 A 
ENDBRANCH  18  19
ENDBRANCH  14  18
ENDBRANCH  11  12
ENDBRANCH   9  11
ENDBRANCH   5   7
BRANCH   1  25
ATOM     25  S   UNL     1       2.897   3.157  17.737  0.00  0.00    +0.000 S 
ATOM     26  O   UNL     1       2.661   3.546  16.364  0.00  0.00    +0.000 OA
ATOM     27  O   UNL     1       2.211   2.022  18.321  0.00  0.00    +0.000 OA
BRANCH  25  28
ATOM     28  N   UNL     1       4.549   2.883  17.993  0.00  0.00    +0.000 N 
ATOM     29  H   UNL     1       4.832   2.084  17.421  0.00  0.00    +0.000 HD
BRANCH  28  35
ATOM     30  C   UNL     1       6.058   4.342  16.689  0.00  0.00    +0.000 A 
ATOM     31  C   UNL     1       6.946   5.425  16.659  0.00  0.00    +0.000 A 
ATOM     32  C   UNL     1       7.212   6.154  17.822  0.00  0.00    +0.000 A 
ATOM     33  C   UNL     1       6.592   5.813  19.021  0.00  0.00    +0.000 A 
ATOM     34  C   UNL     1       5.709   4.735  19.064  0.00  0.00    +0.000 A 
ATOM     35  C   UNL     1       5.444   3.999  17.909  0.00  0.00    +0.000 A 
BRANCH  30  37
ATOM     36  C   UNL     1       6.191   4.021  14.333  0.00  0.00    +0.000 C 
ATOM     37  O   UNL     1       5.747   3.558  15.605  0.00  0.00    +0.000 OA
ENDBRANCH  30  37
ENDBRANCH  28  35
ENDBRANCH  25  28
ENDBRANCH   1  25
TORSDOF 9
ENDMDL
MODEL 5
REMARK VINA RESULT:      -8.6      2.629      4.870
REMARK  Name = 
REMARK  10 active torsions:
REMARK  status: ('A' for Active; 'I' for Inactive)
REMARK    1  A    between atoms: C_1  and  O_2
REMARK    2  A    between atoms: O_2  and  C_3
REMARK    3  A    between atoms: C_8  and  N_9
REMARK    4  A    between atoms: N_9  and  S_10
REMARK    5  A    between atoms: S_10  and  C_13
REMARK    6  A    between atoms: C_17  and  C_18
REMARK    7  A    between atoms: N_20  and  C_21
REMARK    8  A    between atoms: C_21  and  C_22
REMARK    9  A    between atoms: N_24  and  C_25
REMARK   10  A    between atoms: C_25  and  C_26
REMARK                            x       y       z     vdW  Elec       q    Type
REMARK                         _______ _______ _______ _____ _____    ______ ____
ROOT
ATOM      1  C   UNL     1       2.495   4.605  18.744  0.00  0.00    +0.000 A 
ATOM      2  C   UNL     1       2.186   4.484  20.104  0.00  0.00    +0.000 A 
ATOM      3  C   UNL     1       1.864   5.626  20.841  0.00  0.00    +0.000 A 
ATOM      4  C   UNL     1       1.869   6.882  20.226  0.00  0.00    +0.000 A 
ATOM      5  C   UNL     1       2.188   7.000  18.865  0.00  0.00    +0.000 A 
ATOM      6  C   UNL     1       2.461   5.852  18.118  0.00  0.00    +0.000 A 
ENDROOT
BRANCH   5   7
ATOM      7  C   UNL     1       2.216   8.350  18.246  0.00  0.00    +0.000 C 
ATOM      8  O   UNL     1       2.657   8.509  17.115  0.00  0.00    +0.000 OA
ATOM      9  N   UNL     1       1.692   9.370  19.015  0.00  0.00    +0.000 N 
ATOM     10  H   UNL     1       1.110   9.154  19.814  0.00  0.00    +0.000 HD
BRANCH   9  11
ATOM     11  C   UNL     1       1.589  10.723  18.510  0.00  0.00    +0.000 C 
BRANCH  11  12
ATOM     12  C   UNL     1       0.553  11.561  19.266  0.00  0.00    +0.000 C 
ATOM     13  C   UNL     1      -0.438  10.687  20.063  0.00  0.00    +0.000 C 
ATOM     14  N   UNL     1      -1.374  11.496  20.882  0.00  0.00    +0.000 NA
ATOM     15  C   UNL     1      -2.053  12.444  19.965  0.00  0.00    +0.000 C 
ATOM     16  C   UNL     1      -1.096  13.244  19.054  0.00  0.00    +0.000 C 
ATOM     17  O   UNL     1      -0.176  12.398  18.342  0.00  0.00    +0.000 OA
BRANCH  14  18
ATOM     18  C   UNL     1      -0.712  12.224  21.982  0.00  0.00    +0.000 C 
BRANCH  18  19
ATOM     19  C   UNL     1      -1.644  12.911  22.958  0.00  0.00    +0.000 A 
ATOM     20  C   UNL     1      -2.863  12.315  23.321  0.00  0.00    +0.000 A 
ATOM     21  C   UNL     1      -3.695  12.914  24.268  0.00  0.00    +0.000 A 
ATOM     22  C   UNL     1      -3.319  14.116  24.864  0.00  0.00    +0.000 A 
ATOM     23  C   UNL     1      -2.119  14.726  24.503  0.00  0.00    +0.000 A 
ATOM     24  C   UNL     1      -1.288  14.131  23.550  0.00  0.00    +0.000 A 
ENDBRANCH  18  19
ENDBRANCH  14  18
ENDBRANCH  11  12
ENDBRANCH   9  11
ENDBRANCH   5   7
BRANCH   1  25
ATOM     25  S   UNL     1       2.838   3.163  17.759  0.00  0.00    +0.000 S 
ATOM     26  O   UNL     1       2.647   3.517  16.371  0.00  0.00    +0.000 OA
ATOM     27  O   UNL     1       2.111   2.061  18.357  0.00  0.00    +0.000 OA
BRANCH  25  28
ATOM     28  N   UNL     1       4.475   2.861  18.068  0.00  0.00    +0.000 N 
ATOM     29  H   UNL     1       4.760   2.050  17.513  0.00  0.00    +0.000 HD
BRANCH  28  35
ATOM     30  C   UNL     1       6.026   4.296  16.786  0.00  0.00    +0.000 A 
ATOM     31  C   UNL     1       6.936   5.361  16.770  0.00  0.00    +0.000 A 
ATOM     32  C   UNL     1       7.207   6.078  17.940  0.00  0.00    +0.000 A 
ATOM     33  C   UNL     1       6.569   5.742  19.131  0.00  0.00    +0.000 A 
ATOM     34  C   UNL     1       5.664   4.683  19.160  0.00  0.00    +0.000 A 
ATOM     35  C   UNL     1       5.394   3.959  17.998  0.00  0.00    +0.000 A 
BRANCH  30  37
ATOM     36  C   UNL     1       6.231   3.949  14.439  0.00  0.00    +0.000 C 
ATOM     37  O   UNL     1       5.708   3.526  15.694  0.00  0.00    +0.000 OA
ENDBRANCH  30  37
ENDBRANCH  28  35
ENDBRANCH  25  28
ENDBRANCH   1  25
TORSDOF 9
ENDMDL
MODEL 6
REMARK VINA RESULT:      -8.5      2.086      3.387
REMARK  Name = 
REMARK  10 active torsions:
REMARK  status: ('A' for Active; 'I' for Inactive)
REMARK    1  A    between atoms: C_1  and  O_2
REMARK    2  A    between atoms: O_2  and  C_3
REMARK    3  A    between atoms: C_8  and  N_9
REMARK    4  A    between atoms: N_9  and  S_10
REMARK    5  A    between atoms: S_10  and  C_13
REMARK    6  A    between atoms: C_17  and  C_18
REMARK    7  A    between atoms: N_20  and  C_21
REMARK    8  A    between atoms: C_21  and  C_22
REMARK    9  A    between atoms: N_24  and  C_25
REMARK   10  A    between atoms: C_25  and  C_26
REMARK                            x       y       z     vdW  Elec       q    Type
REMARK                         _______ _______ _______ _____ _____    ______ ____
ROOT
ATOM      1  C   UNL     1       2.210   7.490  19.158  0.00  0.00    +0.000 A 
ATOM      2  C   UNL     1       2.485   8.238  18.008  0.00  0.00    +0.000 A 
ATOM      3  C   UNL     1       1.995   9.542  17.900  0.00  0.00    +0.000 A 
ATOM      4  C   UNL     1       1.220  10.086  18.929  0.00  0.00    +0.000 A 
ATOM      5  C   UNL     1       0.938   9.330  20.076  0.00  0.00    +0.000 A 
ATOM      6  C   UNL     1       1.470   8.045  20.203  0.00  0.00    +0.000 A 
ENDROOT
BRANCH   5   7
ATOM      7  C   UNL     1       0.085   9.922  21.138  0.00  0.00    +0.000 C 
ATOM      8  O   UNL     1      -0.412   9.216  22.006  0.00  0.00    +0.000 OA
ATOM      9  N   UNL     1      -0.069  11.294  21.084  0.00  0.00    +0.000 N 
ATOM     10  H   UNL     1       0.561  11.852  20.522  0.00  0.00    +0.000 HD
BRANCH   9  11
ATOM     11  C   UNL     1      -0.813  12.012  22.096  0.00  0.00    +0.000 C 
BRANCH  11  12
ATOM     12  C   UNL     1      -2.278  12.237  21.706  0.00  0.00    +0.000 C 
ATOM     13  C   UNL     1      -2.421  13.126  20.453  0.00  0.00    +0.000 C 
ATOM     14  N   UNL     1      -3.830  13.257  20.008  0.00  0.00    +0.000 NA
ATOM     15  C   UNL     1      -4.610  13.765  21.164  0.00  0.00    +0.000 C 
ATOM     16  C   UNL     1      -4.389  12.978  22.475  0.00  0.00    +0.000 C 
ATOM     17  O   UNL     1      -2.997  12.835  22.807  0.00  0.00    +0.000 OA
BRANCH  14  18
ATOM     18  C   UNL     1      -4.408  11.994  19.510  0.00  0.00    +0.000 C 
BRANCH  18  19
ATOM     19  C   UNL     1      -3.773  11.443  18.250  0.00  0.00    +0.000 A 
ATOM     20  C   UNL     1      -2.573  10.717  18.314  0.00  0.00    +0.000 A 
ATOM     21  C   UNL     1      -2.019  10.154  17.163  0.00  0.00    +0.000 A 
ATOM     22  C   UNL     1      -2.657  10.310  15.935  0.00  0.00    +0.000 A 
ATOM     23  C   UNL     1      -3.842  11.040  15.855  0.00  0.00    +0.000 A 
ATOM     24  C   UNL     1      -4.395  11.610  17.005  0.00  0.00    +0.000 A 
ENDBRANCH  18  19
ENDBRANCH  14  18
ENDBRANCH  11  12
ENDBRANCH   9  11
ENDBRANCH   5   7
BRANCH   1  25
ATOM     25  S   UNL     1       2.880   5.854  19.360  0.00  0.00    +0.000 S 
ATOM     26  O   UNL     1       2.012   5.125  20.257  0.00  0.00    +0.000 OA
ATOM     27  O   UNL     1       4.292   6.009  19.647  0.00  0.00    +0.000 OA
BRANCH  25  28
ATOM     28  N   UNL     1       2.793   5.202  17.800  0.00  0.00    +0.000 N 
ATOM     29  H   UNL     1       2.125   5.756  17.259  0.00  0.00    +0.000 HD
BRANCH  28  35
ATOM     30  C   UNL     1       4.509   3.622  16.982  0.00  0.00    +0.000 A 
ATOM     31  C   UNL     1       5.723   3.412  16.316  0.00  0.00    +0.000 A 
ATOM     32  C   UNL     1       6.431   4.492  15.779  0.00  0.00    +0.000 A 
ATOM     33  C   UNL     1       5.933   5.786  15.896  0.00  0.00    +0.000 A 
ATOM     34  C   UNL     1       4.727   6.008  16.560  0.00  0.00    +0.000 A 
ATOM     35  C   UNL     1       4.018   4.936  17.104  0.00  0.00    +0.000 A 
BRANCH  30  37
ATOM     36  C   UNL     1       4.066   2.282  18.900  0.00  0.00    +0.000 C 
ATOM     37  O   UNL     1       3.751   2.630  17.555  0.00  0.00    +0.000 OA
ENDBRANCH  30  37
ENDBRANCH  28  35
ENDBRANCH  25  28
ENDBRANCH   1  25
TORSDOF 9
ENDMDL
MODEL 7
REMARK VINA RESULT:      -8.4      2.645      9.282
REMARK  Name = 
REMARK  10 active torsions:
REMARK  status: ('A' for Active; 'I' for Inactive)
REMARK    1  A    between atoms: C_1  and  O_2
REMARK    2  A    between atoms: O_2  and  C_3
REMARK    3  A    between atoms: C_8  and  N_9
REMARK    4  A    between atoms: N_9  and  S_10
REMARK    5  A    between atoms: S_10  and  C_13
REMARK    6  A    between atoms: C_17  and  C_18
REMARK    7  A    between atoms: N_20  and  C_21
REMARK    8  A    between atoms: C_21  and  C_22
REMARK    9  A    between atoms: N_24  and  C_25
REMARK   10  A    between atoms: C_25  and  C_26
REMARK                            x       y       z     vdW  Elec       q    Type
REMARK                         _______ _______ _______ _____ _____    ______ ____
ROOT
ATOM      1  C   UNL     1       0.058  10.538  21.134  0.00  0.00    +0.000 A 
ATOM      2  C   UNL     1       0.040   9.532  22.107  0.00  0.00    +0.000 A 
ATOM      3  C   UNL     1       0.693   8.322  21.859  0.00  0.00    +0.000 A 
ATOM      4  C   UNL     1       1.344   8.115  20.639  0.00  0.00    +0.000 A 
ATOM      5  C   UNL     1       1.353   9.122  19.663  0.00  0.00    +0.000 A 
ATOM      6  C   UNL     1       0.742  10.349  19.933  0.00  0.00    +0.000 A 
ENDROOT
BRANCH   5   7
ATOM      7  C   UNL     1       2.025   8.862  18.364  0.00  0.00    +0.000 C 
ATOM      8  O   UNL     1       1.934   9.662  17.443  0.00  0.00    +0.000 OA
ATOM      9  N   UNL     1       2.763   7.696  18.298  0.00  0.00    +0.000 N 
ATOM     10  H   UNL     1       3.022   7.212  19.148  0.00  0.00    +0.000 HD
BRANCH   9  11
ATOM     11  C   UNL     1       3.529   7.352  17.119  0.00  0.00    +0.000 C 
BRANCH  11  12
ATOM     12  C   UNL     1       4.413   6.118  17.326  0.00  0.00    +0.000 C 
ATOM     13  C   UNL     1       4.678   5.831  18.819  0.00  0.00    +0.000 C 
ATOM     14  N   UNL     1       5.443   4.578  19.028  0.00  0.00    +0.000 NA
ATOM     15  C   UNL     1       6.692   4.687  18.235  0.00  0.00    +0.000 C 
ATOM     16  C   UNL     1       6.476   5.104  16.763  0.00  0.00    +0.000 C 
ATOM     17  O   UNL     1       5.671   6.290  16.637  0.00  0.00    +0.000 OA
BRANCH  14  18
ATOM     18  C   UNL     1       4.694   3.364  18.650  0.00  0.00    +0.000 C 
BRANCH  18  19
ATOM     19  C   UNL     1       3.276   3.287  19.175  0.00  0.00    +0.000 A 
ATOM     20  C   UNL     1       2.190   3.211  18.287  0.00  0.00    +0.000 A 
ATOM     21  C   UNL     1       0.886   3.075  18.768  0.00  0.00    +0.000 A 
ATOM     22  C   UNL     1       0.652   3.014  20.140  0.00  0.00    +0.000 A 
ATOM     23  C   UNL     1       1.720   3.102  21.032  0.00  0.00    +0.000 A 
ATOM     24  C   UNL     1       3.025   3.244  20.553  0.00  0.00    +0.000 A 
ENDBRANCH  18  19
ENDBRANCH  14  18
ENDBRANCH  11  12
ENDBRANCH   9  11
ENDBRANCH   5   7
BRANCH   1  25
ATOM     25  S   UNL     1      -0.700  12.117  21.447  0.00  0.00    +0.000 S 
ATOM     26  O   UNL     1       0.320  13.008  21.952  0.00  0.00    +0.000 OA
ATOM     27  O   UNL     1      -1.911  11.863  22.202  0.00  0.00    +0.000 OA
BRANCH  25  28
ATOM     28  N   UNL     1      -1.207  12.617  19.910  0.00  0.00    +0.000 N 
ATOM     29  H   UNL     1      -0.513  12.306  19.228  0.00  0.00    +0.000 HD
BRANCH  28  35
ATOM     30  C   UNL     1      -2.842  11.639  18.336  0.00  0.00    +0.000 A 
ATOM     31  C   UNL     1      -4.180  11.420  17.982  0.00  0.00    +0.000 A 
ATOM     32  C   UNL     1      -5.215  11.895  18.793  0.00  0.00    +0.000 A 
ATOM     33  C   UNL     1      -4.924  12.586  19.967  0.00  0.00    +0.000 A 
ATOM     34  C   UNL     1      -3.598  12.813  20.329  0.00  0.00    +0.000 A 
ATOM     35  C   UNL     1      -2.560  12.347  19.520  0.00  0.00    +0.000 A 
BRANCH  30  37
ATOM     36  C   UNL     1      -1.704   9.840  17.269  0.00  0.00    +0.000 C 
ATOM     37  O   UNL     1      -1.762  11.225  17.597  0.00  0.00    +0.000 OA
ENDBRANCH  30  37
ENDBRANCH  28  35
ENDBRANCH  25  28
ENDBRANCH   1  25
TORSDOF 9
ENDMDL
MODEL 8
REMARK VINA RESULT:      -8.3      3.066      4.606
REMARK  Name = 
REMARK  10 active torsions:
REMARK  status: ('A' for Active; 'I' for Inactive)
REMARK    1  A    between atoms: C_1  and  O_2
REMARK    2  A    between atoms: O_2  and  C_3
REMARK    3  A    between atoms: C_8  and  N_9
REMARK    4  A    between atoms: N_9  and  S_10
REMARK    5  A    between atoms: S_10  and  C_13
REMARK    6  A    between atoms: C_17  and  C_18
REMARK    7  A    between atoms: N_20  and  C_21
REMARK    8  A    between atoms: C_21  and  C_22
REMARK    9  A    between atoms: N_24  and  C_25
REMARK   10  A    between atoms: C_25  and  C_26
REMARK                            x       y       z     vdW  Elec       q    Type
REMARK                         _______ _______ _______ _____ _____    ______ ____
ROOT
ATOM      1  C   UNL     1       2.638   4.462  18.883  0.00  0.00    +0.000 A 
ATOM      2  C   UNL     1       2.376   4.437  20.257  0.00  0.00    +0.000 A 
ATOM      3  C   UNL     1       2.074   5.627  20.923  0.00  0.00    +0.000 A 
ATOM      4  C   UNL     1       2.051   6.836  20.220  0.00  0.00    +0.000 A 
ATOM      5  C   UNL     1       2.322   6.859  18.844  0.00  0.00    +0.000 A 
ATOM      6  C   UNL     1       2.576   5.661  18.172  0.00  0.00    +0.000 A 
ENDROOT
BRANCH   5   7
ATOM      7  C   UNL     1       2.323   8.161  18.130  0.00  0.00    +0.000 C 
ATOM      8  O   UNL     1       3.049   8.342  17.162  0.00  0.00    +0.000 OA
ATOM      9  N   UNL     1       1.441   9.107  18.616  0.00  0.00    +0.000 N 
ATOM     10  H   UNL     1       0.689   8.829  19.233  0.00  0.00    +0.000 HD
BRANCH   9  11
ATOM     11  C   UNL     1       1.283  10.394  17.973  0.00  0.00    +0.000 C 
BRANCH  11  12
ATOM     12  C   UNL     1       0.902  11.505  18.957  0.00  0.00    +0.000 C 
ATOM     13  C   UNL     1       1.920  12.666  18.953  0.00  0.00    +0.000 C 
ATOM     14  N   UNL     1       1.499  13.792  19.822  0.00  0.00    +0.000 NA
ATOM     15  C   UNL     1       1.268  13.236  21.179  0.00  0.00    +0.000 C 
ATOM     16  C   UNL     1       0.358  11.988  21.208  0.00  0.00    +0.000 C 
ATOM     17  O   UNL     1       0.790  10.967  20.292  0.00  0.00    +0.000 OA
BRANCH  14  18
ATOM     18  C   UNL     1       0.293  14.489  19.337  0.00  0.00    +0.000 C 
BRANCH  18  19
ATOM     19  C   UNL     1       0.547  15.785  18.596  0.00  0.00    +0.000 A 
ATOM     20  C   UNL     1      -0.512  16.661  18.307  0.00  0.00    +0.000 A 
ATOM     21  C   UNL     1      -0.272  17.886  17.681  0.00  0.00    +0.000 A 
ATOM     22  C   UNL     1       1.028  18.249  17.337  0.00  0.00    +0.000 A 
ATOM     23  C   UNL     1       2.086  17.383  17.606  0.00  0.00    +0.000 A 
ATOM     24  C   UNL     1       1.848  16.154  18.226  0.00  0.00    +0.000 A 
ENDBRANCH  18  19
ENDBRANCH  14  18
ENDBRANCH  11  12
ENDBRANCH   9  11
ENDBRANCH   5   7
BRANCH   1  25
ATOM     25  S   UNL     1       2.953   2.954  17.991  0.00  0.00    +0.000 S 
ATOM     26  O   UNL     1       2.397   3.098  16.664  0.00  0.00    +0.000 OA
ATOM     27  O   UNL     1       2.555   1.861  18.855  0.00  0.00    +0.000 OA
BRANCH  25  28
ATOM     28  N   UNL     1       4.644   2.894  17.915  0.00  0.00    +0.000 N 
ATOM     29  H   UNL     1       4.920   1.929  17.721  0.00  0.00    +0.000 HD
BRANCH  28  35
ATOM     30  C   UNL     1       6.238   4.767  17.677  0.00  0.00    +0.000 A 
ATOM     31  C   UNL     1       6.860   5.712  16.851  0.00  0.00    +0.000 A 
ATOM     32  C   UNL     1       6.577   5.752  15.482  0.00  0.00    +0.000 A 
ATOM     33  C   UNL     1       5.678   4.846  14.925  0.00  0.00    +0.000 A 
ATOM     34  C   UNL     1       5.051   3.902  15.737  0.00  0.00    +0.000 A 
ATOM     35  C   UNL     1       5.323   3.862  17.105  0.00  0.00    +0.000 A 
BRANCH  30  37
ATOM     36  C   UNL     1       7.340   5.596  19.618  0.00  0.00    +0.000 C 
ATOM     37  O   UNL     1       6.439   4.662  19.031  0.00  0.00    +0.000 OA
ENDBRANCH  30  37
ENDBRANCH  28  35
ENDBRANCH  25  28
ENDBRANCH   1  25
TORSDOF 9
ENDMDL
MODEL 9
REMARK VINA RESULT:      -8.3      3.617      9.927
REMARK  Name = 
REMARK  10 active torsions:
REMARK  status: ('A' for Active; 'I' for Inactive)
REMARK    1  A    between atoms: C_1  and  O_2
REMARK    2  A    between atoms: O_2  and  C_3
REMARK    3  A    between atoms: C_8  and  N_9
REMARK    4  A    between atoms: N_9  and  S_10
REMARK    5  A    between atoms: S_10  and  C_13
REMARK    6  A    between atoms: C_17  and  C_18
REMARK    7  A    between atoms: N_20  and  C_21
REMARK    8  A    between atoms: C_21  and  C_22
REMARK    9  A    between atoms: N_24  and  C_25
REMARK   10  A    between atoms: C_25  and  C_26
REMARK                            x       y       z     vdW  Elec       q    Type
REMARK                         _______ _______ _______ _____ _____    ______ ____
ROOT
ATOM      1  C   UNL     1       0.930  10.093  20.068  0.00  0.00    +0.000 A 
ATOM      2  C   UNL     1       0.218  10.335  21.248  0.00  0.00    +0.000 A 
ATOM      3  C   UNL     1       0.055   9.306  22.178  0.00  0.00    +0.000 A 
ATOM      4  C   UNL     1       0.586   8.039  21.921  0.00  0.00    +0.000 A 
ATOM      5  C   UNL     1       1.292   7.796  20.733  0.00  0.00    +0.000 A 
ATOM      6  C   UNL     1       1.496   8.840  19.827  0.00  0.00    +0.000 A 
ENDROOT
BRANCH   5   7
ATOM      7  C   UNL     1       1.817   6.432  20.471  0.00  0.00    +0.000 C 
ATOM      8  O   UNL     1       1.111   5.447  20.643  0.00  0.00    +0.000 OA
ATOM      9  N   UNL     1       3.115   6.373  20.002  0.00  0.00    +0.000 N 
ATOM     10  H   UNL     1       3.557   7.203  19.629  0.00  0.00    +0.000 HD
BRANCH   9  11
ATOM     11  C   UNL     1       3.730   5.114  19.636  0.00  0.00    +0.000 C 
BRANCH  11  12
ATOM     12  C   UNL     1       4.984   5.296  18.775  0.00  0.00    +0.000 C 
ATOM     13  C   UNL     1       5.271   4.065  17.890  0.00  0.00    +0.000 C 
ATOM     14  N   UNL     1       6.420   4.279  16.977  0.00  0.00    +0.000 NA
ATOM     15  C   UNL     1       7.582   4.666  17.815  0.00  0.00    +0.000 C 
ATOM     16  C   UNL     1       7.293   5.812  18.811  0.00  0.00    +0.000 C 
ATOM     17  O   UNL     1       6.128   5.563  19.616  0.00  0.00    +0.000 OA
BRANCH  14  18
ATOM     18  C   UNL     1       6.165   5.300  15.943  0.00  0.00    +0.000 C 
BRANCH  18  19
ATOM     19  C   UNL     1       6.433   4.861  14.518  0.00  0.00    +0.000 A 
ATOM     20  C   UNL     1       7.536   5.366  13.811  0.00  0.00    +0.000 A 
ATOM     21  C   UNL     1       7.822   4.916  12.521  0.00  0.00    +0.000 A 
ATOM     22  C   UNL     1       7.009   3.956  11.922  0.00  0.00    +0.000 A 
ATOM     23  C   UNL     1       5.903   3.456  12.608  0.00  0.00    +0.000 A 
ATOM     24  C   UNL     1       5.611   3.911  13.896  0.00  0.00    +0.000 A 
ENDBRANCH  18  19
ENDBRANCH  14  18
ENDBRANCH  11  12
ENDBRANCH   9  11
ENDBRANCH   5   7
BRANCH   1  25
ATOM     25  S   UNL     1       1.220  11.401  18.897  0.00  0.00    +0.000 S 
ATOM     26  O   UNL     1      -0.064  11.871  18.428  0.00  0.00    +0.000 OA
ATOM     27  O   UNL     1       2.226  10.923  17.970  0.00  0.00    +0.000 OA
BRANCH  25  28
ATOM     28  N   UNL     1       1.977  12.596  19.828  0.00  0.00    +0.000 N 
ATOM     29  H   UNL     1       2.801  12.182  20.269  0.00  0.00    +0.000 HD
BRANCH  28  35
ATOM     30  C   UNL     1       1.446  14.995  19.561  0.00  0.00    +0.000 A 
ATOM     31  C   UNL     1       1.709  16.216  18.927  0.00  0.00    +0.000 A 
ATOM     32  C   UNL     1       2.732  16.316  17.978  0.00  0.00    +0.000 A 
ATOM     33  C   UNL     1       3.503  15.202  17.660  0.00  0.00    +0.000 A 
ATOM     34  C   UNL     1       3.250  13.980  18.281  0.00  0.00    +0.000 A 
ATOM     35  C   UNL     1       2.226  13.873  19.224  0.00  0.00    +0.000 A 
BRANCH  30  37
ATOM     36  C   UNL     1      -0.887  14.863  20.020  0.00  0.00    +0.000 C 
ATOM     37  O   UNL     1       0.456  14.796  20.491  0.00  0.00    +0.000 OA
ENDBRANCH  30  37
ENDBRANCH  28  35
ENDBRANCH  25  28
ENDBRANCH   1  25
TORSDOF 9
ENDMDL
