MODEL 1
REMARK VINA RESULT:      -9.0      0.000      0.000
REMARK  Name = 
REMARK  7 active torsions:
REMARK  status: ('A' for Active; 'I' for Inactive)
REMARK    1  A    between atoms: C_1  and  C_2
REMARK    2  A    between atoms: C_6  and  C_7
REMARK    3  A    between atoms: N_13  and  C_14
REMARK    4  A    between atoms: C_18  and  C_19
REMARK    5  A    between atoms: C_19  and  C_21
REMARK    6  A    between atoms: C_21  and  C_22
REMARK    7  A    between atoms: N_26  and  C_27
REMARK                            x       y       z     vdW  Elec       q    Type
REMARK                         _______ _______ _______ _____ _____    ______ ____
ROOT
ATOM      1  C   UNL     1       0.384  13.321  19.208  0.00  0.00    +0.000 C 
ATOM      2  C   UNL     1       0.639  11.889  19.579  0.00  0.00    +0.000 A 
ATOM      3  C   UNL     1       1.266  11.021  18.680  0.00  0.00    +0.000 A 
ATOM      4  C   UNL     1       1.468   9.712  19.080  0.00  0.00    +0.000 A 
ATOM      5  C   UNL     1       1.087   9.230  20.334  0.00  0.00    +0.000 A 
ATOM      6  C   UNL     1       0.461  10.074  21.249  0.00  0.00    +0.000 A 
ATOM      7  C   UNL     1       0.244  11.412  20.849  0.00  0.00    +0.000 A 
ATOM      8  C   UNL     1       1.452   7.777  20.438  0.00  0.00    +0.000 C 
ATOM      9  N   UNL     1       2.113   7.525  19.169  0.00  0.00    +0.000 N 
ATOM     10  C   UNL     1       2.083   8.617  18.316  0.00  0.00    +0.000 C 
ATOM     11  O   UNL     1       2.482   8.721  17.173  0.00  0.00    +0.000 OA
ENDROOT
BRANCH   9  12
ATOM     12  C   UNL     1       2.512   6.239  18.788  0.00  0.00    +0.000 A 
ATOM     13  C   UNL     1       1.928   5.114  19.375  0.00  0.00    +0.000 A 
ATOM     14  C   UNL     1       2.387   3.842  19.037  0.00  0.00    +0.000 A 
ATOM     15  C   UNL     1       3.421   3.694  18.108  0.00  0.00    +0.000 A 
ATOM     16  C   UNL     1       3.990   4.820  17.494  0.00  0.00    +0.000 A 
ATOM     17  C   UNL     1       3.529   6.095  17.839  0.00  0.00    +0.000 A 
BRANCH  16  18
ATOM     18  C   UNL     1       5.108   4.606  16.530  0.00  0.00    +0.000 C 
ATOM     19  O   UNL     1       5.124   3.574  15.855  0.00  0.00    +0.000 OA
BRANCH  18  20
ATOM     20  C   UNL     1       6.177   5.663  16.359  0.00  0.00    +0.000 C 
BRANCH  20  21
ATOM     21  C   UNL     1       7.024   5.748  17.573  0.00  0.00    +0.000 A 
ATOM     22  N   UNL     1       7.310   4.737  18.374  0.00  0.00    +0.000 NA
ATOM     23  N   UNL     1       8.119   5.197  19.380  0.00  0.00    +0.000 NA
ATOM     24  C   UNL     1       8.286   6.483  19.196  0.00  0.00    +0.000 A 
ATOM     25  N   UNL     1       7.609   6.878  18.081  0.00  0.00    +0.000 N 
ATOM     26  C   UNL     1       7.535   8.227  17.586  0.00  0.00    +0.000 C 
ENDBRANCH  20  21
ENDBRANCH  18  20
ENDBRANCH  16  18
ENDBRANCH   9  12
BRANCH   6  27
ATOM     27  C   UNL     1       0.017   9.630  22.618  0.00  0.00    +0.000 C 
ATOM     28  F   UNL     1       1.039   9.249  23.431  0.00  0.00    +0.000 F 
ATOM     29  F   UNL     1      -0.654  10.606  23.289  0.00  0.00    +0.000 F 
ATOM     30  F   UNL     1      -0.831   8.565  22.564  0.00  0.00    +0.000 F 
ENDBRANCH   6  27
TORSDOF 5
ENDMDL
MODEL 2
REMARK VINA RESULT:      -8.8      2.230      3.133
REMARK  Name = 
REMARK  7 active torsions:
REMARK  status: ('A' for Active; 'I' for Inactive)
REMARK    1  A    between atoms: C_1  and  C_2
REMARK    2  A    between atoms: C_6  and  C_7
REMARK    3  A    between atoms: N_13  and  C_14
REMARK    4  A    between atoms: C_18  and  C_19
REMARK    5  A    between atoms: C_19  and  C_21
REMARK    6  A    between atoms: C_21  and  C_22
REMARK    7  A    between atoms: N_26  and  C_27
REMARK                            x       y       z     vdW  Elec       q    Type
REMARK                         _______ _______ _______ _____ _____    ______ ____
ROOT
ATOM      1  C   UNL     1       0.080   9.796  23.263  0.00  0.00    +0.000 C 
ATOM      2  C   UNL     1       0.585   9.248  21.961  0.00  0.00    +0.000 A 
ATOM      3  C   UNL     1       0.947   7.902  21.847  0.00  0.00    +0.000 A 
ATOM      4  C   UNL     1       1.410   7.459  20.621  0.00  0.00    +0.000 A 
ATOM      5  C   UNL     1       1.519   8.286  19.501  0.00  0.00    +0.000 A 
ATOM      6  C   UNL     1       1.164   9.631  19.586  0.00  0.00    +0.000 A 
ATOM      7  C   UNL     1       0.695  10.096  20.836  0.00  0.00    +0.000 A 
ATOM      8  C   UNL     1       2.051   7.489  18.345  0.00  0.00    +0.000 C 
ATOM      9  N   UNL     1       2.166   6.155  18.908  0.00  0.00    +0.000 N 
ATOM     10  C   UNL     1       1.864   6.107  20.259  0.00  0.00    +0.000 C 
ATOM     11  O   UNL     1       1.921   5.175  21.037  0.00  0.00    +0.000 OA
ENDROOT
BRANCH   9  12
ATOM     12  C   UNL     1       2.751   5.102  18.195  0.00  0.00    +0.000 A 
ATOM     13  C   UNL     1       2.144   3.845  18.166  0.00  0.00    +0.000 A 
ATOM     14  C   UNL     1       2.776   2.788  17.510  0.00  0.00    +0.000 A 
ATOM     15  C   UNL     1       4.006   2.991  16.878  0.00  0.00    +0.000 A 
ATOM     16  C   UNL     1       4.603   4.259  16.880  0.00  0.00    +0.000 A 
ATOM     17  C   UNL     1       3.969   5.316  17.541  0.00  0.00    +0.000 A 
BRANCH  16  18
ATOM     18  C   UNL     1       5.928   4.413  16.212  0.00  0.00    +0.000 C 
ATOM     19  O   UNL     1       5.969   4.521  14.984  0.00  0.00    +0.000 OA
BRANCH  18  20
ATOM     20  C   UNL     1       7.194   4.478  17.039  0.00  0.00    +0.000 C 
BRANCH  20  21
ATOM     21  C   UNL     1       7.509   5.882  17.398  0.00  0.00    +0.000 A 
ATOM     22  N   UNL     1       7.519   6.899  16.557  0.00  0.00    +0.000 NA
ATOM     23  N   UNL     1       7.848   8.034  17.252  0.00  0.00    +0.000 NA
ATOM     24  C   UNL     1       8.065   7.686  18.496  0.00  0.00    +0.000 A 
ATOM     25  N   UNL     1       7.876   6.343  18.635  0.00  0.00    +0.000 N 
ATOM     26  C   UNL     1       8.059   5.599  19.853  0.00  0.00    +0.000 C 
ENDBRANCH  20  21
ENDBRANCH  18  20
ENDBRANCH  16  18
ENDBRANCH   9  12
BRANCH   6  27
ATOM     27  C   UNL     1       1.256  10.588  18.429  0.00  0.00    +0.000 C 
ATOM     28  F   UNL     1       2.501  10.678  17.887  0.00  0.00    +0.000 F 
ATOM     29  F   UNL     1       0.424  10.250  17.406  0.00  0.00    +0.000 F 
ATOM     30  F   UNL     1       0.913  11.859  18.782  0.00  0.00    +0.000 F 
ENDBRANCH   6  27
TORSDOF 5
ENDMDL
MODEL 3
REMARK VINA RESULT:      -8.7      1.319      1.656
REMARK  Name = 
REMARK  7 active torsions:
REMARK  status: ('A' for Active; 'I' for Inactive)
REMARK    1  A    between atoms: C_1  and  C_2
REMARK    2  A    between atoms: C_6  and  C_7
REMARK    3  A    between atoms: N_13  and  C_14
REMARK    4  A    between atoms: C_18  and  C_19
REMARK    5  A    between atoms: C_19  and  C_21
REMARK    6  A    between atoms: C_21  and  C_22
REMARK    7  A    between atoms: N_26  and  C_27
REMARK                            x       y       z     vdW  Elec       q    Type
REMARK                         _______ _______ _______ _____ _____    ______ ____
ROOT
ATOM      1  C   UNL     1       0.874  12.927  18.733  0.00  0.00    +0.000 C 
ATOM      2  C   UNL     1       0.884  11.597  19.428  0.00  0.00    +0.000 A 
ATOM      3  C   UNL     1       1.421  10.469  18.800  0.00  0.00    +0.000 A 
ATOM      4  C   UNL     1       1.396   9.271  19.492  0.00  0.00    +0.000 A 
ATOM      5  C   UNL     1       0.874   9.144  20.781  0.00  0.00    +0.000 A 
ATOM      6  C   UNL     1       0.334  10.252  21.430  0.00  0.00    +0.000 A 
ATOM      7  C   UNL     1       0.348  11.481  20.731  0.00  0.00    +0.000 A 
ATOM      8  C   UNL     1       1.005   7.718  21.231  0.00  0.00    +0.000 C 
ATOM      9  N   UNL     1       1.690   7.095  20.112  0.00  0.00    +0.000 N 
ATOM     10  C   UNL     1       1.878   7.956  19.042  0.00  0.00    +0.000 C 
ATOM     11  O   UNL     1       2.353   7.741  17.945  0.00  0.00    +0.000 OA
ENDROOT
BRANCH   9  12
ATOM     12  C   UNL     1       1.908   5.713  20.057  0.00  0.00    +0.000 A 
ATOM     13  C   UNL     1       0.931   4.825  20.510  0.00  0.00    +0.000 A 
ATOM     14  C   UNL     1       1.192   3.455  20.515  0.00  0.00    +0.000 A 
ATOM     15  C   UNL     1       2.424   2.975  20.060  0.00  0.00    +0.000 A 
ATOM     16  C   UNL     1       3.396   3.862  19.577  0.00  0.00    +0.000 A 
ATOM     17  C   UNL     1       3.132   5.236  19.577  0.00  0.00    +0.000 A 
BRANCH  16  18
ATOM     18  C   UNL     1       4.703   3.298  19.129  0.00  0.00    +0.000 C 
ATOM     19  O   UNL     1       5.253   2.441  19.825  0.00  0.00    +0.000 OA
BRANCH  18  20
ATOM     20  C   UNL     1       5.314   3.744  17.818  0.00  0.00    +0.000 C 
BRANCH  20  21
ATOM     21  C   UNL     1       6.264   4.860  18.041  0.00  0.00    +0.000 A 
ATOM     22  N   UNL     1       7.215   4.879  18.958  0.00  0.00    +0.000 NA
ATOM     23  N   UNL     1       7.890   6.068  18.857  0.00  0.00    +0.000 NA
ATOM     24  C   UNL     1       7.322   6.765  17.905  0.00  0.00    +0.000 A 
ATOM     25  N   UNL     1       6.289   6.055  17.370  0.00  0.00    +0.000 N 
ATOM     26  C   UNL     1       5.413   6.517  16.326  0.00  0.00    +0.000 C 
ENDBRANCH  20  21
ENDBRANCH  18  20
ENDBRANCH  16  18
ENDBRANCH   9  12
BRANCH   6  27
ATOM     27  C   UNL     1      -0.251  10.198  22.816  0.00  0.00    +0.000 C 
ATOM     28  F   UNL     1       0.625   9.775  23.767  0.00  0.00    +0.000 F 
ATOM     29  F   UNL     1      -0.706  11.409  23.237  0.00  0.00    +0.000 F 
ATOM     30  F   UNL     1      -1.318   9.353  22.893  0.00  0.00    +0.000 F 
ENDBRANCH   6  27
TORSDOF 5
ENDMDL
MODEL 4
REMARK VINA RESULT:      -8.7      2.173      2.966
REMARK  Name = 
REMARK  7 active torsions:
REMARK  status: ('A' for Active; 'I' for Inactive)
REMARK    1  A    between atoms: C_1  and  C_2
REMARK    2  A    between atoms: C_6  and  C_7
REMARK    3  A    between atoms: N_13  and  C_14
REMARK    4  A    between atoms: C_18  and  C_19
REMARK    5  A    between atoms: C_19  and  C_21
REMARK    6  A    between atoms: C_21  and  C_22
REMARK    7  A    between atoms: N_26  and  C_27
REMARK                            x       y       z     vdW  Elec       q    Type
REMARK                         _______ _______ _______ _____ _____    ______ ____
ROOT
ATOM      1  C   UNL     1       0.052   9.662  23.193  0.00  0.00    +0.000 C 
ATOM      2  C   UNL     1       0.565   9.102  21.898  0.00  0.00    +0.000 A 
ATOM      3  C   UNL     1       0.981   7.770  21.812  0.00  0.00    +0.000 A 
ATOM      4  C   UNL     1       1.448   7.316  20.592  0.00  0.00    +0.000 A 
ATOM      5  C   UNL     1       1.510   8.119  19.451  0.00  0.00    +0.000 A 
ATOM      6  C   UNL     1       1.101   9.449  19.508  0.00  0.00    +0.000 A 
ATOM      7  C   UNL     1       0.627   9.926  20.751  0.00  0.00    +0.000 A 
ATOM      8  C   UNL     1       2.062   7.316  18.309  0.00  0.00    +0.000 C 
ATOM      9  N   UNL     1       2.238   6.001  18.902  0.00  0.00    +0.000 N 
ATOM     10  C   UNL     1       1.954   5.975  20.258  0.00  0.00    +0.000 C 
ATOM     11  O   UNL     1       2.058   5.066  21.057  0.00  0.00    +0.000 OA
ENDROOT
BRANCH   9  12
ATOM     12  C   UNL     1       2.858   4.956  18.208  0.00  0.00    +0.000 A 
ATOM     13  C   UNL     1       2.417   3.641  18.369  0.00  0.00    +0.000 A 
ATOM     14  C   UNL     1       3.091   2.603  17.726  0.00  0.00    +0.000 A 
ATOM     15  C   UNL     1       4.196   2.881  16.916  0.00  0.00    +0.000 A 
ATOM     16  C   UNL     1       4.622   4.203  16.728  0.00  0.00    +0.000 A 
ATOM     17  C   UNL     1       3.947   5.241  17.378  0.00  0.00    +0.000 A 
BRANCH  16  18
ATOM     18  C   UNL     1       5.823   4.440  15.874  0.00  0.00    +0.000 C 
ATOM     19  O   UNL     1       6.100   3.621  14.994  0.00  0.00    +0.000 OA
BRANCH  18  20
ATOM     20  C   UNL     1       6.656   5.689  16.063  0.00  0.00    +0.000 C 
BRANCH  20  21
ATOM     21  C   UNL     1       7.275   5.703  17.410  0.00  0.00    +0.000 A 
ATOM     22  N   UNL     1       7.436   4.646  18.185  0.00  0.00    +0.000 NA
ATOM     23  N   UNL     1       8.046   5.047  19.345  0.00  0.00    +0.000 NA
ATOM     24  C   UNL     1       8.217   6.344  19.273  0.00  0.00    +0.000 A 
ATOM     25  N   UNL     1       7.739   6.804  18.082  0.00  0.00    +0.000 N 
ATOM     26  C   UNL     1       7.725   8.182  17.667  0.00  0.00    +0.000 C 
ENDBRANCH  20  21
ENDBRANCH  18  20
ENDBRANCH  16  18
ENDBRANCH   9  12
BRANCH   6  27
ATOM     27  C   UNL     1       1.141  10.381  18.326  0.00  0.00    +0.000 C 
ATOM     28  F   UNL     1       2.326  10.372  17.658  0.00  0.00    +0.000 F 
ATOM     29  F   UNL     1       0.186  10.089  17.401  0.00  0.00    +0.000 F 
ATOM     30  F   UNL     1       0.928  11.678  18.685  0.00  0.00    +0.000 F 
ENDBRANCH   6  27
TORSDOF 5
ENDMDL
MODEL 5
REMARK VINA RESULT:      -8.6      3.595      8.368
REMARK  Name = 
REMARK  7 active torsions:
REMARK  status: ('A' for Active; 'I' for Inactive)
REMARK    1  A    between atoms: C_1  and  C_2
REMARK    2  A    between atoms: C_6  and  C_7
REMARK    3  A    between atoms: N_13  and  C_14
REMARK    4  A    between atoms: C_18  and  C_19
REMARK    5  A    between atoms: C_19  and  C_21
REMARK    6  A    between atoms: C_21  and  C_22
REMARK    7  A    between atoms: N_26  and  C_27
REMARK                            x       y       z     vdW  Elec       q    Type
REMARK                         _______ _______ _______ _____ _____    ______ ____
ROOT
ATOM      1  C   UNL     1       4.755   3.967  16.771  0.00  0.00    +0.000 C 
ATOM      2  C   UNL     1       3.883   4.567  17.835  0.00  0.00    +0.000 A 
ATOM      3  C   UNL     1       3.533   5.920  17.790  0.00  0.00    +0.000 A 
ATOM      4  C   UNL     1       2.731   6.414  18.804  0.00  0.00    +0.000 A 
ATOM      5  C   UNL     1       2.252   5.625  19.852  0.00  0.00    +0.000 A 
ATOM      6  C   UNL     1       2.584   4.274  19.920  0.00  0.00    +0.000 A 
ATOM      7  C   UNL     1       3.408   3.759  18.893  0.00  0.00    +0.000 A 
ATOM      8  C   UNL     1       1.417   6.472  20.769  0.00  0.00    +0.000 C 
ATOM      9  N   UNL     1       1.432   7.765  20.106  0.00  0.00    +0.000 N 
ATOM     10  C   UNL     1       2.247   7.791  18.986  0.00  0.00    +0.000 C 
ATOM     11  O   UNL     1       2.530   8.717  18.251  0.00  0.00    +0.000 OA
ENDROOT
BRANCH   9  12
ATOM     12  C   UNL     1       0.867   8.901  20.695  0.00  0.00    +0.000 A 
ATOM     13  C   UNL     1       0.740   8.991  22.082  0.00  0.00    +0.000 A 
ATOM     14  C   UNL     1       0.110  10.098  22.649  0.00  0.00    +0.000 A 
ATOM     15  C   UNL     1      -0.384  11.117  21.830  0.00  0.00    +0.000 A 
ATOM     16  C   UNL     1      -0.233  11.045  20.438  0.00  0.00    +0.000 A 
ATOM     17  C   UNL     1       0.397   9.931  19.873  0.00  0.00    +0.000 A 
BRANCH  16  18
ATOM     18  C   UNL     1      -0.802  12.148  19.610  0.00  0.00    +0.000 C 
ATOM     19  O   UNL     1      -0.032  12.928  19.044  0.00  0.00    +0.000 OA
BRANCH  18  20
ATOM     20  C   UNL     1      -2.300  12.275  19.438  0.00  0.00    +0.000 C 
BRANCH  20  21
ATOM     21  C   UNL     1      -2.733  11.649  18.166  0.00  0.00    +0.000 A 
ATOM     22  N   UNL     1      -1.924  11.130  17.260  0.00  0.00    +0.000 NA
ATOM     23  N   UNL     1      -2.685  10.644  16.228  0.00  0.00    +0.000 NA
ATOM     24  C   UNL     1      -3.938  10.902  16.506  0.00  0.00    +0.000 A 
ATOM     25  N   UNL     1      -4.019  11.543  17.706  0.00  0.00    +0.000 N 
ATOM     26  C   UNL     1      -5.233  12.015  18.318  0.00  0.00    +0.000 C 
ENDBRANCH  20  21
ENDBRANCH  18  20
ENDBRANCH  16  18
ENDBRANCH   9  12
BRANCH   6  27
ATOM     27  C   UNL     1       2.113   3.358  21.018  0.00  0.00    +0.000 C 
ATOM     28  F   UNL     1       2.674   2.119  20.979  0.00  0.00    +0.000 F 
ATOM     29  F   UNL     1       2.377   3.852  22.258  0.00  0.00    +0.000 F 
ATOM     30  F   UNL     1       0.766   3.155  20.977  0.00  0.00    +0.000 F 
ENDBRANCH   6  27
TORSDOF 5
ENDMDL
MODEL 6
REMARK VINA RESULT:      -8.6      3.772      8.451
REMARK  Name = 
REMARK  7 active torsions:
REMARK  status: ('A' for Active; 'I' for Inactive)
REMARK    1  A    between atoms: C_1  and  C_2
REMARK    2  A    between atoms: C_6  and  C_7
REMARK    3  A    between atoms: N_13  and  C_14
REMARK    4  A    between atoms: C_18  and  C_19
REMARK    5  A    between atoms: C_19  and  C_21
REMARK    6  A    between atoms: C_21  and  C_22
REMARK    7  A    between atoms: N_26  and  C_27
REMARK                            x       y       z     vdW  Elec       q    Type
REMARK                         _______ _______ _______ _____ _____    ______ ____
ROOT
ATOM      1  C   UNL     1       4.919   4.102  16.673  0.00  0.00    +0.000 C 
ATOM      2  C   UNL     1       4.028   4.672  17.739  0.00  0.00    +0.000 A 
ATOM      3  C   UNL     1       3.641   6.014  17.702  0.00  0.00    +0.000 A 
ATOM      4  C   UNL     1       2.824   6.480  18.716  0.00  0.00    +0.000 A 
ATOM      5  C   UNL     1       2.364   5.671  19.758  0.00  0.00    +0.000 A 
ATOM      6  C   UNL     1       2.734   4.329  19.819  0.00  0.00    +0.000 A 
ATOM      7  C   UNL     1       3.574   3.844  18.790  0.00  0.00    +0.000 A 
ATOM      8  C   UNL     1       1.505   6.489  20.679  0.00  0.00    +0.000 C 
ATOM      9  N   UNL     1       1.486   7.786  20.024  0.00  0.00    +0.000 N 
ATOM     10  C   UNL     1       2.302   7.842  18.906  0.00  0.00    +0.000 C 
ATOM     11  O   UNL     1       2.560   8.780  18.178  0.00  0.00    +0.000 OA
ENDROOT
BRANCH   9  12
ATOM     12  C   UNL     1       0.888   8.903  20.619  0.00  0.00    +0.000 A 
ATOM     13  C   UNL     1       0.721   8.962  22.004  0.00  0.00    +0.000 A 
ATOM     14  C   UNL     1       0.059  10.049  22.574  0.00  0.00    +0.000 A 
ATOM     15  C   UNL     1      -0.426  11.078  21.762  0.00  0.00    +0.000 A 
ATOM     16  C   UNL     1      -0.233  11.036  20.374  0.00  0.00    +0.000 A 
ATOM     17  C   UNL     1       0.427   9.942  19.805  0.00  0.00    +0.000 A 
BRANCH  16  18
ATOM     18  C   UNL     1      -0.794  12.148  19.552  0.00  0.00    +0.000 C 
ATOM     19  O   UNL     1      -0.870  13.276  20.047  0.00  0.00    +0.000 OA
BRANCH  18  20
ATOM     20  C   UNL     1      -1.221  11.898  18.122  0.00  0.00    +0.000 C 
BRANCH  20  21
ATOM     21  C   UNL     1      -2.684  11.665  18.049  0.00  0.00    +0.000 A 
ATOM     22  N   UNL     1      -3.521  11.757  19.066  0.00  0.00    +0.000 NA
ATOM     23  N   UNL     1      -4.785  11.479  18.614  0.00  0.00    +0.000 NA
ATOM     24  C   UNL     1      -4.694  11.192  17.340  0.00  0.00    +0.000 A 
ATOM     25  N   UNL     1      -3.394  11.283  16.941  0.00  0.00    +0.000 N 
ATOM     26  C   UNL     1      -2.908  11.003  15.616  0.00  0.00    +0.000 C 
ENDBRANCH  20  21
ENDBRANCH  18  20
ENDBRANCH  16  18
ENDBRANCH   9  12
BRANCH   6  27
ATOM     27  C   UNL     1       2.285   3.393  20.909  0.00  0.00    +0.000 C 
ATOM     28  F   UNL     1       0.960   3.089  20.862  0.00  0.00    +0.000 F 
ATOM     29  F   UNL     1       2.945   2.203  20.878  0.00  0.00    +0.000 F 
ATOM     30  F   UNL     1       2.503   3.908  22.152  0.00  0.00    +0.000 F 
ENDBRANCH   6  27
TORSDOF 5
ENDMDL
MODEL 7
REMARK VINA RESULT:      -8.6      3.888      8.384
REMARK  Name = 
REMARK  7 active torsions:
REMARK  status: ('A' for Active; 'I' for Inactive)
REMARK    1  A    between atoms: C_1  and  C_2
REMARK    2  A    between atoms: C_6  and  C_7
REMARK    3  A    between atoms: N_13  and  C_14
REMARK    4  A    between atoms: C_18  and  C_19
REMARK    5  A    between atoms: C_19  and  C_21
REMARK    6  A    between atoms: C_21  and  C_22
REMARK    7  A    between atoms: N_26  and  C_27
REMARK                            x       y       z     vdW  Elec       q    Type
REMARK                         _______ _______ _______ _____ _____    ______ ____
ROOT
ATOM      1  C   UNL     1       6.390   5.032  15.157  0.00  0.00    +0.000 C 
ATOM      2  C   UNL     1       5.355   5.249  16.222  0.00  0.00    +0.000 A 
ATOM      3  C   UNL     1       4.805   6.516  16.435  0.00  0.00    +0.000 A 
ATOM      4  C   UNL     1       3.859   6.652  17.435  0.00  0.00    +0.000 A 
ATOM      5  C   UNL     1       3.426   5.585  18.226  0.00  0.00    +0.000 A 
ATOM      6  C   UNL     1       3.956   4.310  18.034  0.00  0.00    +0.000 A 
ATOM      7  C   UNL     1       4.928   4.162  17.019  0.00  0.00    +0.000 A 
ATOM      8  C   UNL     1       2.401   6.078  19.206  0.00  0.00    +0.000 C 
ATOM      9  N   UNL     1       2.269   7.479  18.848  0.00  0.00    +0.000 N 
ATOM     10  C   UNL     1       3.157   7.872  17.858  0.00  0.00    +0.000 C 
ATOM     11  O   UNL     1       3.350   8.973  17.380  0.00  0.00    +0.000 OA
ENDROOT
BRANCH   9  12
ATOM     12  C   UNL     1       1.491   8.364  19.603  0.00  0.00    +0.000 A 
ATOM     13  C   UNL     1       1.320   8.161  20.974  0.00  0.00    +0.000 A 
ATOM     14  C   UNL     1       0.484   9.009  21.699  0.00  0.00    +0.000 A 
ATOM     15  C   UNL     1      -0.172  10.063  21.056  0.00  0.00    +0.000 A 
ATOM     16  C   UNL     1       0.021  10.288  19.685  0.00  0.00    +0.000 A 
ATOM     17  C   UNL     1       0.857   9.432  18.961  0.00  0.00    +0.000 A 
BRANCH  16  18
ATOM     18  C   UNL     1      -0.725  11.410  19.045  0.00  0.00    +0.000 C 
ATOM     19  O   UNL     1      -0.089  12.352  18.566  0.00  0.00    +0.000 OA
BRANCH  18  20
ATOM     20  C   UNL     1      -2.234  11.365  18.950  0.00  0.00    +0.000 C 
BRANCH  20  21
ATOM     21  C   UNL     1      -2.658  10.902  17.607  0.00  0.00    +0.000 A 
ATOM     22  N   UNL     1      -1.914  10.193  16.777  0.00  0.00    +0.000 NA
ATOM     23  N   UNL     1      -2.643   9.951  15.641  0.00  0.00    +0.000 NA
ATOM     24  C   UNL     1      -3.803  10.542  15.783  0.00  0.00    +0.000 A 
ATOM     25  N   UNL     1      -3.856  11.163  16.995  0.00  0.00    +0.000 N 
ATOM     26  C   UNL     1      -4.962  11.943  17.483  0.00  0.00    +0.000 C 
ENDBRANCH  20  21
ENDBRANCH  18  20
ENDBRANCH  16  18
ENDBRANCH   9  12
BRANCH   6  27
ATOM     27  C   UNL     1       3.546   3.111  18.845  0.00  0.00    +0.000 C 
ATOM     28  F   UNL     1       4.107   3.067  20.084  0.00  0.00    +0.000 F 
ATOM     29  F   UNL     1       2.200   3.049  19.040  0.00  0.00    +0.000 F 
ATOM     30  F   UNL     1       3.889   1.938  18.242  0.00  0.00    +0.000 F 
ENDBRANCH   6  27
TORSDOF 5
ENDMDL
MODEL 8
REMARK VINA RESULT:      -8.5      2.206      3.448
REMARK  Name = 
REMARK  7 active torsions:
REMARK  status: ('A' for Active; 'I' for Inactive)
REMARK    1  A    between atoms: C_1  and  C_2
REMARK    2  A    between atoms: C_6  and  C_7
REMARK    3  A    between atoms: N_13  and  C_14
REMARK    4  A    between atoms: C_18  and  C_19
REMARK    5  A    between atoms: C_19  and  C_21
REMARK    6  A    between atoms: C_21  and  C_22
REMARK    7  A    between atoms: N_26  and  C_27
REMARK                            x       y       z     vdW  Elec       q    Type
REMARK                         _______ _______ _______ _____ _____    ______ ____
ROOT
ATOM      1  C   UNL     1      -1.265  13.346  19.544  0.00  0.00    +0.000 C 
ATOM      2  C   UNL     1      -0.588  12.028  19.784  0.00  0.00    +0.000 A 
ATOM      3  C   UNL     1       0.217  11.451  18.797  0.00  0.00    +0.000 A 
ATOM      4  C   UNL     1       0.809  10.232  19.077  0.00  0.00    +0.000 A 
ATOM      5  C   UNL     1       0.647   9.566  20.294  0.00  0.00    +0.000 A 
ATOM      6  C   UNL     1      -0.149  10.120  21.295  0.00  0.00    +0.000 A 
ATOM      7  C   UNL     1      -0.763  11.362  21.018  0.00  0.00    +0.000 A 
ATOM      8  C   UNL     1       1.422   8.280  20.263  0.00  0.00    +0.000 C 
ATOM      9  N   UNL     1       2.062   8.329  18.960  0.00  0.00    +0.000 N 
ATOM     10  C   UNL     1       1.675   9.425  18.205  0.00  0.00    +0.000 C 
ATOM     11  O   UNL     1       1.968   9.726  17.065  0.00  0.00    +0.000 OA
ENDROOT
BRANCH   9  12
ATOM     12  C   UNL     1       2.796   7.248  18.459  0.00  0.00    +0.000 A 
ATOM     13  C   UNL     1       4.110   7.428  18.020  0.00  0.00    +0.000 A 
ATOM     14  C   UNL     1       4.803   6.357  17.457  0.00  0.00    +0.000 A 
ATOM     15  C   UNL     1       4.188   5.107  17.343  0.00  0.00    +0.000 A 
ATOM     16  C   UNL     1       2.880   4.915  17.811  0.00  0.00    +0.000 A 
ATOM     17  C   UNL     1       2.186   5.992  18.370  0.00  0.00    +0.000 A 
BRANCH  16  18
ATOM     18  C   UNL     1       2.263   3.567  17.640  0.00  0.00    +0.000 C 
ATOM     19  O   UNL     1       1.096   3.490  17.248  0.00  0.00    +0.000 OA
BRANCH  18  20
ATOM     20  C   UNL     1       3.077   2.319  17.904  0.00  0.00    +0.000 C 
BRANCH  20  21
ATOM     21  C   UNL     1       3.483   2.254  19.328  0.00  0.00    +0.000 A 
ATOM     22  N   UNL     1       4.700   1.979  19.761  0.00  0.00    +0.000 NA
ATOM     23  N   UNL     1       4.692   2.016  21.131  0.00  0.00    +0.000 NA
ATOM     24  C   UNL     1       3.467   2.280  21.512  0.00  0.00    +0.000 A 
ATOM     25  N   UNL     1       2.668   2.426  20.417  0.00  0.00    +0.000 N 
ATOM     26  C   UNL     1       1.253   2.687  20.447  0.00  0.00    +0.000 C 
ENDBRANCH  20  21
ENDBRANCH  18  20
ENDBRANCH  16  18
ENDBRANCH   9  12
BRANCH   6  27
ATOM     27  C   UNL     1      -0.377   9.464  22.631  0.00  0.00    +0.000 C 
ATOM     28  F   UNL     1      -1.177  10.181  23.466  0.00  0.00    +0.000 F 
ATOM     29  F   UNL     1      -0.955   8.238  22.517  0.00  0.00    +0.000 F 
ATOM     30  F   UNL     1       0.786   9.266  23.313  0.00  0.00    +0.000 F 
ENDBRANCH   6  27
TORSDOF 5
ENDMDL
MODEL 9
REMARK VINA RESULT:      -8.5      2.300      3.672
REMARK  Name = 
REMARK  7 active torsions:
REMARK  status: ('A' for Active; 'I' for Inactive)
REMARK    1  A    between atoms: C_1  and  C_2
REMARK    2  A    between atoms: C_6  and  C_7
REMARK    3  A    between atoms: N_13  and  C_14
REMARK    4  A    between atoms: C_18  and  C_19
REMARK    5  A    between atoms: C_19  and  C_21
REMARK    6  A    between atoms: C_21  and  C_22
REMARK    7  A    between atoms: N_26  and  C_27
REMARK                            x       y       z     vdW  Elec       q    Type
REMARK                         _______ _______ _______ _____ _____    ______ ____
ROOT
ATOM      1  C   UNL     1      -0.864  13.407  19.575  0.00  0.00    +0.000 C 
ATOM      2  C   UNL     1      -0.275  12.046  19.804  0.00  0.00    +0.000 A 
ATOM      3  C   UNL     1       0.548  11.454  18.840  0.00  0.00    +0.000 A 
ATOM      4  C   UNL     1       1.055  10.196  19.107  0.00  0.00    +0.000 A 
ATOM      5  C   UNL     1       0.794   9.503  20.292  0.00  0.00    +0.000 A 
ATOM      6  C   UNL     1      -0.021  10.069  21.270  0.00  0.00    +0.000 A 
ATOM      7  C   UNL     1      -0.550  11.353  21.004  0.00  0.00    +0.000 A 
ATOM      8  C   UNL     1       1.496   8.176  20.256  0.00  0.00    +0.000 C 
ATOM      9  N   UNL     1       2.205   8.228  18.989  0.00  0.00    +0.000 N 
ATOM     10  C   UNL     1       1.919   9.367  18.253  0.00  0.00    +0.000 C 
ATOM     11  O   UNL     1       2.288   9.687  17.140  0.00  0.00    +0.000 OA
ENDROOT
BRANCH   9  12
ATOM     12  C   UNL     1       2.904   7.123  18.489  0.00  0.00    +0.000 A 
ATOM     13  C   UNL     1       4.257   7.230  18.163  0.00  0.00    +0.000 A 
ATOM     14  C   UNL     1       4.920   6.141  17.599  0.00  0.00    +0.000 A 
ATOM     15  C   UNL     1       4.234   4.945  17.371  0.00  0.00    +0.000 A 
ATOM     16  C   UNL     1       2.882   4.824  17.725  0.00  0.00    +0.000 A 
ATOM     17  C   UNL     1       2.219   5.920  18.286  0.00  0.00    +0.000 A 
BRANCH  16  18
ATOM     18  C   UNL     1       2.192   3.533  17.435  0.00  0.00    +0.000 C 
ATOM     19  O   UNL     1       1.349   3.497  16.536  0.00  0.00    +0.000 OA
BRANCH  18  20
ATOM     20  C   UNL     1       2.558   2.284  18.207  0.00  0.00    +0.000 C 
BRANCH  20  21
ATOM     21  C   UNL     1       2.284   2.467  19.652  0.00  0.00    +0.000 A 
ATOM     22  N   UNL     1       1.103   2.745  20.174  0.00  0.00    +0.000 NA
ATOM     23  N   UNL     1       1.240   2.834  21.535  0.00  0.00    +0.000 NA
ATOM     24  C   UNL     1       2.504   2.641  21.818  0.00  0.00    +0.000 A 
ATOM     25  N   UNL     1       3.202   2.418  20.669  0.00  0.00    +0.000 N 
ATOM     26  C   UNL     1       4.622   2.201  20.586  0.00  0.00    +0.000 C 
ENDBRANCH  20  21
ENDBRANCH  18  20
ENDBRANCH  16  18
ENDBRANCH   9  12
BRANCH   6  27
ATOM     27  C   UNL     1      -0.354   9.387  22.570  0.00  0.00    +0.000 C 
ATOM     28  F   UNL     1      -1.221  10.086  23.351  0.00  0.00    +0.000 F 
ATOM     29  F   UNL     1      -0.917   8.162  22.386  0.00  0.00    +0.000 F 
ATOM     30  F   UNL     1       0.751   9.177  23.339  0.00  0.00    +0.000 F 
ENDBRANCH   6  27
TORSDOF 5
ENDMDL
