MODEL 1
REMARK VINA RESULT:      -8.5      0.000      0.000
REMARK  Name = 
REMARK  4 active torsions:
REMARK  status: ('A' for Active; 'I' for Inactive)
REMARK    1  A    between atoms: C_2  and  C_24
REMARK    2  A    between atoms: N_3  and  C_4
REMARK    3  A    between atoms: C_8  and  C_9
REMARK    4  A    between atoms: C_15  and  C_16
REMARK                            x       y       z     vdW  Elec       q    Type
REMARK                         _______ _______ _______ _____ _____    ______ ____
ROOT
ATOM      1  C   UNL     1       3.850   3.455  17.372  0.00  0.00    +0.000 A 
ATOM      2  C   UNL     1       3.567   2.166  17.824  0.00  0.00    +0.000 A 
ATOM      3  C   UNL     1       2.806   1.966  18.980  0.00  0.00    +0.000 A 
ATOM      4  C   UNL     1       2.325   3.055  19.706  0.00  0.00    +0.000 A 
ATOM      5  C   UNL     1       2.627   4.353  19.288  0.00  0.00    +0.000 A 
ATOM      6  C   UNL     1       3.394   4.548  18.120  0.00  0.00    +0.000 A 
ENDROOT
BRANCH   5   7
ATOM      7  C   UNL     1       2.103   5.557  19.995  0.00  0.00    +0.000 C 
ATOM      8  O   UNL     1       1.540   5.379  21.069  0.00  0.00    +0.000 OA
ATOM      9  N   UNL     1       2.244   6.756  19.321  0.00  0.00    +0.000 N 
ATOM     10  C   UNL     1       1.759   7.928  19.843  0.00  0.00    +0.000 A 
ATOM     11  N   UNL     1       1.369   8.189  21.062  0.00  0.00    +0.000 NA
ATOM     12  C   UNL     1       0.881   9.479  21.119  0.00  0.00    +0.000 A 
ATOM     13  C   UNL     1       0.882  10.193  19.930  0.00  0.00    +0.000 A 
ATOM     14  S   UNL     1       1.637   9.213  18.724  0.00  0.00    +0.000 S 
ATOM     15  H   UNL     1       2.554   6.782  18.364  0.00  0.00    +0.000 HD
BRANCH  13  16
ATOM     16  C   UNL     1       0.374  11.547  19.655  0.00  0.00    +0.000 A 
ATOM     17  C   UNL     1       1.091  12.410  18.808  0.00  0.00    +0.000 A 
ATOM     18  C   UNL     1       0.654  13.717  18.570  0.00  0.00    +0.000 A 
ATOM     19  C   UNL     1      -0.507  14.187  19.177  0.00  0.00    +0.000 A 
ATOM     20  C   UNL     1      -1.229  13.349  20.023  0.00  0.00    +0.000 A 
ATOM     21  C   UNL     1      -0.791  12.041  20.262  0.00  0.00    +0.000 A 
ENDBRANCH  13  16
ENDBRANCH   5   7
BRANCH   1  24
ATOM     22  O   UNL     1       6.640   4.378  17.050  0.00  0.00    +0.000 OA
ATOM     23  C   UNL     1       5.880   4.170  16.109  0.00  0.00    +0.000 C 
ATOM     24  N   UNL     1       4.573   3.716  16.184  0.00  0.00    +0.000 N 
ATOM     25  H   UNL     1       4.144   3.393  15.324  0.00  0.00    +0.000 HD
BRANCH  23  26
ATOM     26  C   UNL     1       6.414   4.350  14.742  0.00  0.00    +0.000 A 
ATOM     27  C   UNL     1       5.905   3.668  13.636  0.00  0.00    +0.000 A 
ATOM     28  C   UNL     1       6.472   3.892  12.382  0.00  0.00    +0.000 A 
ATOM     29  C   UNL     1       7.520   4.796  12.281  0.00  0.00    +0.000 A 
ATOM     30  N   UNL     1       8.018   5.486  13.329  0.00  0.00    +0.000 NA
ATOM     31  C   UNL     1       7.446   5.258  14.537  0.00  0.00    +0.000 A 
ENDBRANCH  23  26
ENDBRANCH   1  24
TORSDOF 4
ENDMDL
MODEL 2
REMARK VINA RESULT:      -8.5      2.802      3.782
REMARK  Name = 
REMARK  4 active torsions:
REMARK  status: ('A' for Active; 'I' for Inactive)
REMARK    1  A    between atoms: C_2  and  C_24
REMARK    2  A    between atoms: N_3  and  C_4
REMARK    3  A    between atoms: C_8  and  C_9
REMARK    4  A    between atoms: C_15  and  C_16
REMARK                            x       y       z     vdW  Elec       q    Type
REMARK                         _______ _______ _______ _____ _____    ______ ____
ROOT
ATOM      1  C   UNL     1       3.423   5.948  18.711  0.00  0.00    +0.000 A 
ATOM      2  C   UNL     1       3.129   4.950  19.640  0.00  0.00    +0.000 A 
ATOM      3  C   UNL     1       2.202   5.175  20.661  0.00  0.00    +0.000 A 
ATOM      4  C   UNL     1       1.561   6.410  20.774  0.00  0.00    +0.000 A 
ATOM      5  C   UNL     1       1.868   7.432  19.873  0.00  0.00    +0.000 A 
ATOM      6  C   UNL     1       2.804   7.198  18.845  0.00  0.00    +0.000 A 
ENDROOT
BRANCH   5   7
ATOM      7  C   UNL     1       1.183   8.757  19.913  0.00  0.00    +0.000 C 
ATOM      8  O   UNL     1       1.427   9.545  19.007  0.00  0.00    +0.000 OA
ATOM      9  N   UNL     1       0.391   8.988  21.022  0.00  0.00    +0.000 N 
ATOM     10  C   UNL     1      -0.252  10.187  21.201  0.00  0.00    +0.000 A 
ATOM     11  N   UNL     1      -0.470  11.143  20.338  0.00  0.00    +0.000 NA
ATOM     12  C   UNL     1      -1.086  12.201  20.975  0.00  0.00    +0.000 A 
ATOM     13  C   UNL     1      -1.317  12.054  22.335  0.00  0.00    +0.000 A 
ATOM     14  S   UNL     1      -0.827  10.460  22.787  0.00  0.00    +0.000 S 
ATOM     15  H   UNL     1       0.395   8.356  21.806  0.00  0.00    +0.000 HD
BRANCH  13  16
ATOM     16  C   UNL     1      -1.887  13.015  23.292  0.00  0.00    +0.000 A 
ATOM     17  C   UNL     1      -3.202  12.847  23.760  0.00  0.00    +0.000 A 
ATOM     18  C   UNL     1      -3.783  13.773  24.633  0.00  0.00    +0.000 A 
ATOM     19  C   UNL     1      -3.060  14.887  25.052  0.00  0.00    +0.000 A 
ATOM     20  C   UNL     1      -1.757  15.073  24.597  0.00  0.00    +0.000 A 
ATOM     21  C   UNL     1      -1.176  14.146  23.723  0.00  0.00    +0.000 A 
ENDBRANCH  13  16
ENDBRANCH   5   7
BRANCH   1  24
ATOM     22  O   UNL     1       3.861   3.542  17.052  0.00  0.00    +0.000 OA
ATOM     23  C   UNL     1       4.484   4.589  16.907  0.00  0.00    +0.000 C 
ATOM     24  N   UNL     1       4.316   5.759  17.629  0.00  0.00    +0.000 N 
ATOM     25  H   UNL     1       4.750   6.598  17.261  0.00  0.00    +0.000 HD
BRANCH  23  26
ATOM     26  C   UNL     1       5.473   4.655  15.809  0.00  0.00    +0.000 A 
ATOM     27  C   UNL     1       5.283   4.019  14.582  0.00  0.00    +0.000 A 
ATOM     28  C   UNL     1       6.269   4.126  13.604  0.00  0.00    +0.000 A 
ATOM     29  C   UNL     1       7.404   4.872  13.887  0.00  0.00    +0.000 A 
ATOM     30  N   UNL     1       7.605   5.516  15.056  0.00  0.00    +0.000 NA
ATOM     31  C   UNL     1       6.629   5.405  15.990  0.00  0.00    +0.000 A 
ENDBRANCH  23  26
ENDBRANCH   1  24
TORSDOF 4
ENDMDL
MODEL 3
REMARK VINA RESULT:      -8.2      2.340      3.062
REMARK  Name = 
REMARK  4 active torsions:
REMARK  status: ('A' for Active; 'I' for Inactive)
REMARK    1  A    between atoms: C_2  and  C_24
REMARK    2  A    between atoms: N_3  and  C_4
REMARK    3  A    between atoms: C_8  and  C_9
REMARK    4  A    between atoms: C_15  and  C_16
REMARK                            x       y       z     vdW  Elec       q    Type
REMARK                         _______ _______ _______ _____ _____    ______ ____
ROOT
ATOM      1  C   UNL     1       4.180   5.779  17.769  0.00  0.00    +0.000 A 
ATOM      2  C   UNL     1       4.151   4.848  18.809  0.00  0.00    +0.000 A 
ATOM      3  C   UNL     1       3.335   5.050  19.926  0.00  0.00    +0.000 A 
ATOM      4  C   UNL     1       2.541   6.193  20.023  0.00  0.00    +0.000 A 
ATOM      5  C   UNL     1       2.581   7.151  19.008  0.00  0.00    +0.000 A 
ATOM      6  C   UNL     1       3.406   6.941  17.883  0.00  0.00    +0.000 A 
ENDROOT
BRANCH   5   7
ATOM      7  C   UNL     1       1.721   8.369  19.033  0.00  0.00    +0.000 C 
ATOM      8  O   UNL     1       1.754   9.102  18.051  0.00  0.00    +0.000 OA
ATOM      9  N   UNL     1       1.023   8.586  20.206  0.00  0.00    +0.000 N 
ATOM     10  C   UNL     1       0.236   9.697  20.372  0.00  0.00    +0.000 A 
ATOM     11  N   UNL     1      -0.206  10.537  19.475  0.00  0.00    +0.000 NA
ATOM     12  C   UNL     1      -0.898  11.553  20.102  0.00  0.00    +0.000 A 
ATOM     13  C   UNL     1      -0.964  11.493  21.486  0.00  0.00    +0.000 A 
ATOM     14  S   UNL     1      -0.206  10.025  21.990  0.00  0.00    +0.000 S 
ATOM     15  H   UNL     1       1.198   8.029  21.026  0.00  0.00    +0.000 HD
BRANCH  13  16
ATOM     16  C   UNL     1      -1.564  12.447  22.433  0.00  0.00    +0.000 A 
ATOM     17  C   UNL     1      -0.826  13.557  22.878  0.00  0.00    +0.000 A 
ATOM     18  C   UNL     1      -1.356  14.451  23.814  0.00  0.00    +0.000 A 
ATOM     19  C   UNL     1      -2.636  14.249  24.325  0.00  0.00    +0.000 A 
ATOM     20  C   UNL     1      -3.382  13.153  23.900  0.00  0.00    +0.000 A 
ATOM     21  C   UNL     1      -2.850  12.258  22.963  0.00  0.00    +0.000 A 
ENDBRANCH  13  16
ENDBRANCH   5   7
BRANCH   1  24
ATOM     22  O   UNL     1       4.715   3.305  16.243  0.00  0.00    +0.000 OA
ATOM     23  C   UNL     1       5.175   4.402  15.941  0.00  0.00    +0.000 C 
ATOM     24  N   UNL     1       4.949   5.603  16.595  0.00  0.00    +0.000 N 
ATOM     25  H   UNL     1       5.222   6.452  16.113  0.00  0.00    +0.000 HD
BRANCH  23  26
ATOM     26  C   UNL     1       6.004   4.488  14.720  0.00  0.00    +0.000 A 
ATOM     27  C   UNL     1       5.724   3.759  13.564  0.00  0.00    +0.000 A 
ATOM     28  C   UNL     1       6.563   3.894  12.459  0.00  0.00    +0.000 A 
ATOM     29  C   UNL     1       7.643   4.759  12.548  0.00  0.00    +0.000 A 
ATOM     30  N   UNL     1       7.926   5.494  13.646  0.00  0.00    +0.000 NA
ATOM     31  C   UNL     1       7.093   5.353  14.706  0.00  0.00    +0.000 A 
ENDBRANCH  23  26
ENDBRANCH   1  24
TORSDOF 4
ENDMDL
MODEL 4
REMARK VINA RESULT:      -8.2      2.137      2.719
REMARK  Name = 
REMARK  4 active torsions:
REMARK  status: ('A' for Active; 'I' for Inactive)
REMARK    1  A    between atoms: C_2  and  C_24
REMARK    2  A    between atoms: N_3  and  C_4
REMARK    3  A    between atoms: C_8  and  C_9
REMARK    4  A    between atoms: C_15  and  C_16
REMARK                            x       y       z     vdW  Elec       q    Type
REMARK                         _______ _______ _______ _____ _____    ______ ____
ROOT
ATOM      1  C   UNL     1       4.190   5.155  17.397  0.00  0.00    +0.000 A 
ATOM      2  C   UNL     1       4.236   4.334  18.524  0.00  0.00    +0.000 A 
ATOM      3  C   UNL     1       3.624   4.725  19.719  0.00  0.00    +0.000 A 
ATOM      4  C   UNL     1       2.963   5.951  19.805  0.00  0.00    +0.000 A 
ATOM      5  C   UNL     1       2.935   6.801  18.697  0.00  0.00    +0.000 A 
ATOM      6  C   UNL     1       3.554   6.399  17.495  0.00  0.00    +0.000 A 
ENDROOT
BRANCH   5   7
ATOM      7  C   UNL     1       2.205   8.102  18.713  0.00  0.00    +0.000 C 
ATOM      8  O   UNL     1       2.420   8.880  17.791  0.00  0.00    +0.000 OA
ATOM      9  N   UNL     1       1.408   8.327  19.820  0.00  0.00    +0.000 N 
ATOM     10  C   UNL     1       0.725   9.507  19.977  0.00  0.00    +0.000 A 
ATOM     11  N   UNL     1       0.472  10.437  19.096  0.00  0.00    +0.000 NA
ATOM     12  C   UNL     1      -0.178  11.487  19.714  0.00  0.00    +0.000 A 
ATOM     13  C   UNL     1      -0.401  11.358  21.076  0.00  0.00    +0.000 A 
ATOM     14  S   UNL     1       0.144   9.791  21.558  0.00  0.00    +0.000 S 
ATOM     15  H   UNL     1       1.436   7.712  20.615  0.00  0.00    +0.000 HD
BRANCH  13  16
ATOM     16  C   UNL     1      -1.002  12.318  22.017  0.00  0.00    +0.000 A 
ATOM     17  C   UNL     1      -0.388  13.562  22.242  0.00  0.00    +0.000 A 
ATOM     18  C   UNL     1      -0.913  14.471  23.166  0.00  0.00    +0.000 A 
ATOM     19  C   UNL     1      -2.061  14.151  23.885  0.00  0.00    +0.000 A 
ATOM     20  C   UNL     1      -2.682  12.922  23.681  0.00  0.00    +0.000 A 
ATOM     21  C   UNL     1      -2.156  12.012  22.755  0.00  0.00    +0.000 A 
ENDBRANCH  13  16
ENDBRANCH   5   7
BRANCH   1  24
ATOM     22  O   UNL     1       6.663   6.128  16.103  0.00  0.00    +0.000 OA
ATOM     23  C   UNL     1       5.908   5.305  15.594  0.00  0.00    +0.000 C 
ATOM     24  N   UNL     1       4.749   4.789  16.150  0.00  0.00    +0.000 N 
ATOM     25  H   UNL     1       4.347   3.970  15.708  0.00  0.00    +0.000 HD
BRANCH  23  26
ATOM     26  C   UNL     1       6.290   4.742  14.281  0.00  0.00    +0.000 A 
ATOM     27  C   UNL     1       5.527   3.778  13.621  0.00  0.00    +0.000 A 
ATOM     28  C   UNL     1       5.963   3.296  12.389  0.00  0.00    +0.000 A 
ATOM     29  C   UNL     1       7.141   3.802  11.859  0.00  0.00    +0.000 A 
ATOM     30  N   UNL     1       7.888   4.750  12.463  0.00  0.00    +0.000 NA
ATOM     31  C   UNL     1       7.441   5.211  13.657  0.00  0.00    +0.000 A 
ENDBRANCH  23  26
ENDBRANCH   1  24
TORSDOF 4
ENDMDL
MODEL 5
REMARK VINA RESULT:      -8.1      0.606      1.275
REMARK  Name = 
REMARK  4 active torsions:
REMARK  status: ('A' for Active; 'I' for Inactive)
REMARK    1  A    between atoms: C_2  and  C_24
REMARK    2  A    between atoms: N_3  and  C_4
REMARK    3  A    between atoms: C_8  and  C_9
REMARK    4  A    between atoms: C_15  and  C_16
REMARK                            x       y       z     vdW  Elec       q    Type
REMARK                         _______ _______ _______ _____ _____    ______ ____
ROOT
ATOM      1  C   UNL     1       3.948   3.410  17.259  0.00  0.00    +0.000 A 
ATOM      2  C   UNL     1       3.714   2.121  17.740  0.00  0.00    +0.000 A 
ATOM      3  C   UNL     1       2.973   1.918  18.907  0.00  0.00    +0.000 A 
ATOM      4  C   UNL     1       2.463   3.005  19.618  0.00  0.00    +0.000 A 
ATOM      5  C   UNL     1       2.715   4.303  19.170  0.00  0.00    +0.000 A 
ATOM      6  C   UNL     1       3.463   4.501  17.990  0.00  0.00    +0.000 A 
ENDROOT
BRANCH   5   7
ATOM      7  C   UNL     1       2.158   5.503  19.860  0.00  0.00    +0.000 C 
ATOM      8  O   UNL     1       1.515   5.315  20.886  0.00  0.00    +0.000 OA
ATOM      9  N   UNL     1       2.366   6.711  19.220  0.00  0.00    +0.000 N 
ATOM     10  C   UNL     1       1.860   7.881  19.728  0.00  0.00    +0.000 A 
ATOM     11  N   UNL     1       1.385   8.127  20.919  0.00  0.00    +0.000 NA
ATOM     12  C   UNL     1       0.913   9.423  20.964  0.00  0.00    +0.000 A 
ATOM     13  C   UNL     1       1.012  10.158  19.792  0.00  0.00    +0.000 A 
ATOM     14  S   UNL     1       1.839   9.188  18.626  0.00  0.00    +0.000 S 
ATOM     15  H   UNL     1       2.745   6.749  18.289  0.00  0.00    +0.000 HD
BRANCH  13  16
ATOM     16  C   UNL     1       0.544  11.524  19.506  0.00  0.00    +0.000 A 
ATOM     17  C   UNL     1      -0.798  11.872  19.735  0.00  0.00    +0.000 A 
ATOM     18  C   UNL     1      -1.277  13.149  19.426  0.00  0.00    +0.000 A 
ATOM     19  C   UNL     1      -0.422  14.102  18.879  0.00  0.00    +0.000 A 
ATOM     20  C   UNL     1       0.910  13.776  18.640  0.00  0.00    +0.000 A 
ATOM     21  C   UNL     1       1.389  12.497  18.949  0.00  0.00    +0.000 A 
ENDBRANCH  13  16
ENDBRANCH   5   7
BRANCH   1  24
ATOM     22  O   UNL     1       6.730   4.335  16.885  0.00  0.00    +0.000 OA
ATOM     23  C   UNL     1       5.953   4.126  15.957  0.00  0.00    +0.000 C 
ATOM     24  N   UNL     1       4.648   3.671  16.057  0.00  0.00    +0.000 N 
ATOM     25  H   UNL     1       4.203   3.347  15.206  0.00  0.00    +0.000 HD
BRANCH  23  26
ATOM     26  C   UNL     1       6.461   4.307  14.581  0.00  0.00    +0.000 A 
ATOM     27  C   UNL     1       7.480   5.205  14.263  0.00  0.00    +0.000 A 
ATOM     28  C   UNL     1       7.895   5.318  12.937  0.00  0.00    +0.000 A 
ATOM     29  C   UNL     1       7.281   4.522  11.981  0.00  0.00    +0.000 A 
ATOM     30  N   UNL     1       6.308   3.629  12.262  0.00  0.00    +0.000 NA
ATOM     31  C   UNL     1       5.926   3.530  13.559  0.00  0.00    +0.000 A 
ENDBRANCH  23  26
ENDBRANCH   1  24
TORSDOF 4
ENDMDL
MODEL 6
REMARK VINA RESULT:      -8.0      7.035     11.182
REMARK  Name = 
REMARK  4 active torsions:
REMARK  status: ('A' for Active; 'I' for Inactive)
REMARK    1  A    between atoms: C_2  and  C_24
REMARK    2  A    between atoms: N_3  and  C_4
REMARK    3  A    between atoms: C_8  and  C_9
REMARK    4  A    between atoms: C_15  and  C_16
REMARK                            x       y       z     vdW  Elec       q    Type
REMARK                         _______ _______ _______ _____ _____    ______ ____
ROOT
ATOM      1  C   UNL     1       9.980  11.602  21.009  0.00  0.00    +0.000 A 
ATOM      2  C   UNL     1      11.178  12.028  20.432  0.00  0.00    +0.000 A 
ATOM      3  C   UNL     1      11.528  11.632  19.138  0.00  0.00    +0.000 A 
ATOM      4  C   UNL     1      10.687  10.795  18.404  0.00  0.00    +0.000 A 
ATOM      5  C   UNL     1       9.500  10.332  18.977  0.00  0.00    +0.000 A 
ATOM      6  C   UNL     1       9.153  10.736  20.283  0.00  0.00    +0.000 A 
ENDROOT
BRANCH   5   7
ATOM      7  C   UNL     1       8.538   9.474  18.227  0.00  0.00    +0.000 C 
ATOM      8  O   UNL     1       7.899  10.001  17.324  0.00  0.00    +0.000 OA
ATOM      9  N   UNL     1       8.414   8.175  18.682  0.00  0.00    +0.000 N 
ATOM     10  C   UNL     1       7.526   7.301  18.108  0.00  0.00    +0.000 A 
ATOM     11  N   UNL     1       6.895   7.395  16.968  0.00  0.00    +0.000 NA
ATOM     12  C   UNL     1       6.040   6.320  16.829  0.00  0.00    +0.000 A 
ATOM     13  C   UNL     1       6.007   5.417  17.881  0.00  0.00    +0.000 A 
ATOM     14  S   UNL     1       7.195   5.905  19.037  0.00  0.00    +0.000 S 
ATOM     15  H   UNL     1       8.843   7.882  19.544  0.00  0.00    +0.000 HD
BRANCH  13  16
ATOM     16  C   UNL     1       5.165   4.223  18.058  0.00  0.00    +0.000 A 
ATOM     17  C   UNL     1       4.367   3.760  16.998  0.00  0.00    +0.000 A 
ATOM     18  C   UNL     1       3.522   2.657  17.156  0.00  0.00    +0.000 A 
ATOM     19  C   UNL     1       3.455   1.999  18.381  0.00  0.00    +0.000 A 
ATOM     20  C   UNL     1       4.234   2.445  19.446  0.00  0.00    +0.000 A 
ATOM     21  C   UNL     1       5.080   3.549  19.286  0.00  0.00    +0.000 A 
ENDBRANCH  13  16
ENDBRANCH   5   7
BRANCH   1  24
ATOM     22  O   UNL     1       8.470  14.019  21.793  0.00  0.00    +0.000 OA
ATOM     23  C   UNL     1       8.863  13.174  22.592  0.00  0.00    +0.000 C 
ATOM     24  N   UNL     1       9.554  12.011  22.295  0.00  0.00    +0.000 N 
ATOM     25  H   UNL     1       9.626  11.314  23.027  0.00  0.00    +0.000 HD
BRANCH  23  26
ATOM     26  C   UNL     1       8.517  13.363  24.017  0.00  0.00    +0.000 A 
ATOM     27  C   UNL     1       8.617  14.596  24.662  0.00  0.00    +0.000 A 
ATOM     28  C   UNL     1       8.278  14.685  26.011  0.00  0.00    +0.000 A 
ATOM     29  C   UNL     1       7.843  13.539  26.661  0.00  0.00    +0.000 A 
ATOM     30  N   UNL     1       7.716  12.338  26.058  0.00  0.00    +0.000 NA
ATOM     31  C   UNL     1       8.044  12.277  24.744  0.00  0.00    +0.000 A 
ENDBRANCH  23  26
ENDBRANCH   1  24
TORSDOF 4
ENDMDL
MODEL 7
REMARK VINA RESULT:      -8.0      3.651     10.289
REMARK  Name = 
REMARK  4 active torsions:
REMARK  status: ('A' for Active; 'I' for Inactive)
REMARK    1  A    between atoms: C_2  and  C_24
REMARK    2  A    between atoms: N_3  and  C_4
REMARK    3  A    between atoms: C_8  and  C_9
REMARK    4  A    between atoms: C_15  and  C_16
REMARK                            x       y       z     vdW  Elec       q    Type
REMARK                         _______ _______ _______ _____ _____    ______ ____
ROOT
ATOM      1  C   UNL     1      -0.267  13.269  20.853  0.00  0.00    +0.000 A 
ATOM      2  C   UNL     1      -1.088  13.472  21.963  0.00  0.00    +0.000 A 
ATOM      3  C   UNL     1      -1.319  12.442  22.879  0.00  0.00    +0.000 A 
ATOM      4  C   UNL     1      -0.737  11.188  22.693  0.00  0.00    +0.000 A 
ATOM      5  C   UNL     1       0.061  10.956  21.571  0.00  0.00    +0.000 A 
ATOM      6  C   UNL     1       0.290  12.000  20.650  0.00  0.00    +0.000 A 
ENDROOT
BRANCH   5   7
ATOM      7  C   UNL     1       0.748   9.652  21.341  0.00  0.00    +0.000 C 
ATOM      8  O   UNL     1       1.070   9.003  22.330  0.00  0.00    +0.000 OA
ATOM      9  N   UNL     1       1.018   9.342  20.021  0.00  0.00    +0.000 N 
ATOM     10  C   UNL     1       1.690   8.194  19.682  0.00  0.00    +0.000 A 
ATOM     11  N   UNL     1       1.933   7.136  20.407  0.00  0.00    +0.000 NA
ATOM     12  C   UNL     1       2.710   6.254  19.683  0.00  0.00    +0.000 A 
ATOM     13  C   UNL     1       3.076   6.658  18.408  0.00  0.00    +0.000 A 
ATOM     14  S   UNL     1       2.304   8.170  18.088  0.00  0.00    +0.000 S 
ATOM     15  H   UNL     1       0.881  10.018  19.289  0.00  0.00    +0.000 HD
BRANCH  13  16
ATOM     16  C   UNL     1       3.941   5.981  17.429  0.00  0.00    +0.000 A 
ATOM     17  C   UNL     1       4.661   6.734  16.485  0.00  0.00    +0.000 A 
ATOM     18  C   UNL     1       5.452   6.112  15.514  0.00  0.00    +0.000 A 
ATOM     19  C   UNL     1       5.536   4.723  15.467  0.00  0.00    +0.000 A 
ATOM     20  C   UNL     1       4.827   3.958  16.390  0.00  0.00    +0.000 A 
ATOM     21  C   UNL     1       4.035   4.582  17.362  0.00  0.00    +0.000 A 
ENDBRANCH  13  16
ENDBRANCH   5   7
BRANCH   1  24
ATOM     22  O   UNL     1       1.075  15.864  21.301  0.00  0.00    +0.000 OA
ATOM     23  C   UNL     1       0.655  15.496  20.207  0.00  0.00    +0.000 C 
ATOM     24  N   UNL     1       0.040  14.288  19.921  0.00  0.00    +0.000 N 
ATOM     25  H   UNL     1      -0.061  14.039  18.943  0.00  0.00    +0.000 HD
BRANCH  23  26
ATOM     26  C   UNL     1       0.879  16.387  19.049  0.00  0.00    +0.000 A 
ATOM     27  C   UNL     1      -0.154  17.082  18.420  0.00  0.00    +0.000 A 
ATOM     28  C   UNL     1       0.143  17.897  17.329  0.00  0.00    +0.000 A 
ATOM     29  C   UNL     1       1.464  17.992  16.914  0.00  0.00    +0.000 A 
ATOM     30  N   UNL     1       2.487  17.349  17.517  0.00  0.00    +0.000 NA
ATOM     31  C   UNL     1       2.175  16.569  18.581  0.00  0.00    +0.000 A 
ENDBRANCH  23  26
ENDBRANCH   1  24
TORSDOF 4
ENDMDL
MODEL 8
REMARK VINA RESULT:      -8.0      3.780     10.529
REMARK  Name = 
REMARK  4 active torsions:
REMARK  status: ('A' for Active; 'I' for Inactive)
REMARK    1  A    between atoms: C_2  and  C_24
REMARK    2  A    between atoms: N_3  and  C_4
REMARK    3  A    between atoms: C_8  and  C_9
REMARK    4  A    between atoms: C_15  and  C_16
REMARK                            x       y       z     vdW  Elec       q    Type
REMARK                         _______ _______ _______ _____ _____    ______ ____
ROOT
ATOM      1  C   UNL     1      -0.199  13.606  20.877  0.00  0.00    +0.000 A 
ATOM      2  C   UNL     1      -1.038  13.849  21.966  0.00  0.00    +0.000 A 
ATOM      3  C   UNL     1      -1.336  12.832  22.878  0.00  0.00    +0.000 A 
ATOM      4  C   UNL     1      -0.806  11.553  22.708  0.00  0.00    +0.000 A 
ATOM      5  C   UNL     1       0.008  11.282  21.606  0.00  0.00    +0.000 A 
ATOM      6  C   UNL     1       0.306  12.313  20.690  0.00  0.00    +0.000 A 
ENDROOT
BRANCH   5   7
ATOM      7  C   UNL     1       0.641   9.949  21.395  0.00  0.00    +0.000 C 
ATOM      8  O   UNL     1       0.926   9.296  22.392  0.00  0.00    +0.000 OA
ATOM      9  N   UNL     1       0.911   9.615  20.081  0.00  0.00    +0.000 N 
ATOM     10  C   UNL     1       1.537   8.438  19.759  0.00  0.00    +0.000 A 
ATOM     11  N   UNL     1       1.728   7.376  20.496  0.00  0.00    +0.000 NA
ATOM     12  C   UNL     1       2.475   6.456  19.788  0.00  0.00    +0.000 A 
ATOM     13  C   UNL     1       2.870   6.833  18.513  0.00  0.00    +0.000 A 
ATOM     14  S   UNL     1       2.166   8.373  18.171  0.00  0.00    +0.000 S 
ATOM     15  H   UNL     1       0.811  10.290  19.341  0.00  0.00    +0.000 HD
BRANCH  13  16
ATOM     16  C   UNL     1       3.716   6.111  17.549  0.00  0.00    +0.000 A 
ATOM     17  C   UNL     1       3.675   4.707  17.488  0.00  0.00    +0.000 A 
ATOM     18  C   UNL     1       4.504   3.996  16.614  0.00  0.00    +0.000 A 
ATOM     19  C   UNL     1       5.393   4.676  15.786  0.00  0.00    +0.000 A 
ATOM     20  C   UNL     1       5.452   6.067  15.834  0.00  0.00    +0.000 A 
ATOM     21  C   UNL     1       4.622   6.778  16.709  0.00  0.00    +0.000 A 
ENDBRANCH  13  16
ENDBRANCH   5   7
BRANCH   1  24
ATOM     22  O   UNL     1      -1.697  16.005  20.016  0.00  0.00    +0.000 OA
ATOM     23  C   UNL     1      -0.591  15.701  19.578  0.00  0.00    +0.000 C 
ATOM     24  N   UNL     1       0.175  14.608  19.951  0.00  0.00    +0.000 N 
ATOM     25  H   UNL     1       1.147  14.603  19.661  0.00  0.00    +0.000 HD
BRANCH  23  26
ATOM     26  C   UNL     1       0.036  16.615  18.600  0.00  0.00    +0.000 A 
ATOM     27  C   UNL     1      -0.703  17.478  17.791  0.00  0.00    +0.000 A 
ATOM     28  C   UNL     1      -0.032  18.303  16.890  0.00  0.00    +0.000 A 
ATOM     29  C   UNL     1       1.353  18.240  16.839  0.00  0.00    +0.000 A 
ATOM     30  N   UNL     1       2.096  17.431  17.625  0.00  0.00    +0.000 NA
ATOM     31  C   UNL     1       1.422  16.643  18.499  0.00  0.00    +0.000 A 
ENDBRANCH  23  26
ENDBRANCH   1  24
TORSDOF 4
ENDMDL
MODEL 9
REMARK VINA RESULT:      -7.9      4.140     11.750
REMARK  Name = 
REMARK  4 active torsions:
REMARK  status: ('A' for Active; 'I' for Inactive)
REMARK    1  A    between atoms: C_2  and  C_24
REMARK    2  A    between atoms: N_3  and  C_4
REMARK    3  A    between atoms: C_8  and  C_9
REMARK    4  A    between atoms: C_15  and  C_16
REMARK                            x       y       z     vdW  Elec       q    Type
REMARK                         _______ _______ _______ _____ _____    ______ ____
ROOT
ATOM      1  C   UNL     1      -1.760  12.751  21.769  0.00  0.00    +0.000 A 
ATOM      2  C   UNL     1      -1.048  13.903  21.430  0.00  0.00    +0.000 A 
ATOM      3  C   UNL     1       0.270  13.820  20.974  0.00  0.00    +0.000 A 
ATOM      4  C   UNL     1       0.901  12.581  20.859  0.00  0.00    +0.000 A 
ATOM      5  C   UNL     1       0.217  11.419  21.225  0.00  0.00    +0.000 A 
ATOM      6  C   UNL     1      -1.114  11.510  21.684  0.00  0.00    +0.000 A 
ENDROOT
BRANCH   5   7
ATOM      7  C   UNL     1       0.820  10.064  21.080  0.00  0.00    +0.000 C 
ATOM      8  O   UNL     1       1.078   9.449  22.109  0.00  0.00    +0.000 OA
ATOM      9  N   UNL     1       1.099   9.667  19.785  0.00  0.00    +0.000 N 
ATOM     10  C   UNL     1       1.701   8.462  19.523  0.00  0.00    +0.000 A 
ATOM     11  N   UNL     1       1.857   7.430  20.308  0.00  0.00    +0.000 NA
ATOM     12  C   UNL     1       2.591   6.463  19.651  0.00  0.00    +0.000 A 
ATOM     13  C   UNL     1       3.010   6.774  18.366  0.00  0.00    +0.000 A 
ATOM     14  S   UNL     1       2.347   8.314  17.948  0.00  0.00    +0.000 S 
ATOM     15  H   UNL     1       1.023  10.311  19.016  0.00  0.00    +0.000 HD
BRANCH  13  16
ATOM     16  C   UNL     1       3.851   5.991  17.445  0.00  0.00    +0.000 A 
ATOM     17  C   UNL     1       3.824   4.587  17.488  0.00  0.00    +0.000 A 
ATOM     18  C   UNL     1       4.648   3.821  16.657  0.00  0.00    +0.000 A 
ATOM     19  C   UNL     1       5.518   4.447  15.769  0.00  0.00    +0.000 A 
ATOM     20  C   UNL     1       5.564   5.838  15.714  0.00  0.00    +0.000 A 
ATOM     21  C   UNL     1       4.738   6.604  16.546  0.00  0.00    +0.000 A 
ENDBRANCH  13  16
ENDBRANCH   5   7
BRANCH   1  24
ATOM     22  O   UNL     1      -4.222  12.722  20.135  0.00  0.00    +0.000 OA
ATOM     23  C   UNL     1      -4.221  12.777  21.361  0.00  0.00    +0.000 C 
ATOM     24  N   UNL     1      -3.111  12.771  22.189  0.00  0.00    +0.000 N 
ATOM     25  H   UNL     1      -3.269  12.611  23.177  0.00  0.00    +0.000 HD
BRANCH  23  26
ATOM     26  C   UNL     1      -5.529  12.784  22.050  0.00  0.00    +0.000 A 
ATOM     27  C   UNL     1      -6.726  12.472  21.403  0.00  0.00    +0.000 A 
ATOM     28  C   UNL     1      -7.916  12.510  22.126  0.00  0.00    +0.000 A 
ATOM     29  C   UNL     1      -7.865  12.850  23.470  0.00  0.00    +0.000 A 
ATOM     30  N   UNL     1      -6.720  13.135  24.128  0.00  0.00    +0.000 NA
ATOM     31  C   UNL     1      -5.573  13.084  23.406  0.00  0.00    +0.000 A 
ENDBRANCH  23  26
ENDBRANCH   1  24
TORSDOF 4
ENDMDL
