MODEL 1
REMARK VINA RESULT:      -8.3      0.000      0.000
REMARK  Name = 
REMARK  8 active torsions:
REMARK  status: ('A' for Active; 'I' for Inactive)
REMARK    1  A    between atoms: C_1  and  C_2
REMARK    2  A    between atoms: C_2  and  C_3
REMARK    3  A    between atoms: C_3  and  C_4
REMARK    4  A    between atoms: N_13  and  C_14
REMARK    5  A    between atoms: C_14  and  C_15
REMARK    6  A    between atoms: C_17  and  C_18
REMARK    7  A    between atoms: C_18  and  C_19
REMARK    8  A    between atoms: C_24  and  C_25
REMARK                            x       y       z     vdW  Elec       q    Type
REMARK                         _______ _______ _______ _____ _____    ______ ____
ROOT
ATOM      1  C   UNL     1       3.756   5.798  18.062  0.00  0.00    +0.000 C 
ATOM      2  N   UNL     1       4.017   6.047  16.655  0.00  0.00    +0.000 N 
ATOM      3  C   UNL     1       5.353   6.137  16.361  0.00  0.00    +0.000 C 
ATOM      4  O   UNL     1       5.798   6.247  15.233  0.00  0.00    +0.000 OA
ATOM      5  N   UNL     1       6.059   6.035  17.514  0.00  0.00    +0.000 N 
ATOM      6  C   UNL     1       5.224   5.822  18.574  0.00  0.00    +0.000 C 
ATOM      7  O   UNL     1       5.589   5.601  19.723  0.00  0.00    +0.000 OA
ATOM      8  H   UNL     1       3.330   6.052  15.915  0.00  0.00    +0.000 HD
ENDROOT
BRANCH   1   9
ATOM      9  C   UNL     1       2.872   6.889  18.674  0.00  0.00    +0.000 A 
ATOM     10  C   UNL     1       2.548   8.055  17.957  0.00  0.00    +0.000 A 
ATOM     11  C   UNL     1       1.722   9.043  18.503  0.00  0.00    +0.000 A 
ATOM     12  C   UNL     1       1.222   8.901  19.793  0.00  0.00    +0.000 A 
ATOM     13  C   UNL     1       1.565   7.780  20.542  0.00  0.00    +0.000 A 
ATOM     14  C   UNL     1       2.387   6.789  19.993  0.00  0.00    +0.000 A 
ENDBRANCH   1   9
BRANCH   1  16
ATOM     15  C   UNL     1       1.792   4.175  17.605  0.00  0.00    +0.000 C 
ATOM     16  C   UNL     1       3.149   4.394  18.277  0.00  0.00    +0.000 C 
ENDBRANCH   1  16
BRANCH   5  17
ATOM     17  C   UNL     1       7.502   6.082  17.601  0.00  0.00    +0.000 C 
BRANCH  17  18
ATOM     18  C   UNL     1       7.927   7.463  17.937  0.00  0.00    +0.000 A 
ATOM     19  N   UNL     1       8.719   7.888  18.898  0.00  0.00    +0.000 NA
ATOM     20  C   UNL     1       8.649   9.254  18.749  0.00  0.00    +0.000 A 
ATOM     21  N   UNL     1       7.853   9.665  17.749  0.00  0.00    +0.000 NA
ATOM     22  O   UNL     1       7.384   8.472  17.198  0.00  0.00    +0.000 OA
BRANCH  20  23
ATOM     23  C   UNL     1       9.216  10.185  19.755  0.00  0.00    +0.000 C 
BRANCH  23  24
ATOM     24  C   UNL     1       9.717  11.424  19.045  0.00  0.00    +0.000 A 
ATOM     25  C   UNL     1      10.455  11.261  17.855  0.00  0.00    +0.000 A 
ATOM     26  C   UNL     1      10.853  12.361  17.096  0.00  0.00    +0.000 A 
ATOM     27  C   UNL     1      10.519  13.645  17.510  0.00  0.00    +0.000 A 
ATOM     28  C   UNL     1       9.813  13.830  18.699  0.00  0.00    +0.000 A 
ATOM     29  C   UNL     1       9.417  12.732  19.484  0.00  0.00    +0.000 A 
ATOM     30  C   UNL     1       8.694  12.999  20.777  0.00  0.00    +0.000 C 
ENDBRANCH  23  24
ENDBRANCH  20  23
ENDBRANCH  17  18
ENDBRANCH   5  17
TORSDOF 6
ENDMDL
MODEL 2
REMARK VINA RESULT:      -8.1      0.996      1.796
REMARK  Name = 
REMARK  8 active torsions:
REMARK  status: ('A' for Active; 'I' for Inactive)
REMARK    1  A    between atoms: C_1  and  C_2
REMARK    2  A    between atoms: C_2  and  C_3
REMARK    3  A    between atoms: C_3  and  C_4
REMARK    4  A    between atoms: N_13  and  C_14
REMARK    5  A    between atoms: C_14  and  C_15
REMARK    6  A    between atoms: C_17  and  C_18
REMARK    7  A    between atoms: C_18  and  C_19
REMARK    8  A    between atoms: C_24  and  C_25
REMARK                            x       y       z     vdW  Elec       q    Type
REMARK                         _______ _______ _______ _____ _____    ______ ____
ROOT
ATOM      1  C   UNL     1       3.713   5.555  18.139  0.00  0.00    +0.000 C 
ATOM      2  N   UNL     1       3.845   5.813  16.716  0.00  0.00    +0.000 N 
ATOM      3  C   UNL     1       5.147   5.942  16.308  0.00  0.00    +0.000 C 
ATOM      4  O   UNL     1       5.490   6.066  15.146  0.00  0.00    +0.000 OA
ATOM      5  N   UNL     1       5.953   5.859  17.395  0.00  0.00    +0.000 N 
ATOM      6  C   UNL     1       5.219   5.621  18.522  0.00  0.00    +0.000 C 
ATOM      7  O   UNL     1       5.688   5.409  19.635  0.00  0.00    +0.000 OA
ATOM      8  H   UNL     1       3.097   5.799  16.038  0.00  0.00    +0.000 HD
ENDROOT
BRANCH   1   9
ATOM      9  C   UNL     1       2.855   6.619  18.830  0.00  0.00    +0.000 A 
ATOM     10  C   UNL     1       2.563   7.843  18.200  0.00  0.00    +0.000 A 
ATOM     11  C   UNL     1       1.760   8.808  18.818  0.00  0.00    +0.000 A 
ATOM     12  C   UNL     1       1.252   8.583  20.092  0.00  0.00    +0.000 A 
ATOM     13  C   UNL     1       1.564   7.401  20.757  0.00  0.00    +0.000 A 
ATOM     14  C   UNL     1       2.363   6.434  20.136  0.00  0.00    +0.000 A 
ENDBRANCH   1   9
BRANCH   1  16
ATOM     15  C   UNL     1       1.850   3.815  17.692  0.00  0.00    +0.000 C 
ATOM     16  C   UNL     1       3.168   4.134  18.400  0.00  0.00    +0.000 C 
ENDBRANCH   1  16
BRANCH   5  17
ATOM     17  C   UNL     1       7.396   5.947  17.358  0.00  0.00    +0.000 C 
BRANCH  17  18
ATOM     18  C   UNL     1       7.816   7.295  17.815  0.00  0.00    +0.000 A 
ATOM     19  N   UNL     1       7.648   8.467  17.242  0.00  0.00    +0.000 NA
ATOM     20  C   UNL     1       8.329   9.306  18.093  0.00  0.00    +0.000 A 
ATOM     21  N   UNL     1       8.896   8.694  19.143  0.00  0.00    +0.000 NA
ATOM     22  O   UNL     1       8.542   7.355  18.968  0.00  0.00    +0.000 OA
BRANCH  20  23
ATOM     23  C   UNL     1       8.607  10.721  17.746  0.00  0.00    +0.000 C 
BRANCH  23  24
ATOM     24  C   UNL     1       9.395  11.353  18.872  0.00  0.00    +0.000 A 
ATOM     25  C   UNL     1       8.779  11.478  20.133  0.00  0.00    +0.000 A 
ATOM     26  C   UNL     1       9.486  11.951  21.238  0.00  0.00    +0.000 A 
ATOM     27  C   UNL     1      10.823  12.308  21.105  0.00  0.00    +0.000 A 
ATOM     28  C   UNL     1      11.444  12.219  19.859  0.00  0.00    +0.000 A 
ATOM     29  C   UNL     1      10.742  11.758  18.731  0.00  0.00    +0.000 A 
ATOM     30  C   UNL     1      11.456  11.723  17.406  0.00  0.00    +0.000 C 
ENDBRANCH  23  24
ENDBRANCH  20  23
ENDBRANCH  17  18
ENDBRANCH   5  17
TORSDOF 6
ENDMDL
MODEL 3
REMARK VINA RESULT:      -8.0      1.130      2.932
REMARK  Name = 
REMARK  8 active torsions:
REMARK  status: ('A' for Active; 'I' for Inactive)
REMARK    1  A    between atoms: C_1  and  C_2
REMARK    2  A    between atoms: C_2  and  C_3
REMARK    3  A    between atoms: C_3  and  C_4
REMARK    4  A    between atoms: N_13  and  C_14
REMARK    5  A    between atoms: C_14  and  C_15
REMARK    6  A    between atoms: C_17  and  C_18
REMARK    7  A    between atoms: C_18  and  C_19
REMARK    8  A    between atoms: C_24  and  C_25
REMARK                            x       y       z     vdW  Elec       q    Type
REMARK                         _______ _______ _______ _____ _____    ______ ____
ROOT
ATOM      1  C   UNL     1       3.994   5.551  18.884  0.00  0.00    +0.000 C 
ATOM      2  N   UNL     1       5.039   5.271  19.853  0.00  0.00    +0.000 N 
ATOM      3  C   UNL     1       6.297   5.559  19.391  0.00  0.00    +0.000 C 
ATOM      4  O   UNL     1       7.305   5.490  20.069  0.00  0.00    +0.000 OA
ATOM      5  N   UNL     1       6.202   5.966  18.101  0.00  0.00    +0.000 N 
ATOM      6  C   UNL     1       4.897   6.010  17.704  0.00  0.00    +0.000 C 
ATOM      7  O   UNL     1       4.506   6.429  16.620  0.00  0.00    +0.000 OA
ATOM      8  H   UNL     1       4.898   4.997  20.815  0.00  0.00    +0.000 HD
ENDROOT
BRANCH   1   9
ATOM      9  C   UNL     1       3.162   4.303  18.573  0.00  0.00    +0.000 A 
ATOM     10  C   UNL     1       3.710   3.218  17.863  0.00  0.00    +0.000 A 
ATOM     11  C   UNL     1       2.961   2.067  17.598  0.00  0.00    +0.000 A 
ATOM     12  C   UNL     1       1.637   1.983  18.013  0.00  0.00    +0.000 A 
ATOM     13  C   UNL     1       1.056   3.060  18.675  0.00  0.00    +0.000 A 
ATOM     14  C   UNL     1       1.807   4.210  18.945  0.00  0.00    +0.000 A 
ENDBRANCH   1   9
BRANCH   1  16
ATOM     15  C   UNL     1       2.436   7.506  18.214  0.00  0.00    +0.000 C 
ATOM     16  C   UNL     1       3.102   6.723  19.347  0.00  0.00    +0.000 C 
ENDBRANCH   1  16
BRANCH   5  17
ATOM     17  C   UNL     1       7.326   6.360  17.280  0.00  0.00    +0.000 C 
BRANCH  17  18
ATOM     18  C   UNL     1       7.801   7.698  17.708  0.00  0.00    +0.000 A 
ATOM     19  N   UNL     1       8.713   8.020  18.599  0.00  0.00    +0.000 NA
ATOM     20  C   UNL     1       8.635   9.393  18.612  0.00  0.00    +0.000 A 
ATOM     21  N   UNL     1       7.719   9.907  17.775  0.00  0.00    +0.000 NA
ATOM     22  O   UNL     1       7.174   8.778  17.161  0.00  0.00    +0.000 OA
BRANCH  20  23
ATOM     23  C   UNL     1       9.334  10.212  19.633  0.00  0.00    +0.000 C 
BRANCH  23  24
ATOM     24  C   UNL     1       9.815  11.492  18.985  0.00  0.00    +0.000 A 
ATOM     25  C   UNL     1      10.585  11.399  17.809  0.00  0.00    +0.000 A 
ATOM     26  C   UNL     1      10.967  12.540  17.104  0.00  0.00    +0.000 A 
ATOM     27  C   UNL     1      10.585  13.797  17.561  0.00  0.00    +0.000 A 
ATOM     28  C   UNL     1       9.847  13.912  18.738  0.00  0.00    +0.000 A 
ATOM     29  C   UNL     1       9.466  12.773  19.469  0.00  0.00    +0.000 A 
ATOM     30  C   UNL     1       8.704  12.965  20.753  0.00  0.00    +0.000 C 
ENDBRANCH  23  24
ENDBRANCH  20  23
ENDBRANCH  17  18
ENDBRANCH   5  17
TORSDOF 6
ENDMDL
MODEL 4
REMARK VINA RESULT:      -8.0      0.397      1.029
REMARK  Name = 
REMARK  8 active torsions:
REMARK  status: ('A' for Active; 'I' for Inactive)
REMARK    1  A    between atoms: C_1  and  C_2
REMARK    2  A    between atoms: C_2  and  C_3
REMARK    3  A    between atoms: C_3  and  C_4
REMARK    4  A    between atoms: N_13  and  C_14
REMARK    5  A    between atoms: C_14  and  C_15
REMARK    6  A    between atoms: C_17  and  C_18
REMARK    7  A    between atoms: C_18  and  C_19
REMARK    8  A    between atoms: C_24  and  C_25
REMARK                            x       y       z     vdW  Elec       q    Type
REMARK                         _______ _______ _______ _____ _____    ______ ____
ROOT
ATOM      1  C   UNL     1       3.872   5.656  18.187  0.00  0.00    +0.000 C 
ATOM      2  N   UNL     1       4.089   5.934  16.778  0.00  0.00    +0.000 N 
ATOM      3  C   UNL     1       5.413   6.087  16.456  0.00  0.00    +0.000 C 
ATOM      4  O   UNL     1       5.826   6.231  15.320  0.00  0.00    +0.000 OA
ATOM      5  N   UNL     1       6.149   6.002  17.591  0.00  0.00    +0.000 N 
ATOM      6  C   UNL     1       5.349   5.739  18.666  0.00  0.00    +0.000 C 
ATOM      7  O   UNL     1       5.749   5.519  19.804  0.00  0.00    +0.000 OA
ATOM      8  H   UNL     1       3.386   5.918  16.054  0.00  0.00    +0.000 HD
ENDROOT
BRANCH   1   9
ATOM      9  C   UNL     1       2.955   6.700  18.834  0.00  0.00    +0.000 A 
ATOM     10  C   UNL     1       2.341   6.462  20.078  0.00  0.00    +0.000 A 
ATOM     11  C   UNL     1       1.523   7.422  20.683  0.00  0.00    +0.000 A 
ATOM     12  C   UNL     1       1.278   8.633  20.046  0.00  0.00    +0.000 A 
ATOM     13  C   UNL     1       1.834   8.876  18.795  0.00  0.00    +0.000 A 
ATOM     14  C   UNL     1       2.657   7.917  18.192  0.00  0.00    +0.000 A 
ENDBRANCH   1   9
BRANCH   1  16
ATOM     15  C   UNL     1       4.056   3.145  17.589  0.00  0.00    +0.000 C 
ATOM     16  C   UNL     1       3.332   4.224  18.396  0.00  0.00    +0.000 C 
ENDBRANCH   1  16
BRANCH   5  17
ATOM     17  C   UNL     1       7.590   6.111  17.647  0.00  0.00    +0.000 C 
BRANCH  17  18
ATOM     18  C   UNL     1       7.963   7.513  17.959  0.00  0.00    +0.000 A 
ATOM     19  N   UNL     1       8.770   7.981  18.886  0.00  0.00    +0.000 NA
ATOM     20  C   UNL     1       8.630   9.341  18.733  0.00  0.00    +0.000 A 
ATOM     21  N   UNL     1       7.778   9.708  17.764  0.00  0.00    +0.000 NA
ATOM     22  O   UNL     1       7.344   8.490  17.236  0.00  0.00    +0.000 OA
BRANCH  20  23
ATOM     23  C   UNL     1       9.191  10.304  19.712  0.00  0.00    +0.000 C 
BRANCH  23  24
ATOM     24  C   UNL     1       9.767  11.484  18.960  0.00  0.00    +0.000 A 
ATOM     25  C   UNL     1      10.638  11.229  17.882  0.00  0.00    +0.000 A 
ATOM     26  C   UNL     1      11.117  12.266  17.081  0.00  0.00    +0.000 A 
ATOM     27  C   UNL     1      10.734  13.576  17.341  0.00  0.00    +0.000 A 
ATOM     28  C   UNL     1       9.895  13.852  18.421  0.00  0.00    +0.000 A 
ATOM     29  C   UNL     1       9.414  12.821  19.247  0.00  0.00    +0.000 A 
ATOM     30  C   UNL     1       8.545  13.188  20.420  0.00  0.00    +0.000 C 
ENDBRANCH  23  24
ENDBRANCH  20  23
ENDBRANCH  17  18
ENDBRANCH   5  17
TORSDOF 6
ENDMDL
MODEL 5
REMARK VINA RESULT:      -7.9      0.745      1.053
REMARK  Name = 
REMARK  8 active torsions:
REMARK  status: ('A' for Active; 'I' for Inactive)
REMARK    1  A    between atoms: C_1  and  C_2
REMARK    2  A    between atoms: C_2  and  C_3
REMARK    3  A    between atoms: C_3  and  C_4
REMARK    4  A    between atoms: N_13  and  C_14
REMARK    5  A    between atoms: C_14  and  C_15
REMARK    6  A    between atoms: C_17  and  C_18
REMARK    7  A    between atoms: C_18  and  C_19
REMARK    8  A    between atoms: C_24  and  C_25
REMARK                            x       y       z     vdW  Elec       q    Type
REMARK                         _______ _______ _______ _____ _____    ______ ____
ROOT
ATOM      1  C   UNL     1       3.707   5.660  18.224  0.00  0.00    +0.000 C 
ATOM      2  N   UNL     1       3.953   5.824  16.802  0.00  0.00    +0.000 N 
ATOM      3  C   UNL     1       5.285   5.889  16.487  0.00  0.00    +0.000 C 
ATOM      4  O   UNL     1       5.717   5.928  15.349  0.00  0.00    +0.000 OA
ATOM      5  N   UNL     1       6.004   5.852  17.635  0.00  0.00    +0.000 N 
ATOM      6  C   UNL     1       5.182   5.707  18.716  0.00  0.00    +0.000 C 
ATOM      7  O   UNL     1       5.559   5.553  19.871  0.00  0.00    +0.000 OA
ATOM      8  H   UNL     1       3.256   5.788  16.071  0.00  0.00    +0.000 HD
ENDROOT
BRANCH   1   9
ATOM      9  C   UNL     1       2.836   6.792  18.781  0.00  0.00    +0.000 A 
ATOM     10  C   UNL     1       2.555   7.940  18.018  0.00  0.00    +0.000 A 
ATOM     11  C   UNL     1       1.741   8.964  18.514  0.00  0.00    +0.000 A 
ATOM     12  C   UNL     1       1.210   8.876  19.796  0.00  0.00    +0.000 A 
ATOM     13  C   UNL     1       1.510   7.774  20.589  0.00  0.00    +0.000 A 
ATOM     14  C   UNL     1       2.320   6.747  20.090  0.00  0.00    +0.000 A 
ENDBRANCH   1   9
BRANCH   1  16
ATOM     15  C   UNL     1       2.034   3.811  17.531  0.00  0.00    +0.000 C 
ATOM     16  C   UNL     1       3.097   4.275  18.530  0.00  0.00    +0.000 C 
ENDBRANCH   1  16
BRANCH   5  17
ATOM     17  C   UNL     1       7.448   5.896  17.702  0.00  0.00    +0.000 C 
BRANCH  17  18
ATOM     18  C   UNL     1       7.886   7.295  17.930  0.00  0.00    +0.000 A 
ATOM     19  N   UNL     1       8.672   7.789  18.860  0.00  0.00    +0.000 NA
ATOM     20  C   UNL     1       8.619   9.139  18.600  0.00  0.00    +0.000 A 
ATOM     21  N   UNL     1       7.838   9.475  17.562  0.00  0.00    +0.000 NA
ATOM     22  O   UNL     1       7.361   8.246  17.104  0.00  0.00    +0.000 OA
BRANCH  20  23
ATOM     23  C   UNL     1       9.185  10.143  19.533  0.00  0.00    +0.000 C 
BRANCH  23  24
ATOM     24  C   UNL     1       9.515  11.399  18.756  0.00  0.00    +0.000 A 
ATOM     25  C   UNL     1       8.478  12.042  18.052  0.00  0.00    +0.000 A 
ATOM     26  C   UNL     1       8.691  13.260  17.406  0.00  0.00    +0.000 A 
ATOM     27  C   UNL     1       9.945  13.859  17.453  0.00  0.00    +0.000 A 
ATOM     28  C   UNL     1      10.993  13.224  18.120  0.00  0.00    +0.000 A 
ATOM     29  C   UNL     1      10.799  11.989  18.764  0.00  0.00    +0.000 A 
ATOM     30  C   UNL     1      11.979  11.336  19.434  0.00  0.00    +0.000 C 
ENDBRANCH  23  24
ENDBRANCH  20  23
ENDBRANCH  17  18
ENDBRANCH   5  17
TORSDOF 6
ENDMDL
MODEL 6
REMARK VINA RESULT:      -7.9      9.732     12.092
REMARK  Name = 
REMARK  8 active torsions:
REMARK  status: ('A' for Active; 'I' for Inactive)
REMARK    1  A    between atoms: C_1  and  C_2
REMARK    2  A    between atoms: C_2  and  C_3
REMARK    3  A    between atoms: C_3  and  C_4
REMARK    4  A    between atoms: N_13  and  C_14
REMARK    5  A    between atoms: C_14  and  C_15
REMARK    6  A    between atoms: C_17  and  C_18
REMARK    7  A    between atoms: C_18  and  C_19
REMARK    8  A    between atoms: C_24  and  C_25
REMARK                            x       y       z     vdW  Elec       q    Type
REMARK                         _______ _______ _______ _____ _____    ______ ____
ROOT
ATOM      1  C   UNL     1      -6.119  12.044  18.437  0.00  0.00    +0.000 C 
ATOM      2  N   UNL     1      -6.652  10.960  19.243  0.00  0.00    +0.000 N 
ATOM      3  C   UNL     1      -6.799  11.291  20.565  0.00  0.00    +0.000 C 
ATOM      4  O   UNL     1      -7.317  10.567  21.396  0.00  0.00    +0.000 OA
ATOM      5  N   UNL     1      -6.324  12.546  20.753  0.00  0.00    +0.000 N 
ATOM      6  C   UNL     1      -5.909  13.088  19.570  0.00  0.00    +0.000 C 
ATOM      7  O   UNL     1      -5.520  14.241  19.423  0.00  0.00    +0.000 OA
ATOM      8  H   UNL     1      -6.996  10.076  18.897  0.00  0.00    +0.000 HD
ENDROOT
BRANCH   1   9
ATOM      9  C   UNL     1      -4.822  11.636  17.729  0.00  0.00    +0.000 A 
ATOM     10  C   UNL     1      -4.825  11.211  16.388  0.00  0.00    +0.000 A 
ATOM     11  C   UNL     1      -3.641  10.861  15.731  0.00  0.00    +0.000 A 
ATOM     12  C   UNL     1      -2.427  10.903  16.408  0.00  0.00    +0.000 A 
ATOM     13  C   UNL     1      -2.401  11.275  17.748  0.00  0.00    +0.000 A 
ATOM     14  C   UNL     1      -3.586  11.630  18.404  0.00  0.00    +0.000 A 
ENDBRANCH   1   9
BRANCH   1  16
ATOM     15  C   UNL     1      -6.735  13.791  16.630  0.00  0.00    +0.000 C 
ATOM     16  C   UNL     1      -7.171  12.564  17.433  0.00  0.00    +0.000 C 
ENDBRANCH   1  16
BRANCH   5  17
ATOM     17  C   UNL     1      -6.316  13.240  22.023  0.00  0.00    +0.000 C 
BRANCH  17  18
ATOM     18  C   UNL     1      -5.014  13.011  22.697  0.00  0.00    +0.000 A 
ATOM     19  N   UNL     1      -3.823  13.486  22.408  0.00  0.00    +0.000 NA
ATOM     20  C   UNL     1      -3.023  12.846  23.326  0.00  0.00    +0.000 A 
ATOM     21  N   UNL     1      -3.678  12.010  24.146  0.00  0.00    +0.000 NA
ATOM     22  O   UNL     1      -5.007  12.131  23.739  0.00  0.00    +0.000 OA
BRANCH  20  23
ATOM     23  C   UNL     1      -1.543  12.899  23.252  0.00  0.00    +0.000 C 
BRANCH  23  24
ATOM     24  C   UNL     1      -1.048  11.672  22.516  0.00  0.00    +0.000 A 
ATOM     25  C   UNL     1      -1.019  10.444  23.205  0.00  0.00    +0.000 A 
ATOM     26  C   UNL     1      -0.676   9.259  22.555  0.00  0.00    +0.000 A 
ATOM     27  C   UNL     1      -0.358   9.279  21.201  0.00  0.00    +0.000 A 
ATOM     28  C   UNL     1      -0.353  10.489  20.508  0.00  0.00    +0.000 A 
ATOM     29  C   UNL     1      -0.682  11.695  21.152  0.00  0.00    +0.000 A 
ATOM     30  C   UNL     1      -0.619  12.972  20.358  0.00  0.00    +0.000 C 
ENDBRANCH  23  24
ENDBRANCH  20  23
ENDBRANCH  17  18
ENDBRANCH   5  17
TORSDOF 6
ENDMDL
MODEL 7
REMARK VINA RESULT:      -7.8      5.176      7.245
REMARK  Name = 
REMARK  8 active torsions:
REMARK  status: ('A' for Active; 'I' for Inactive)
REMARK    1  A    between atoms: C_1  and  C_2
REMARK    2  A    between atoms: C_2  and  C_3
REMARK    3  A    between atoms: C_3  and  C_4
REMARK    4  A    between atoms: N_13  and  C_14
REMARK    5  A    between atoms: C_14  and  C_15
REMARK    6  A    between atoms: C_17  and  C_18
REMARK    7  A    between atoms: C_18  and  C_19
REMARK    8  A    between atoms: C_24  and  C_25
REMARK                            x       y       z     vdW  Elec       q    Type
REMARK                         _______ _______ _______ _____ _____    ______ ____
ROOT
ATOM      1  C   UNL     1       2.632   5.252  19.400  0.00  0.00    +0.000 C 
ATOM      2  N   UNL     1       1.990   4.422  18.396  0.00  0.00    +0.000 N 
ATOM      3  C   UNL     1       2.879   3.719  17.626  0.00  0.00    +0.000 C 
ATOM      4  O   UNL     1       2.555   2.893  16.792  0.00  0.00    +0.000 OA
ATOM      5  N   UNL     1       4.138   4.066  17.990  0.00  0.00    +0.000 N 
ATOM      6  C   UNL     1       4.112   4.952  19.029  0.00  0.00    +0.000 C 
ATOM      7  O   UNL     1       5.101   5.367  19.623  0.00  0.00    +0.000 OA
ATOM      8  H   UNL     1       0.997   4.261  18.306  0.00  0.00    +0.000 HD
ENDROOT
BRANCH   1   9
ATOM      9  C   UNL     1       2.247   6.727  19.245  0.00  0.00    +0.000 A 
ATOM     10  C   UNL     1       2.445   7.411  18.031  0.00  0.00    +0.000 A 
ATOM     11  C   UNL     1       2.072   8.750  17.879  0.00  0.00    +0.000 A 
ATOM     12  C   UNL     1       1.516   9.447  18.947  0.00  0.00    +0.000 A 
ATOM     13  C   UNL     1       1.353   8.809  20.172  0.00  0.00    +0.000 A 
ATOM     14  C   UNL     1       1.721   7.467  20.322  0.00  0.00    +0.000 A 
ENDBRANCH   1   9
BRANCH   1  16
ATOM     15  C   UNL     1       1.197   3.716  20.910  0.00  0.00    +0.000 C 
ATOM     16  C   UNL     1       2.334   4.737  20.825  0.00  0.00    +0.000 C 
ENDBRANCH   1  16
BRANCH   5  17
ATOM     17  C   UNL     1       5.342   3.526  17.399  0.00  0.00    +0.000 C 
BRANCH  17  18
ATOM     18  C   UNL     1       5.576   4.172  16.085  0.00  0.00    +0.000 A 
ATOM     19  N   UNL     1       6.160   3.697  15.006  0.00  0.00    +0.000 NA
ATOM     20  C   UNL     1       6.151   4.786  14.167  0.00  0.00    +0.000 A 
ATOM     21  N   UNL     1       5.593   5.889  14.690  0.00  0.00    +0.000 NA
ATOM     22  O   UNL     1       5.195   5.477  15.963  0.00  0.00    +0.000 OA
BRANCH  20  23
ATOM     23  C   UNL     1       6.905   4.801  12.889  0.00  0.00    +0.000 C 
BRANCH  23  24
ATOM     24  C   UNL     1       6.606   3.525  12.132  0.00  0.00    +0.000 A 
ATOM     25  C   UNL     1       7.676   2.657  11.835  0.00  0.00    +0.000 A 
ATOM     26  C   UNL     1       7.454   1.417  11.236  0.00  0.00    +0.000 A 
ATOM     27  C   UNL     1       6.159   1.019  10.926  0.00  0.00    +0.000 A 
ATOM     28  C   UNL     1       5.089   1.875  11.187  0.00  0.00    +0.000 A 
ATOM     29  C   UNL     1       5.296   3.135  11.776  0.00  0.00    +0.000 A 
ATOM     30  C   UNL     1       4.105   4.029  11.995  0.00  0.00    +0.000 C 
ENDBRANCH  23  24
ENDBRANCH  20  23
ENDBRANCH  17  18
ENDBRANCH   5  17
TORSDOF 6
ENDMDL
MODEL 8
REMARK VINA RESULT:      -7.7      5.029      7.365
REMARK  Name = 
REMARK  8 active torsions:
REMARK  status: ('A' for Active; 'I' for Inactive)
REMARK    1  A    between atoms: C_1  and  C_2
REMARK    2  A    between atoms: C_2  and  C_3
REMARK    3  A    between atoms: C_3  and  C_4
REMARK    4  A    between atoms: N_13  and  C_14
REMARK    5  A    between atoms: C_14  and  C_15
REMARK    6  A    between atoms: C_17  and  C_18
REMARK    7  A    between atoms: C_18  and  C_19
REMARK    8  A    between atoms: C_24  and  C_25
REMARK                            x       y       z     vdW  Elec       q    Type
REMARK                         _______ _______ _______ _____ _____    ______ ____
ROOT
ATOM      1  C   UNL     1       2.459   5.595  19.394  0.00  0.00    +0.000 C 
ATOM      2  N   UNL     1       1.875   4.760  18.359  0.00  0.00    +0.000 N 
ATOM      3  C   UNL     1       2.795   3.969  17.721  0.00  0.00    +0.000 C 
ATOM      4  O   UNL     1       2.510   3.127  16.889  0.00  0.00    +0.000 OA
ATOM      5  N   UNL     1       4.026   4.255  18.208  0.00  0.00    +0.000 N 
ATOM      6  C   UNL     1       3.947   5.187  19.203  0.00  0.00    +0.000 C 
ATOM      7  O   UNL     1       4.891   5.569  19.886  0.00  0.00    +0.000 OA
ATOM      8  H   UNL     1       0.889   4.657  18.165  0.00  0.00    +0.000 HD
ENDROOT
BRANCH   1   9
ATOM      9  C   UNL     1       2.190   7.082  19.140  0.00  0.00    +0.000 A 
ATOM     10  C   UNL     1       2.505   7.681  17.907  0.00  0.00    +0.000 A 
ATOM     11  C   UNL     1       2.239   9.032  17.662  0.00  0.00    +0.000 A 
ATOM     12  C   UNL     1       1.677   9.825  18.657  0.00  0.00    +0.000 A 
ATOM     13  C   UNL     1       1.399   9.270  19.902  0.00  0.00    +0.000 A 
ATOM     14  C   UNL     1       1.660   7.916  20.144  0.00  0.00    +0.000 A 
ENDBRANCH   1   9
BRANCH   1  16
ATOM     15  C   UNL     1       1.325   3.781  20.852  0.00  0.00    +0.000 C 
ATOM     16  C   UNL     1       1.974   5.165  20.797  0.00  0.00    +0.000 C 
ENDBRANCH   1  16
BRANCH   5  17
ATOM     17  C   UNL     1       5.250   3.616  17.777  0.00  0.00    +0.000 C 
BRANCH  17  18
ATOM     18  C   UNL     1       5.637   4.145  16.447  0.00  0.00    +0.000 A 
ATOM     19  N   UNL     1       5.881   3.504  15.325  0.00  0.00    +0.000 NA
ATOM     20  C   UNL     1       6.274   4.522  14.488  0.00  0.00    +0.000 A 
ATOM     21  N   UNL     1       6.280   5.738  15.054  0.00  0.00    +0.000 NA
ATOM     22  O   UNL     1       5.841   5.491  16.356  0.00  0.00    +0.000 OA
BRANCH  20  23
ATOM     23  C   UNL     1       6.865   4.258  13.153  0.00  0.00    +0.000 C 
BRANCH  23  24
ATOM     24  C   UNL     1       5.851   3.515  12.310  0.00  0.00    +0.000 A 
ATOM     25  C   UNL     1       4.517   3.968  12.313  0.00  0.00    +0.000 A 
ATOM     26  C   UNL     1       3.558   3.396  11.477  0.00  0.00    +0.000 A 
ATOM     27  C   UNL     1       3.916   2.361  10.620  0.00  0.00    +0.000 A 
ATOM     28  C   UNL     1       5.225   1.879  10.621  0.00  0.00    +0.000 A 
ATOM     29  C   UNL     1       6.200   2.435  11.469  0.00  0.00    +0.000 A 
ATOM     30  C   UNL     1       7.584   1.844  11.453  0.00  0.00    +0.000 C 
ENDBRANCH  23  24
ENDBRANCH  20  23
ENDBRANCH  17  18
ENDBRANCH   5  17
TORSDOF 6
ENDMDL
MODEL 9
REMARK VINA RESULT:      -7.6      2.958      7.066
REMARK  Name = 
REMARK  8 active torsions:
REMARK  status: ('A' for Active; 'I' for Inactive)
REMARK    1  A    between atoms: C_1  and  C_2
REMARK    2  A    between atoms: C_2  and  C_3
REMARK    3  A    between atoms: C_3  and  C_4
REMARK    4  A    between atoms: N_13  and  C_14
REMARK    5  A    between atoms: C_14  and  C_15
REMARK    6  A    between atoms: C_17  and  C_18
REMARK    7  A    between atoms: C_18  and  C_19
REMARK    8  A    between atoms: C_24  and  C_25
REMARK                            x       y       z     vdW  Elec       q    Type
REMARK                         _______ _______ _______ _____ _____    ______ ____
ROOT
ATOM      1  C   UNL     1       6.481   5.058  17.274  0.00  0.00    +0.000 C 
ATOM      2  N   UNL     1       6.395   4.081  18.345  0.00  0.00    +0.000 N 
ATOM      3  C   UNL     1       5.108   3.712  18.638  0.00  0.00    +0.000 C 
ATOM      4  O   UNL     1       4.813   2.839  19.433  0.00  0.00    +0.000 OA
ATOM      5  N   UNL     1       4.262   4.440  17.868  0.00  0.00    +0.000 N 
ATOM      6  C   UNL     1       4.959   5.254  17.022  0.00  0.00    +0.000 C 
ATOM      7  O   UNL     1       4.459   5.956  16.151  0.00  0.00    +0.000 OA
ATOM      8  H   UNL     1       7.174   3.611  18.785  0.00  0.00    +0.000 HD
ENDROOT
BRANCH   1   9
ATOM      9  C   UNL     1       7.199   6.333  17.728  0.00  0.00    +0.000 A 
ATOM     10  C   UNL     1       7.113   7.524  16.984  0.00  0.00    +0.000 A 
ATOM     11  C   UNL     1       7.747   8.697  17.408  0.00  0.00    +0.000 A 
ATOM     12  C   UNL     1       8.506   8.699  18.573  0.00  0.00    +0.000 A 
ATOM     13  C   UNL     1       8.646   7.524  19.303  0.00  0.00    +0.000 A 
ATOM     14  C   UNL     1       8.007   6.352  18.882  0.00  0.00    +0.000 A 
ENDBRANCH   1   9
BRANCH   1  16
ATOM     15  C   UNL     1       6.177   3.779  15.045  0.00  0.00    +0.000 C 
ATOM     16  C   UNL     1       7.146   4.452  16.019  0.00  0.00    +0.000 C 
ENDBRANCH   1  16
BRANCH   5  17
ATOM     17  C   UNL     1       2.821   4.324  17.896  0.00  0.00    +0.000 C 
BRANCH  17  18
ATOM     18  C   UNL     1       2.280   5.193  18.969  0.00  0.00    +0.000 A 
ATOM     19  N   UNL     1       2.440   6.484  19.166  0.00  0.00    +0.000 NA
ATOM     20  C   UNL     1       1.780   6.680  20.357  0.00  0.00    +0.000 A 
ATOM     21  N   UNL     1       1.236   5.571  20.881  0.00  0.00    +0.000 NA
ATOM     22  O   UNL     1       1.555   4.582  19.949  0.00  0.00    +0.000 OA
BRANCH  20  23
ATOM     23  C   UNL     1       1.870   7.958  21.105  0.00  0.00    +0.000 C 
BRANCH  23  24
ATOM     24  C   UNL     1       1.023   8.996  20.401  0.00  0.00    +0.000 A 
ATOM     25  C   UNL     1       1.272   9.250  19.038  0.00  0.00    +0.000 A 
ATOM     26  C   UNL     1       0.459  10.114  18.304  0.00  0.00    +0.000 A 
ATOM     27  C   UNL     1      -0.621  10.738  18.919  0.00  0.00    +0.000 A 
ATOM     28  C   UNL     1      -0.867  10.521  20.275  0.00  0.00    +0.000 A 
ATOM     29  C   UNL     1      -0.049   9.665  21.032  0.00  0.00    +0.000 A 
ATOM     30  C   UNL     1      -0.343   9.504  22.500  0.00  0.00    +0.000 C 
ENDBRANCH  23  24
ENDBRANCH  20  23
ENDBRANCH  17  18
ENDBRANCH   5  17
TORSDOF 6
ENDMDL
