MODEL 1
REMARK VINA RESULT:      -9.5      0.000      0.000
REMARK  Name = 
REMARK  2 active torsions:
REMARK  status: ('A' for Active; 'I' for Inactive)
REMARK    1  A    between atoms: C_2  and  C_17
REMARK    2  A    between atoms: N_3  and  C_4
REMARK                            x       y       z     vdW  Elec       q    Type
REMARK                         _______ _______ _______ _____ _____    ______ ____
ROOT
ATOM      1  O   UNL     1       1.922   8.465  17.550  0.00  0.00    +0.000 OA
ATOM      2  C   UNL     1       1.961   7.919  18.641  0.00  0.00    +0.000 C 
ATOM      3  N   UNL     1       2.412   6.634  18.847  0.00  0.00    +0.000 N 
ATOM      4  H   UNL     1       2.281   6.226  19.767  0.00  0.00    +0.000 HD
ENDROOT
BRANCH   3   5
ATOM      5  C   UNL     1       2.884   5.817  17.738  0.00  0.00    +0.000 C 
ATOM      6  C   UNL     1       2.252   4.413  17.729  0.00  0.00    +0.000 C 
ATOM      7  C   UNL     1       3.083   3.456  18.574  0.00  0.00    +0.000 C 
ATOM      8  C   UNL     1       2.389   2.076  18.772  0.00  0.00    +0.000 C 
ATOM      9  C   UNL     1       1.975   2.513  20.185  0.00  0.00    +0.000 C 
ATOM     10  C   UNL     1       3.045   3.607  20.127  0.00  0.00    +0.000 C 
ATOM     11  O   UNL     1       4.414   3.352  18.013  0.00  0.00    +0.000 OA
ATOM     12  C   UNL     1       5.073   4.542  17.836  0.00  0.00    +0.000 A 
ATOM     13  C   UNL     1       6.463   4.474  17.773  0.00  0.00    +0.000 A 
ATOM     14  C   UNL     1       7.205   5.638  17.597  0.00  0.00    +0.000 A 
ATOM     15  C   UNL     1       6.551   6.864  17.470  0.00  0.00    +0.000 A 
ATOM     16  C   UNL     1       5.155   6.925  17.516  0.00  0.00    +0.000 A 
ATOM     17  C   UNL     1       4.394   5.760  17.703  0.00  0.00    +0.000 A 
ENDBRANCH   3   5
BRANCH   2  18
ATOM     18  C   UNL     1       1.449   8.634  19.893  0.00  0.00    +0.000 A 
ATOM     19  N   UNL     1       1.904   8.197  21.037  0.00  0.00    +0.000 NA
ATOM     20  N   UNL     1       1.433   8.782  22.176  0.00  0.00    +0.000 N 
ATOM     21  C   UNL     1       0.487   9.777  22.245  0.00  0.00    +0.000 A 
ATOM     22  O   UNL     1       0.080  10.221  23.311  0.00  0.00    +0.000 OA
ATOM     23  C   UNL     1      -0.006  10.296  20.959  0.00  0.00    +0.000 A 
ATOM     24  C   UNL     1      -0.938  11.342  20.932  0.00  0.00    +0.000 A 
ATOM     25  C   UNL     1      -1.381  11.847  19.711  0.00  0.00    +0.000 A 
ATOM     26  C   UNL     1      -0.891  11.315  18.522  0.00  0.00    +0.000 A 
ATOM     27  C   UNL     1       0.041  10.274  18.552  0.00  0.00    +0.000 A 
ATOM     28  C   UNL     1       0.479   9.748  19.774  0.00  0.00    +0.000 A 
ATOM     29  H   UNL     1       1.778   8.412  23.058  0.00  0.00    +0.000 HD
ENDBRANCH   2  18
TORSDOF 2
ENDMDL
MODEL 2
REMARK VINA RESULT:      -9.2      1.752      3.882
REMARK  Name = 
REMARK  2 active torsions:
REMARK  status: ('A' for Active; 'I' for Inactive)
REMARK    1  A    between atoms: C_2  and  C_17
REMARK    2  A    between atoms: N_3  and  C_4
REMARK                            x       y       z     vdW  Elec       q    Type
REMARK                         _______ _______ _______ _____ _____    ______ ____
ROOT
ATOM      1  O   UNL     1       1.630   6.903  21.449  0.00  0.00    +0.000 OA
ATOM      2  C   UNL     1       1.927   7.347  20.352  0.00  0.00    +0.000 C 
ATOM      3  N   UNL     1       2.808   6.741  19.484  0.00  0.00    +0.000 N 
ATOM      4  H   UNL     1       3.089   7.254  18.655  0.00  0.00    +0.000 HD
ENDROOT
BRANCH   3   5
ATOM      5  C   UNL     1       3.467   5.490  19.836  0.00  0.00    +0.000 C 
ATOM      6  C   UNL     1       4.928   5.437  19.355  0.00  0.00    +0.000 C 
ATOM      7  C   UNL     1       4.997   4.885  17.936  0.00  0.00    +0.000 C 
ATOM      8  C   UNL     1       6.422   4.998  17.320  0.00  0.00    +0.000 C 
ATOM      9  C   UNL     1       5.954   6.220  16.517  0.00  0.00    +0.000 C 
ATOM     10  C   UNL     1       4.505   5.787  16.762  0.00  0.00    +0.000 C 
ATOM     11  O   UNL     1       4.471   3.537  17.920  0.00  0.00    +0.000 OA
ATOM     12  C   UNL     1       3.209   3.390  18.439  0.00  0.00    +0.000 A 
ATOM     13  C   UNL     1       2.495   2.271  18.016  0.00  0.00    +0.000 A 
ATOM     14  C   UNL     1       1.206   2.052  18.495  0.00  0.00    +0.000 A 
ATOM     15  C   UNL     1       0.644   2.947  19.405  0.00  0.00    +0.000 A 
ATOM     16  C   UNL     1       1.371   4.059  19.840  0.00  0.00    +0.000 A 
ATOM     17  C   UNL     1       2.669   4.298  19.358  0.00  0.00    +0.000 A 
ENDBRANCH   3   5
BRANCH   2  18
ATOM     18  C   UNL     1       1.356   8.681  19.866  0.00  0.00    +0.000 A 
ATOM     19  N   UNL     1       1.610   9.003  18.626  0.00  0.00    +0.000 NA
ATOM     20  N   UNL     1       1.154  10.207  18.173  0.00  0.00    +0.000 N 
ATOM     21  C   UNL     1       0.474  11.146  18.912  0.00  0.00    +0.000 A 
ATOM     22  O   UNL     1       0.137  12.228  18.446  0.00  0.00    +0.000 OA
ATOM     23  C   UNL     1       0.156  10.775  20.301  0.00  0.00    +0.000 A 
ATOM     24  C   UNL     1      -0.574  11.652  21.114  0.00  0.00    +0.000 A 
ATOM     25  C   UNL     1      -0.895  11.285  22.419  0.00  0.00    +0.000 A 
ATOM     26  C   UNL     1      -0.494  10.045  22.909  0.00  0.00    +0.000 A 
ATOM     27  C   UNL     1       0.232   9.172  22.095  0.00  0.00    +0.000 A 
ATOM     28  C   UNL     1       0.574   9.539  20.787  0.00  0.00    +0.000 A 
ATOM     29  H   UNL     1       1.384  10.453  17.214  0.00  0.00    +0.000 HD
ENDBRANCH   2  18
TORSDOF 2
ENDMDL
MODEL 3
REMARK VINA RESULT:      -8.9      1.736      2.200
REMARK  Name = 
REMARK  2 active torsions:
REMARK  status: ('A' for Active; 'I' for Inactive)
REMARK    1  A    between atoms: C_2  and  C_17
REMARK    2  A    between atoms: N_3  and  C_4
REMARK                            x       y       z     vdW  Elec       q    Type
REMARK                         _______ _______ _______ _____ _____    ______ ____
ROOT
ATOM      1  O   UNL     1       1.065   8.665  17.013  0.00  0.00    +0.000 OA
ATOM      2  C   UNL     1       1.734   8.800  18.025  0.00  0.00    +0.000 C 
ATOM      3  N   UNL     1       2.732   7.934  18.413  0.00  0.00    +0.000 N 
ATOM      4  H   UNL     1       3.139   8.060  19.334  0.00  0.00    +0.000 HD
ENDROOT
BRANCH   3   5
ATOM      5  C   UNL     1       3.060   6.760  17.616  0.00  0.00    +0.000 C 
ATOM      6  C   UNL     1       2.112   5.578  17.888  0.00  0.00    +0.000 C 
ATOM      7  C   UNL     1       2.636   4.737  19.045  0.00  0.00    +0.000 C 
ATOM      8  C   UNL     1       1.620   3.649  19.501  0.00  0.00    +0.000 C 
ATOM      9  C   UNL     1       1.237   4.538  20.694  0.00  0.00    +0.000 C 
ATOM     10  C   UNL     1       2.541   5.317  20.491  0.00  0.00    +0.000 C 
ATOM     11  O   UNL     1       3.934   4.199  18.697  0.00  0.00    +0.000 OA
ATOM     12  C   UNL     1       4.869   5.123  18.305  0.00  0.00    +0.000 A 
ATOM     13  C   UNL     1       6.203   4.742  18.433  0.00  0.00    +0.000 A 
ATOM     14  C   UNL     1       7.213   5.625  18.059  0.00  0.00    +0.000 A 
ATOM     15  C   UNL     1       6.881   6.878  17.544  0.00  0.00    +0.000 A 
ATOM     16  C   UNL     1       5.541   7.249  17.401  0.00  0.00    +0.000 A 
ATOM     17  C   UNL     1       4.512   6.372  17.783  0.00  0.00    +0.000 A 
ENDBRANCH   3   5
BRANCH   2  18
ATOM     18  C   UNL     1       1.470   9.958  18.990  0.00  0.00    +0.000 A 
ATOM     19  N   UNL     1       1.884  11.136  18.608  0.00  0.00    +0.000 NA
ATOM     20  N   UNL     1       1.706  12.183  19.465  0.00  0.00    +0.000 N 
ATOM     21  C   UNL     1       1.159  12.116  20.725  0.00  0.00    +0.000 A 
ATOM     22  O   UNL     1       1.074  13.095  21.456  0.00  0.00    +0.000 OA
ATOM     23  C   UNL     1       0.661  10.796  21.147  0.00  0.00    +0.000 A 
ATOM     24  C   UNL     1       0.046  10.643  22.397  0.00  0.00    +0.000 A 
ATOM     25  C   UNL     1      -0.448   9.398  22.781  0.00  0.00    +0.000 A 
ATOM     26  C   UNL     1      -0.333   8.311  21.919  0.00  0.00    +0.000 A 
ATOM     27  C   UNL     1       0.278   8.467  20.672  0.00  0.00    +0.000 A 
ATOM     28  C   UNL     1       0.793   9.711  20.284  0.00  0.00    +0.000 A 
ATOM     29  H   UNL     1       2.058  13.087  19.164  0.00  0.00    +0.000 HD
ENDBRANCH   2  18
TORSDOF 2
ENDMDL
MODEL 4
REMARK VINA RESULT:      -8.3      1.845      3.916
REMARK  Name = 
REMARK  2 active torsions:
REMARK  status: ('A' for Active; 'I' for Inactive)
REMARK    1  A    between atoms: C_2  and  C_17
REMARK    2  A    between atoms: N_3  and  C_4
REMARK                            x       y       z     vdW  Elec       q    Type
REMARK                         _______ _______ _______ _____ _____    ______ ____
ROOT
ATOM      1  O   UNL     1       1.999   6.009  18.014  0.00  0.00    +0.000 OA
ATOM      2  C   UNL     1       2.496   6.837  18.760  0.00  0.00    +0.000 C 
ATOM      3  N   UNL     1       3.475   6.553  19.687  0.00  0.00    +0.000 N 
ATOM      4  H   UNL     1       3.728   7.280  20.349  0.00  0.00    +0.000 HD
ENDROOT
BRANCH   3   5
ATOM      5  C   UNL     1       3.993   5.201  19.842  0.00  0.00    +0.000 C 
ATOM      6  C   UNL     1       5.335   4.997  19.116  0.00  0.00    +0.000 C 
ATOM      7  C   UNL     1       5.094   4.564  17.675  0.00  0.00    +0.000 C 
ATOM      8  C   UNL     1       6.403   4.540  16.832  0.00  0.00    +0.000 C 
ATOM      9  C   UNL     1       5.993   5.878  16.199  0.00  0.00    +0.000 C 
ATOM     10  C   UNL     1       4.555   5.620  16.660  0.00  0.00    +0.000 C 
ATOM     11  O   UNL     1       4.383   3.303  17.666  0.00  0.00    +0.000 OA
ATOM     12  C   UNL     1       3.214   3.281  18.382  0.00  0.00    +0.000 A 
ATOM     13  C   UNL     1       2.287   2.306  18.019  0.00  0.00    +0.000 A 
ATOM     14  C   UNL     1       1.074   2.219  18.697  0.00  0.00    +0.000 A 
ATOM     15  C   UNL     1       0.801   3.099  19.743  0.00  0.00    +0.000 A 
ATOM     16  C   UNL     1       1.741   4.065  20.116  0.00  0.00    +0.000 A 
ATOM     17  C   UNL     1       2.965   4.170  19.435  0.00  0.00    +0.000 A 
ENDBRANCH   3   5
BRANCH   2  18
ATOM     18  C   UNL     1       2.016   8.290  18.750  0.00  0.00    +0.000 A 
ATOM     19  N   UNL     1       2.275   8.978  17.671  0.00  0.00    +0.000 NA
ATOM     20  N   UNL     1       1.902  10.290  17.647  0.00  0.00    +0.000 N 
ATOM     21  C   UNL     1       1.303  10.982  18.672  0.00  0.00    +0.000 A 
ATOM     22  O   UNL     1       1.038  12.175  18.592  0.00  0.00    +0.000 OA
ATOM     23  C   UNL     1       0.978  10.203  19.879  0.00  0.00    +0.000 A 
ATOM     24  C   UNL     1       0.325  10.815  20.958  0.00  0.00    +0.000 A 
ATOM     25  C   UNL     1      -0.003  10.067  22.086  0.00  0.00    +0.000 A 
ATOM     26  C   UNL     1       0.313   8.712  22.136  0.00  0.00    +0.000 A 
ATOM     27  C   UNL     1       0.962   8.105  21.058  0.00  0.00    +0.000 A 
ATOM     28  C   UNL     1       1.312   8.852  19.926  0.00  0.00    +0.000 A 
ATOM     29  H   UNL     1       2.135  10.818  16.810  0.00  0.00    +0.000 HD
ENDBRANCH   2  18
TORSDOF 2
ENDMDL
MODEL 5
REMARK VINA RESULT:      -8.3      2.338      7.662
REMARK  Name = 
REMARK  2 active torsions:
REMARK  status: ('A' for Active; 'I' for Inactive)
REMARK    1  A    between atoms: C_2  and  C_17
REMARK    2  A    between atoms: N_3  and  C_4
REMARK                            x       y       z     vdW  Elec       q    Type
REMARK                         _______ _______ _______ _____ _____    ______ ____
ROOT
ATOM      1  O   UNL     1       1.499   8.409  21.217  0.00  0.00    +0.000 OA
ATOM      2  C   UNL     1       1.553   8.503  20.001  0.00  0.00    +0.000 C 
ATOM      3  N   UNL     1       0.902   9.471  19.270  0.00  0.00    +0.000 N 
ATOM      4  H   UNL     1       0.902   9.385  18.259  0.00  0.00    +0.000 HD
ENDROOT
BRANCH   3   5
ATOM      5  C   UNL     1       0.075  10.476  19.924  0.00  0.00    +0.000 C 
ATOM      6  C   UNL     1      -1.430  10.232  19.714  0.00  0.00    +0.000 C 
ATOM      7  C   UNL     1      -1.900  10.913  18.434  0.00  0.00    +0.000 C 
ATOM      8  C   UNL     1      -3.363  10.534  18.058  0.00  0.00    +0.000 C 
ATOM      9  C   UNL     1      -2.815   9.563  17.002  0.00  0.00    +0.000 C 
ATOM     10  C   UNL     1      -1.474  10.301  17.064  0.00  0.00    +0.000 C 
ATOM     11  O   UNL     1      -1.690  12.341  18.546  0.00  0.00    +0.000 OA
ATOM     12  C   UNL     1      -0.411  12.725  18.860  0.00  0.00    +0.000 A 
ATOM     13  C   UNL     1      -0.054  14.026  18.508  0.00  0.00    +0.000 A 
ATOM     14  C   UNL     1       1.227  14.491  18.790  0.00  0.00    +0.000 A 
ATOM     15  C   UNL     1       2.140  13.657  19.436  0.00  0.00    +0.000 A 
ATOM     16  C   UNL     1       1.772  12.359  19.803  0.00  0.00    +0.000 A 
ATOM     17  C   UNL     1       0.486  11.873  19.516  0.00  0.00    +0.000 A 
ENDBRANCH   3   5
BRANCH   2  18
ATOM     18  C   UNL     1       2.340   7.486  19.171  0.00  0.00    +0.000 A 
ATOM     19  N   UNL     1       3.054   7.968  18.189  0.00  0.00    +0.000 NA
ATOM     20  N   UNL     1       3.732   7.085  17.400  0.00  0.00    +0.000 N 
ATOM     21  C   UNL     1       3.712   5.715  17.514  0.00  0.00    +0.000 A 
ATOM     22  O   UNL     1       4.312   4.983  16.737  0.00  0.00    +0.000 OA
ATOM     23  C   UNL     1       2.935   5.167  18.638  0.00  0.00    +0.000 A 
ATOM     24  C   UNL     1       2.894   3.784  18.858  0.00  0.00    +0.000 A 
ATOM     25  C   UNL     1       2.179   3.273  19.940  0.00  0.00    +0.000 A 
ATOM     26  C   UNL     1       1.512   4.140  20.801  0.00  0.00    +0.000 A 
ATOM     27  C   UNL     1       1.557   5.518  20.581  0.00  0.00    +0.000 A 
ATOM     28  C   UNL     1       2.259   6.041  19.487  0.00  0.00    +0.000 A 
ATOM     29  H   UNL     1       4.261   7.475  16.625  0.00  0.00    +0.000 HD
ENDBRANCH   2  18
TORSDOF 2
ENDMDL
MODEL 6
REMARK VINA RESULT:      -8.2      1.839      7.711
REMARK  Name = 
REMARK  2 active torsions:
REMARK  status: ('A' for Active; 'I' for Inactive)
REMARK    1  A    between atoms: C_2  and  C_17
REMARK    2  A    between atoms: N_3  and  C_4
REMARK                            x       y       z     vdW  Elec       q    Type
REMARK                         _______ _______ _______ _____ _____    ______ ____
ROOT
ATOM      1  O   UNL     1       2.520   9.306  17.540  0.00  0.00    +0.000 OA
ATOM      2  C   UNL     1       1.954   8.741  18.462  0.00  0.00    +0.000 C 
ATOM      3  N   UNL     1       0.920   9.289  19.188  0.00  0.00    +0.000 N 
ATOM      4  H   UNL     1       0.606   8.794  20.016  0.00  0.00    +0.000 HD
ENDROOT
BRANCH   3   5
ATOM      5  C   UNL     1       0.423  10.626  18.895  0.00  0.00    +0.000 C 
ATOM      6  C   UNL     1       0.488  11.561  20.117  0.00  0.00    +0.000 C 
ATOM      7  C   UNL     1      -0.790  11.443  20.939  0.00  0.00    +0.000 C 
ATOM      8  C   UNL     1      -0.702  12.207  22.293  0.00  0.00    +0.000 C 
ATOM      9  C   UNL     1      -0.458  10.869  23.006  0.00  0.00    +0.000 C 
ATOM     10  C   UNL     1      -1.020  10.147  21.777  0.00  0.00    +0.000 C 
ATOM     11  O   UNL     1      -1.920  11.843  20.128  0.00  0.00    +0.000 OA
ATOM     12  C   UNL     1      -2.049  11.185  18.931  0.00  0.00    +0.000 A 
ATOM     13  C   UNL     1      -3.324  11.173  18.369  0.00  0.00    +0.000 A 
ATOM     14  C   UNL     1      -3.539  10.524  17.156  0.00  0.00    +0.000 A 
ATOM     15  C   UNL     1      -2.473   9.903  16.506  0.00  0.00    +0.000 A 
ATOM     16  C   UNL     1      -1.192   9.933  17.065  0.00  0.00    +0.000 A 
ATOM     17  C   UNL     1      -0.963  10.576  18.292  0.00  0.00    +0.000 A 
ENDBRANCH   3   5
BRANCH   2  18
ATOM     18  C   UNL     1       2.400   7.350  18.920  0.00  0.00    +0.000 A 
ATOM     19  N   UNL     1       1.843   6.892  20.008  0.00  0.00    +0.000 NA
ATOM     20  N   UNL     1       2.252   5.675  20.470  0.00  0.00    +0.000 N 
ATOM     21  C   UNL     1       3.232   4.885  19.917  0.00  0.00    +0.000 A 
ATOM     22  O   UNL     1       3.577   3.822  20.417  0.00  0.00    +0.000 OA
ATOM     23  C   UNL     1       3.841   5.381  18.672  0.00  0.00    +0.000 A 
ATOM     24  C   UNL     1       4.816   4.621  18.013  0.00  0.00    +0.000 A 
ATOM     25  C   UNL     1       5.370   5.083  16.821  0.00  0.00    +0.000 A 
ATOM     26  C   UNL     1       4.947   6.296  16.285  0.00  0.00    +0.000 A 
ATOM     27  C   UNL     1       3.973   7.051  16.942  0.00  0.00    +0.000 A 
ATOM     28  C   UNL     1       3.422   6.603  18.150  0.00  0.00    +0.000 A 
ATOM     29  H   UNL     1       1.827   5.346  21.333  0.00  0.00    +0.000 HD
ENDBRANCH   2  18
TORSDOF 2
ENDMDL
MODEL 7
REMARK VINA RESULT:      -8.0      5.158      8.088
REMARK  Name = 
REMARK  2 active torsions:
REMARK  status: ('A' for Active; 'I' for Inactive)
REMARK    1  A    between atoms: C_2  and  C_17
REMARK    2  A    between atoms: N_3  and  C_4
REMARK                            x       y       z     vdW  Elec       q    Type
REMARK                         _______ _______ _______ _____ _____    ______ ____
ROOT
ATOM      1  O   UNL     1      -2.637  14.516  21.189  0.00  0.00    +0.000 OA
ATOM      2  C   UNL     1      -3.132  13.416  21.371  0.00  0.00    +0.000 C 
ATOM      3  N   UNL     1      -2.582  12.236  20.920  0.00  0.00    +0.000 N 
ATOM      4  H   UNL     1      -3.136  11.390  21.007  0.00  0.00    +0.000 HD
ENDROOT
BRANCH   3   5
ATOM      5  C   UNL     1      -1.335  12.227  20.169  0.00  0.00    +0.000 C 
ATOM      6  C   UNL     1      -1.559  12.346  18.650  0.00  0.00    +0.000 C 
ATOM      7  C   UNL     1      -1.748  10.964  18.036  0.00  0.00    +0.000 C 
ATOM      8  C   UNL     1      -2.182  11.029  16.542  0.00  0.00    +0.000 C 
ATOM      9  C   UNL     1      -3.625  10.723  16.971  0.00  0.00    +0.000 C 
ATOM     10  C   UNL     1      -3.084  10.205  18.308  0.00  0.00    +0.000 C 
ATOM     11  O   UNL     1      -0.554  10.176  18.253  0.00  0.00    +0.000 OA
ATOM     12  C   UNL     1      -0.142  10.076  19.557  0.00  0.00    +0.000 A 
ATOM     13  C   UNL     1       0.664   8.982  19.867  0.00  0.00    +0.000 A 
ATOM     14  C   UNL     1       1.122   8.808  21.170  0.00  0.00    +0.000 A 
ATOM     15  C   UNL     1       0.783   9.738  22.153  0.00  0.00    +0.000 A 
ATOM     16  C   UNL     1      -0.011  10.843  21.834  0.00  0.00    +0.000 A 
ATOM     17  C   UNL     1      -0.488  11.026  20.525  0.00  0.00    +0.000 A 
ENDBRANCH   3   5
BRANCH   2  18
ATOM     18  C   UNL     1      -4.470  13.270  22.099  0.00  0.00    +0.000 A 
ATOM     19  N   UNL     1      -4.524  13.750  23.312  0.00  0.00    +0.000 NA
ATOM     20  N   UNL     1      -5.689  13.595  24.007  0.00  0.00    +0.000 N 
ATOM     21  C   UNL     1      -6.816  12.944  23.566  0.00  0.00    +0.000 A 
ATOM     22  O   UNL     1      -7.811  12.806  24.267  0.00  0.00    +0.000 OA
ATOM     23  C   UNL     1      -6.772  12.429  22.187  0.00  0.00    +0.000 A 
ATOM     24  C   UNL     1      -7.892  11.791  21.637  0.00  0.00    +0.000 A 
ATOM     25  C   UNL     1      -7.853  11.330  20.322  0.00  0.00    +0.000 A 
ATOM     26  C   UNL     1      -6.704  11.510  19.559  0.00  0.00    +0.000 A 
ATOM     27  C   UNL     1      -5.590  12.148  20.109  0.00  0.00    +0.000 A 
ATOM     28  C   UNL     1      -5.612  12.600  21.434  0.00  0.00    +0.000 A 
ATOM     29  H   UNL     1      -5.706  13.950  24.959  0.00  0.00    +0.000 HD
ENDBRANCH   2  18
TORSDOF 2
ENDMDL
MODEL 8
REMARK VINA RESULT:      -8.0      5.722      8.828
REMARK  Name = 
REMARK  2 active torsions:
REMARK  status: ('A' for Active; 'I' for Inactive)
REMARK    1  A    between atoms: C_2  and  C_17
REMARK    2  A    between atoms: N_3  and  C_4
REMARK                            x       y       z     vdW  Elec       q    Type
REMARK                         _______ _______ _______ _____ _____    ______ ____
ROOT
ATOM      1  O   UNL     1      -0.868  12.921  18.086  0.00  0.00    +0.000 OA
ATOM      2  C   UNL     1      -0.599  13.657  19.021  0.00  0.00    +0.000 C 
ATOM      3  N   UNL     1      -0.941  13.401  20.331  0.00  0.00    +0.000 N 
ATOM      4  H   UNL     1      -0.789  14.136  21.014  0.00  0.00    +0.000 HD
ENDROOT
BRANCH   3   5
ATOM      5  C   UNL     1      -1.673  12.196  20.693  0.00  0.00    +0.000 C 
ATOM      6  C   UNL     1      -2.884  12.490  21.598  0.00  0.00    +0.000 C 
ATOM      7  C   UNL     1      -2.462  12.478  23.063  0.00  0.00    +0.000 C 
ATOM      8  C   UNL     1      -3.593  12.969  24.014  0.00  0.00    +0.000 C 
ATOM      9  C   UNL     1      -2.885  14.328  24.117  0.00  0.00    +0.000 C 
ATOM     10  C   UNL     1      -1.604  13.665  23.601  0.00  0.00    +0.000 C 
ATOM     11  O   UNL     1      -1.955  11.165  23.405  0.00  0.00    +0.000 OA
ATOM     12  C   UNL     1      -0.945  10.697  22.604  0.00  0.00    +0.000 A 
ATOM     13  C   UNL     1      -0.124   9.716  23.157  0.00  0.00    +0.000 A 
ATOM     14  C   UNL     1       0.926   9.191  22.409  0.00  0.00    +0.000 A 
ATOM     15  C   UNL     1       1.140   9.639  21.106  0.00  0.00    +0.000 A 
ATOM     16  C   UNL     1       0.303  10.611  20.548  0.00  0.00    +0.000 A 
ATOM     17  C   UNL     1      -0.754  11.156  21.295  0.00  0.00    +0.000 A 
ENDBRANCH   3   5
BRANCH   2  18
ATOM     18  C   UNL     1       0.122  14.987  18.790  0.00  0.00    +0.000 A 
ATOM     19  N   UNL     1      -0.620  16.062  18.823  0.00  0.00    +0.000 NA
ATOM     20  N   UNL     1      -0.016  17.260  18.575  0.00  0.00    +0.000 N 
ATOM     21  C   UNL     1       1.306  17.451  18.253  0.00  0.00    +0.000 A 
ATOM     22  O   UNL     1       1.766  18.557  17.997  0.00  0.00    +0.000 OA
ATOM     23  C   UNL     1       2.154  16.247  18.245  0.00  0.00    +0.000 A 
ATOM     24  C   UNL     1       3.524  16.353  17.972  0.00  0.00    +0.000 A 
ATOM     25  C   UNL     1       4.327  15.213  17.993  0.00  0.00    +0.000 A 
ATOM     26  C   UNL     1       3.764  13.975  18.290  0.00  0.00    +0.000 A 
ATOM     27  C   UNL     1       2.398  13.874  18.564  0.00  0.00    +0.000 A 
ATOM     28  C   UNL     1       1.580  15.010  18.530  0.00  0.00    +0.000 A 
ATOM     29  H   UNL     1      -0.613  18.083  18.579  0.00  0.00    +0.000 HD
ENDBRANCH   2  18
TORSDOF 2
ENDMDL
MODEL 9
REMARK VINA RESULT:      -7.8      4.777     10.134
REMARK  Name = 
REMARK  2 active torsions:
REMARK  status: ('A' for Active; 'I' for Inactive)
REMARK    1  A    between atoms: C_2  and  C_17
REMARK    2  A    between atoms: N_3  and  C_4
REMARK                            x       y       z     vdW  Elec       q    Type
REMARK                         _______ _______ _______ _____ _____    ______ ____
ROOT
ATOM      1  O   UNL     1      -1.508  13.995  19.747  0.00  0.00    +0.000 OA
ATOM      2  C   UNL     1      -1.821  12.819  19.835  0.00  0.00    +0.000 C 
ATOM      3  N   UNL     1      -3.088  12.376  20.146  0.00  0.00    +0.000 N 
ATOM      4  H   UNL     1      -3.215  11.386  20.324  0.00  0.00    +0.000 HD
ENDROOT
BRANCH   3   5
ATOM      5  C   UNL     1      -4.170  13.317  20.402  0.00  0.00    +0.000 C 
ATOM      6  C   UNL     1      -3.827  14.322  21.516  0.00  0.00    +0.000 C 
ATOM      7  C   UNL     1      -4.217  13.756  22.876  0.00  0.00    +0.000 C 
ATOM      8  C   UNL     1      -3.710  14.635  24.057  0.00  0.00    +0.000 C 
ATOM      9  C   UNL     1      -2.570  13.632  24.284  0.00  0.00    +0.000 C 
ATOM     10  C   UNL     1      -3.359  12.598  23.474  0.00  0.00    +0.000 C 
ATOM     11  O   UNL     1      -5.646  13.523  22.906  0.00  0.00    +0.000 OA
ATOM     12  C   UNL     1      -6.137  12.739  21.893  0.00  0.00    +0.000 A 
ATOM     13  C   UNL     1      -7.352  12.104  22.139  0.00  0.00    +0.000 A 
ATOM     14  C   UNL     1      -7.917  11.288  21.162  0.00  0.00    +0.000 A 
ATOM     15  C   UNL     1      -7.268  11.124  19.938  0.00  0.00    +0.000 A 
ATOM     16  C   UNL     1      -6.057  11.777  19.690  0.00  0.00    +0.000 A 
ATOM     17  C   UNL     1      -5.471  12.595  20.670  0.00  0.00    +0.000 A 
ENDBRANCH   3   5
BRANCH   2  18
ATOM     18  C   UNL     1      -0.779  11.715  19.644  0.00  0.00    +0.000 A 
ATOM     19  N   UNL     1      -0.296  11.576  18.439  0.00  0.00    +0.000 NA
ATOM     20  N   UNL     1       0.602  10.571  18.223  0.00  0.00    +0.000 N 
ATOM     21  C   UNL     1       1.029   9.653  19.153  0.00  0.00    +0.000 A 
ATOM     22  O   UNL     1       1.805   8.748  18.872  0.00  0.00    +0.000 OA
ATOM     23  C   UNL     1       0.513   9.824  20.521  0.00  0.00    +0.000 A 
ATOM     24  C   UNL     1       0.931   8.962  21.544  0.00  0.00    +0.000 A 
ATOM     25  C   UNL     1       0.460   9.146  22.843  0.00  0.00    +0.000 A 
ATOM     26  C   UNL     1      -0.419  10.189  23.120  0.00  0.00    +0.000 A 
ATOM     27  C   UNL     1      -0.831  11.048  22.099  0.00  0.00    +0.000 A 
ATOM     28  C   UNL     1      -0.377  10.862  20.787  0.00  0.00    +0.000 A 
ATOM     29  H   UNL     1       0.947  10.460  17.274  0.00  0.00    +0.000 HD
ENDBRANCH   2  18
TORSDOF 2
ENDMDL
