MODEL 1
REMARK VINA RESULT:      -8.3      0.000      0.000
REMARK  Name = 
REMARK  5 active torsions:
REMARK  status: ('A' for Active; 'I' for Inactive)
REMARK    1  A    between atoms: C_2  and  C_16
REMARK    2  A    between atoms: N_3  and  CA_4
REMARK    3  A    between atoms: CA_4  and  C_5
REMARK    4  A    between atoms: CA_4  and  C_8
REMARK    5  A    between atoms: C_5  and  OXT_7
REMARK                            x       y       z     vdW  Elec       q    Type
REMARK                         _______ _______ _______ _____ _____    ______ ____
ROOT
ATOM      1  O   UNL     1       3.382   5.176  20.325  0.00  0.00    +0.000 OA
ATOM      2  C   UNL     1       3.066   5.837  19.341  0.00  0.00    +0.000 C 
ATOM      3  N   UNL     1       3.423   5.484  18.062  0.00  0.00    +0.000 N 
ATOM      4  H   UNL     1       3.256   6.093  17.270  0.00  0.00    +0.000 HD
ENDROOT
BRANCH   2   5
ATOM      5  C   UNL     1       2.275   7.083  19.506  0.00  0.00    +0.000 A 
ATOM      6  C   UNL     1       2.217   7.979  18.437  0.00  0.00    +0.000 A 
ATOM      7  C   UNL     1       1.529   9.189  18.572  0.00  0.00    +0.000 A 
ATOM      8  C   UNL     1       0.905   9.543  19.761  0.00  0.00    +0.000 A 
ATOM      9  N   UNL     1       0.280  10.727  19.851  0.00  0.00    +0.000 NA
ATOM     10  C   UNL     1      -0.297  11.053  21.029  0.00  0.00    +0.000 A 
ATOM     11  C   UNL     1      -0.289  10.236  22.143  0.00  0.00    +0.000 A 
ATOM     12  C   UNL     1       0.351   9.007  22.045  0.00  0.00    +0.000 A 
ATOM     13  C   UNL     1       0.969   8.637  20.842  0.00  0.00    +0.000 A 
ATOM     14  C   UNL     1       1.647   7.412  20.712  0.00  0.00    +0.000 A 
ENDBRANCH   2   5
BRANCH   3  15
ATOM     15  CA  UNL     1       4.187   4.267  17.810  0.00  0.00    +0.000 C 
BRANCH  15  16
ATOM     16  C   UNL     1       5.172   4.424  16.672  0.00  0.00    +0.000 A 
ATOM     17  C   UNL     1       4.801   4.326  15.322  0.00  0.00    +0.000 A 
ATOM     18  C   UNL     1       5.745   4.540  14.316  0.00  0.00    +0.000 A 
ATOM     19  C   UNL     1       7.060   4.836  14.656  0.00  0.00    +0.000 A 
ATOM     20  F   UNL     1       7.956   5.061  13.685  0.00  0.00    +0.000 F 
ATOM     21  C   UNL     1       7.462   4.895  15.983  0.00  0.00    +0.000 A 
ATOM     22  C   UNL     1       6.516   4.676  16.976  0.00  0.00    +0.000 A 
ATOM     23  F   UNL     1       6.903   4.689  18.261  0.00  0.00    +0.000 F 
ENDBRANCH  15  16
BRANCH  15  24
ATOM     24  C   UNL     1       3.218   3.104  17.557  0.00  0.00    +0.000 C 
ATOM     25  O   UNL     1       2.062   3.254  17.177  0.00  0.00    +0.000 OA
BRANCH  24  26
ATOM     26  OXT UNL     1       3.752   1.878  17.780  0.00  0.00    +0.000 OA
ATOM     27  HXT UNL     1       4.591   1.711  17.300  0.00  0.00    +0.000 HD
ENDBRANCH  24  26
ENDBRANCH  15  24
ENDBRANCH   3  15
TORSDOF 5
ENDMDL
MODEL 2
REMARK VINA RESULT:      -8.1      1.105      1.401
REMARK  Name = 
REMARK  5 active torsions:
REMARK  status: ('A' for Active; 'I' for Inactive)
REMARK    1  A    between atoms: C_2  and  C_16
REMARK    2  A    between atoms: N_3  and  CA_4
REMARK    3  A    between atoms: CA_4  and  C_5
REMARK    4  A    between atoms: CA_4  and  C_8
REMARK    5  A    between atoms: C_5  and  OXT_7
REMARK                            x       y       z     vdW  Elec       q    Type
REMARK                         _______ _______ _______ _____ _____    ______ ____
ROOT
ATOM      1  O   UNL     1       2.315   5.209  21.080  0.00  0.00    +0.000 OA
ATOM      2  C   UNL     1       2.207   5.941  20.103  0.00  0.00    +0.000 C 
ATOM      3  N   UNL     1       2.626   5.573  18.847  0.00  0.00    +0.000 N 
ATOM      4  H   UNL     1       2.636   6.224  18.071  0.00  0.00    +0.000 HD
ENDROOT
BRANCH   2   5
ATOM      5  C   UNL     1       1.614   7.296  20.250  0.00  0.00    +0.000 A 
ATOM      6  C   UNL     1       1.802   8.219  19.220  0.00  0.00    +0.000 A 
ATOM      7  C   UNL     1       1.308   9.521  19.346  0.00  0.00    +0.000 A 
ATOM      8  C   UNL     1       0.639   9.938  20.489  0.00  0.00    +0.000 A 
ATOM      9  N   UNL     1       0.207  11.205  20.574  0.00  0.00    +0.000 NA
ATOM     10  C   UNL     1      -0.420  11.588  21.709  0.00  0.00    +0.000 A 
ATOM     11  C   UNL     1      -0.649  10.749  22.783  0.00  0.00    +0.000 A 
ATOM     12  C   UNL     1      -0.208   9.436  22.688  0.00  0.00    +0.000 A 
ATOM     13  C   UNL     1       0.454   9.003  21.531  0.00  0.00    +0.000 A 
ATOM     14  C   UNL     1       0.935   7.688  21.408  0.00  0.00    +0.000 A 
ENDBRANCH   2   5
BRANCH   3  15
ATOM     15  CA  UNL     1       3.205   4.255  18.611  0.00  0.00    +0.000 C 
BRANCH  15  16
ATOM     16  C   UNL     1       4.438   4.309  17.736  0.00  0.00    +0.000 A 
ATOM     17  C   UNL     1       4.436   3.913  16.389  0.00  0.00    +0.000 A 
ATOM     18  C   UNL     1       5.591   4.044  15.616  0.00  0.00    +0.000 A 
ATOM     19  C   UNL     1       6.751   4.554  16.190  0.00  0.00    +0.000 A 
ATOM     20  F   UNL     1       7.850   4.696  15.437  0.00  0.00    +0.000 F 
ATOM     21  C   UNL     1       6.791   4.910  17.530  0.00  0.00    +0.000 A 
ATOM     22  C   UNL     1       5.637   4.773  18.291  0.00  0.00    +0.000 A 
ATOM     23  F   UNL     1       5.677   5.075  19.598  0.00  0.00    +0.000 F 
ENDBRANCH  15  16
BRANCH  15  24
ATOM     24  C   UNL     1       2.135   3.330  18.016  0.00  0.00    +0.000 C 
ATOM     25  O   UNL     1       2.136   2.112  18.157  0.00  0.00    +0.000 OA
BRANCH  24  26
ATOM     26  OXT UNL     1       1.165   3.976  17.322  0.00  0.00    +0.000 OA
ATOM     27  HXT UNL     1       1.002   3.613  16.426  0.00  0.00    +0.000 HD
ENDBRANCH  24  26
ENDBRANCH  15  24
ENDBRANCH   3  15
TORSDOF 5
ENDMDL
MODEL 3
REMARK VINA RESULT:      -7.9      0.734      1.561
REMARK  Name = 
REMARK  5 active torsions:
REMARK  status: ('A' for Active; 'I' for Inactive)
REMARK    1  A    between atoms: C_2  and  C_16
REMARK    2  A    between atoms: N_3  and  CA_4
REMARK    3  A    between atoms: CA_4  and  C_5
REMARK    4  A    between atoms: CA_4  and  C_8
REMARK    5  A    between atoms: C_5  and  OXT_7
REMARK                            x       y       z     vdW  Elec       q    Type
REMARK                         _______ _______ _______ _____ _____    ______ ____
ROOT
ATOM      1  O   UNL     1       3.354   4.733  20.354  0.00  0.00    +0.000 OA
ATOM      2  C   UNL     1       3.137   5.530  19.448  0.00  0.00    +0.000 C 
ATOM      3  N   UNL     1       3.568   5.326  18.158  0.00  0.00    +0.000 N 
ATOM      4  H   UNL     1       3.482   6.038  17.444  0.00  0.00    +0.000 HD
ENDROOT
BRANCH   2   5
ATOM      5  C   UNL     1       2.390   6.784  19.723  0.00  0.00    +0.000 A 
ATOM      6  C   UNL     1       1.689   6.889  20.926  0.00  0.00    +0.000 A 
ATOM      7  C   UNL     1       0.928   8.030  21.196  0.00  0.00    +0.000 A 
ATOM      8  C   UNL     1       0.831   9.074  20.285  0.00  0.00    +0.000 A 
ATOM      9  N   UNL     1       0.066  10.137  20.578  0.00  0.00    +0.000 NA
ATOM     10  C   UNL     1      -0.027  11.125  19.661  0.00  0.00    +0.000 A 
ATOM     11  C   UNL     1       0.625  11.110  18.443  0.00  0.00    +0.000 A 
ATOM     12  C   UNL     1       1.422  10.013  18.145  0.00  0.00    +0.000 A 
ATOM     13  C   UNL     1       1.537   8.963  19.067  0.00  0.00    +0.000 A 
ATOM     14  C   UNL     1       2.316   7.825  18.792  0.00  0.00    +0.000 A 
ENDBRANCH   2   5
BRANCH   3  15
ATOM     15  CA  UNL     1       4.295   4.113  17.798  0.00  0.00    +0.000 C 
BRANCH  15  16
ATOM     16  C   UNL     1       5.235   4.324  16.632  0.00  0.00    +0.000 A 
ATOM     17  C   UNL     1       4.843   4.152  15.295  0.00  0.00    +0.000 A 
ATOM     18  C   UNL     1       5.741   4.419  14.259  0.00  0.00    +0.000 A 
ATOM     19  C   UNL     1       7.031   4.843  14.557  0.00  0.00    +0.000 A 
ATOM     20  F   UNL     1       7.880   5.118  13.558  0.00  0.00    +0.000 F 
ATOM     21  C   UNL     1       7.456   4.977  15.871  0.00  0.00    +0.000 A 
ATOM     22  C   UNL     1       6.557   4.705  16.894  0.00  0.00    +0.000 A 
ATOM     23  F   UNL     1       6.971   4.791  18.168  0.00  0.00    +0.000 F 
ENDBRANCH  15  16
BRANCH  15  24
ATOM     24  C   UNL     1       3.292   2.987  17.516  0.00  0.00    +0.000 C 
ATOM     25  O   UNL     1       2.165   3.177  17.072  0.00  0.00    +0.000 OA
BRANCH  24  26
ATOM     26  OXT UNL     1       3.761   1.743  17.788  0.00  0.00    +0.000 OA
ATOM     27  HXT UNL     1       3.215   1.238  18.426  0.00  0.00    +0.000 HD
ENDBRANCH  24  26
ENDBRANCH  15  24
ENDBRANCH   3  15
TORSDOF 5
ENDMDL
MODEL 4
REMARK VINA RESULT:      -7.8      5.002      8.350
REMARK  Name = 
REMARK  5 active torsions:
REMARK  status: ('A' for Active; 'I' for Inactive)
REMARK    1  A    between atoms: C_2  and  C_16
REMARK    2  A    between atoms: N_3  and  CA_4
REMARK    3  A    between atoms: CA_4  and  C_5
REMARK    4  A    between atoms: CA_4  and  C_8
REMARK    5  A    between atoms: C_5  and  OXT_7
REMARK                            x       y       z     vdW  Elec       q    Type
REMARK                         _______ _______ _______ _____ _____    ______ ____
ROOT
ATOM      1  O   UNL     1       1.176   9.001  21.378  0.00  0.00    +0.000 OA
ATOM      2  C   UNL     1       1.358   8.603  20.233  0.00  0.00    +0.000 C 
ATOM      3  N   UNL     1       0.994   9.331  19.125  0.00  0.00    +0.000 N 
ATOM      4  H   UNL     1       1.046   8.947  18.189  0.00  0.00    +0.000 HD
ENDROOT
BRANCH   2   5
ATOM      5  C   UNL     1       1.986   7.277  19.998  0.00  0.00    +0.000 A 
ATOM      6  C   UNL     1       2.758   7.103  18.848  0.00  0.00    +0.000 A 
ATOM      7  C   UNL     1       3.318   5.854  18.562  0.00  0.00    +0.000 A 
ATOM      8  C   UNL     1       3.114   4.758  19.390  0.00  0.00    +0.000 A 
ATOM      9  N   UNL     1       3.651   3.573  19.060  0.00  0.00    +0.000 NA
ATOM     10  C   UNL     1       3.415   2.520  19.873  0.00  0.00    +0.000 A 
ATOM     11  C   UNL     1       2.662   2.593  21.030  0.00  0.00    +0.000 A 
ATOM     12  C   UNL     1       2.115   3.822  21.374  0.00  0.00    +0.000 A 
ATOM     13  C   UNL     1       2.330   4.936  20.550  0.00  0.00    +0.000 A 
ATOM     14  C   UNL     1       1.773   6.192  20.853  0.00  0.00    +0.000 A 
ENDBRANCH   2   5
BRANCH   3  15
ATOM     15  CA  UNL     1       0.386  10.650  19.266  0.00  0.00    +0.000 C 
BRANCH  15  16
ATOM     16  C   UNL     1      -0.967  10.740  18.598  0.00  0.00    +0.000 A 
ATOM     17  C   UNL     1      -1.316   9.974  17.474  0.00  0.00    +0.000 A 
ATOM     18  C   UNL     1      -2.603  10.058  16.938  0.00  0.00    +0.000 A 
ATOM     19  C   UNL     1      -3.535  10.917  17.512  0.00  0.00    +0.000 A 
ATOM     20  F   UNL     1      -4.773  10.976  17.005  0.00  0.00    +0.000 F 
ATOM     21  C   UNL     1      -3.200  11.717  18.595  0.00  0.00    +0.000 A 
ATOM     22  C   UNL     1      -1.917  11.628  19.118  0.00  0.00    +0.000 A 
ATOM     23  F   UNL     1      -1.571  12.429  20.139  0.00  0.00    +0.000 F 
ENDBRANCH  15  16
BRANCH  15  24
ATOM     24  C   UNL     1       1.352  11.713  18.726  0.00  0.00    +0.000 C 
ATOM     25  O   UNL     1       1.468  12.833  19.211  0.00  0.00    +0.000 OA
BRANCH  24  26
ATOM     26  OXT UNL     1       2.087  11.307  17.661  0.00  0.00    +0.000 OA
ATOM     27  HXT UNL     1       1.927  10.377  17.393  0.00  0.00    +0.000 HD
ENDBRANCH  24  26
ENDBRANCH  15  24
ENDBRANCH   3  15
TORSDOF 5
ENDMDL
MODEL 5
REMARK VINA RESULT:      -7.8      1.467      1.842
REMARK  Name = 
REMARK  5 active torsions:
REMARK  status: ('A' for Active; 'I' for Inactive)
REMARK    1  A    between atoms: C_2  and  C_16
REMARK    2  A    between atoms: N_3  and  CA_4
REMARK    3  A    between atoms: CA_4  and  C_5
REMARK    4  A    between atoms: CA_4  and  C_8
REMARK    5  A    between atoms: C_5  and  OXT_7
REMARK                            x       y       z     vdW  Elec       q    Type
REMARK                         _______ _______ _______ _____ _____    ______ ____
ROOT
ATOM      1  O   UNL     1       1.910   5.798  21.024  0.00  0.00    +0.000 OA
ATOM      2  C   UNL     1       1.902   6.624  20.117  0.00  0.00    +0.000 C 
ATOM      3  N   UNL     1       2.435   6.370  18.876  0.00  0.00    +0.000 N 
ATOM      4  H   UNL     1       2.524   7.093  18.172  0.00  0.00    +0.000 HD
ENDROOT
BRANCH   2   5
ATOM      5  C   UNL     1       1.308   7.968  20.339  0.00  0.00    +0.000 A 
ATOM      6  C   UNL     1       1.527   8.957  19.379  0.00  0.00    +0.000 A 
ATOM      7  C   UNL     1       1.034  10.250  19.579  0.00  0.00    +0.000 A 
ATOM      8  C   UNL     1       0.335  10.592  20.730  0.00  0.00    +0.000 A 
ATOM      9  N   UNL     1      -0.097  11.853  20.889  0.00  0.00    +0.000 NA
ATOM     10  C   UNL     1      -0.753  12.161  22.029  0.00  0.00    +0.000 A 
ATOM     11  C   UNL     1      -1.014  11.253  23.037  0.00  0.00    +0.000 A 
ATOM     12  C   UNL     1      -0.574   9.947  22.867  0.00  0.00    +0.000 A 
ATOM     13  C   UNL     1       0.118   9.590  21.701  0.00  0.00    +0.000 A 
ATOM     14  C   UNL     1       0.599   8.284  21.503  0.00  0.00    +0.000 A 
ENDBRANCH   2   5
BRANCH   3  15
ATOM     15  CA  UNL     1       3.023   5.071  18.568  0.00  0.00    +0.000 C 
BRANCH  15  16
ATOM     16  C   UNL     1       4.016   5.138  17.429  0.00  0.00    +0.000 A 
ATOM     17  C   UNL     1       4.351   6.335  16.778  0.00  0.00    +0.000 A 
ATOM     18  C   UNL     1       5.320   6.342  15.773  0.00  0.00    +0.000 A 
ATOM     19  C   UNL     1       5.943   5.153  15.407  0.00  0.00    +0.000 A 
ATOM     20  F   UNL     1       6.887   5.170  14.457  0.00  0.00    +0.000 F 
ATOM     21  C   UNL     1       5.597   3.950  16.006  0.00  0.00    +0.000 A 
ATOM     22  C   UNL     1       4.630   3.954  17.001  0.00  0.00    +0.000 A 
ATOM     23  F   UNL     1       4.258   2.789  17.556  0.00  0.00    +0.000 F 
ENDBRANCH  15  16
BRANCH  15  24
ATOM     24  C   UNL     1       1.902   4.064  18.278  0.00  0.00    +0.000 C 
ATOM     25  O   UNL     1       1.260   4.045  17.234  0.00  0.00    +0.000 OA
BRANCH  24  26
ATOM     26  OXT UNL     1       1.682   3.175  19.279  0.00  0.00    +0.000 OA
ATOM     27  HXT UNL     1       1.728   2.236  18.999  0.00  0.00    +0.000 HD
ENDBRANCH  24  26
ENDBRANCH  15  24
ENDBRANCH   3  15
TORSDOF 5
ENDMDL
MODEL 6
REMARK VINA RESULT:      -7.8      1.088      1.799
REMARK  Name = 
REMARK  5 active torsions:
REMARK  status: ('A' for Active; 'I' for Inactive)
REMARK    1  A    between atoms: C_2  and  C_16
REMARK    2  A    between atoms: N_3  and  CA_4
REMARK    3  A    between atoms: CA_4  and  C_5
REMARK    4  A    between atoms: CA_4  and  C_8
REMARK    5  A    between atoms: C_5  and  OXT_7
REMARK                            x       y       z     vdW  Elec       q    Type
REMARK                         _______ _______ _______ _____ _____    ______ ____
ROOT
ATOM      1  O   UNL     1       2.428   5.068  20.852  0.00  0.00    +0.000 OA
ATOM      2  C   UNL     1       2.366   5.863  19.921  0.00  0.00    +0.000 C 
ATOM      3  N   UNL     1       2.802   5.559  18.653  0.00  0.00    +0.000 N 
ATOM      4  H   UNL     1       2.850   6.257  17.920  0.00  0.00    +0.000 HD
ENDROOT
BRANCH   2   5
ATOM      5  C   UNL     1       1.811   7.224  20.140  0.00  0.00    +0.000 A 
ATOM      6  C   UNL     1       1.107   7.471  21.320  0.00  0.00    +0.000 A 
ATOM      7  C   UNL     1       0.522   8.722  21.537  0.00  0.00    +0.000 A 
ATOM      8  C   UNL     1       0.604   9.739  20.594  0.00  0.00    +0.000 A 
ATOM      9  N   UNL     1       0.003  10.914  20.837  0.00  0.00    +0.000 NA
ATOM     10  C   UNL     1       0.081  11.875  19.890  0.00  0.00    +0.000 A 
ATOM     11  C   UNL     1       0.750  11.723  18.691  0.00  0.00    +0.000 A 
ATOM     12  C   UNL     1       1.379  10.509  18.446  0.00  0.00    +0.000 A 
ATOM     13  C   UNL     1       1.313   9.484  19.400  0.00  0.00    +0.000 A 
ATOM     14  C   UNL     1       1.917   8.233  19.178  0.00  0.00    +0.000 A 
ENDBRANCH   2   5
BRANCH   3  15
ATOM     15  CA  UNL     1       3.346   4.241  18.347  0.00  0.00    +0.000 C 
BRANCH  15  16
ATOM     16  C   UNL     1       4.544   4.305  17.426  0.00  0.00    +0.000 A 
ATOM     17  C   UNL     1       4.450   4.116  16.038  0.00  0.00    +0.000 A 
ATOM     18  C   UNL     1       5.583   4.247  15.232  0.00  0.00    +0.000 A 
ATOM     19  C   UNL     1       6.810   4.551  15.812  0.00  0.00    +0.000 A 
ATOM     20  F   UNL     1       7.888   4.696  15.031  0.00  0.00    +0.000 F 
ATOM     21  C   UNL     1       6.937   4.698  17.186  0.00  0.00    +0.000 A 
ATOM     22  C   UNL     1       5.805   4.562  17.978  0.00  0.00    +0.000 A 
ATOM     23  F   UNL     1       5.925   4.661  19.312  0.00  0.00    +0.000 F 
ENDBRANCH  15  16
BRANCH  15  24
ATOM     24  C   UNL     1       2.235   3.357  17.764  0.00  0.00    +0.000 C 
ATOM     25  O   UNL     1       1.213   3.802  17.252  0.00  0.00    +0.000 OA
BRANCH  24  26
ATOM     26  OXT UNL     1       2.481   2.026  17.849  0.00  0.00    +0.000 OA
ATOM     27  HXT UNL     1       3.423   1.783  17.730  0.00  0.00    +0.000 HD
ENDBRANCH  24  26
ENDBRANCH  15  24
ENDBRANCH   3  15
TORSDOF 5
ENDMDL
MODEL 7
REMARK VINA RESULT:      -7.8      4.569      8.558
REMARK  Name = 
REMARK  5 active torsions:
REMARK  status: ('A' for Active; 'I' for Inactive)
REMARK    1  A    between atoms: C_2  and  C_16
REMARK    2  A    between atoms: N_3  and  CA_4
REMARK    3  A    between atoms: CA_4  and  C_5
REMARK    4  A    between atoms: CA_4  and  C_8
REMARK    5  A    between atoms: C_5  and  OXT_7
REMARK                            x       y       z     vdW  Elec       q    Type
REMARK                         _______ _______ _______ _____ _____    ______ ____
ROOT
ATOM      1  O   UNL     1       1.702   8.271  20.435  0.00  0.00    +0.000 OA
ATOM      2  C   UNL     1       1.925   8.302  19.229  0.00  0.00    +0.000 C 
ATOM      3  N   UNL     1       1.562   9.362  18.432  0.00  0.00    +0.000 N 
ATOM      4  H   UNL     1       1.649   9.330  17.424  0.00  0.00    +0.000 HD
ENDROOT
BRANCH   2   5
ATOM      5  C   UNL     1       2.603   7.157  18.569  0.00  0.00    +0.000 A 
ATOM      6  C   UNL     1       2.314   5.866  19.016  0.00  0.00    +0.000 A 
ATOM      7  C   UNL     1       2.974   4.767  18.458  0.00  0.00    +0.000 A 
ATOM      8  C   UNL     1       3.937   4.921  17.469  0.00  0.00    +0.000 A 
ATOM      9  N   UNL     1       4.562   3.837  16.983  0.00  0.00    +0.000 NA
ATOM     10  C   UNL     1       5.510   4.021  16.038  0.00  0.00    +0.000 A 
ATOM     11  C   UNL     1       5.868   5.258  15.536  0.00  0.00    +0.000 A 
ATOM     12  C   UNL     1       5.213   6.376  16.034  0.00  0.00    +0.000 A 
ATOM     13  C   UNL     1       4.230   6.227  17.022  0.00  0.00    +0.000 A 
ATOM     14  C   UNL     1       3.561   7.338  17.567  0.00  0.00    +0.000 A 
ENDBRANCH   2   5
BRANCH   3  15
ATOM     15  CA  UNL     1       0.906  10.533  19.003  0.00  0.00    +0.000 C 
BRANCH  15  16
ATOM     16  C   UNL     1      -0.527  10.680  18.540  0.00  0.00    +0.000 A 
ATOM     17  C   UNL     1      -1.035  10.020  17.409  0.00  0.00    +0.000 A 
ATOM     18  C   UNL     1      -2.383  10.149  17.067  0.00  0.00    +0.000 A 
ATOM     19  C   UNL     1      -3.218  10.945  17.843  0.00  0.00    +0.000 A 
ATOM     20  F   UNL     1      -4.514  11.047  17.520  0.00  0.00    +0.000 F 
ATOM     21  C   UNL     1      -2.730  11.642  18.938  0.00  0.00    +0.000 A 
ATOM     22  C   UNL     1      -1.387  11.511  19.268  0.00  0.00    +0.000 A 
ATOM     23  F   UNL     1      -0.896  12.214  20.301  0.00  0.00    +0.000 F 
ENDBRANCH  15  16
BRANCH  15  24
ATOM     24  C   UNL     1       1.732  11.785  18.678  0.00  0.00    +0.000 C 
ATOM     25  O   UNL     1       1.875  12.724  19.453  0.00  0.00    +0.000 OA
BRANCH  24  26
ATOM     26  OXT UNL     1       2.311  11.766  17.451  0.00  0.00    +0.000 OA
ATOM     27  HXT UNL     1       3.170  11.295  17.420  0.00  0.00    +0.000 HD
ENDBRANCH  24  26
ENDBRANCH  15  24
ENDBRANCH   3  15
TORSDOF 5
ENDMDL
MODEL 8
REMARK VINA RESULT:      -7.7      4.570      8.496
REMARK  Name = 
REMARK  5 active torsions:
REMARK  status: ('A' for Active; 'I' for Inactive)
REMARK    1  A    between atoms: C_2  and  C_16
REMARK    2  A    between atoms: N_3  and  CA_4
REMARK    3  A    between atoms: CA_4  and  C_5
REMARK    4  A    between atoms: CA_4  and  C_8
REMARK    5  A    between atoms: C_5  and  OXT_7
REMARK                            x       y       z     vdW  Elec       q    Type
REMARK                         _______ _______ _______ _____ _____    ______ ____
ROOT
ATOM      1  O   UNL     1       1.491   8.731  21.310  0.00  0.00    +0.000 OA
ATOM      2  C   UNL     1       1.549   8.365  20.141  0.00  0.00    +0.000 C 
ATOM      3  N   UNL     1       1.224   9.186  19.088  0.00  0.00    +0.000 N 
ATOM      4  H   UNL     1       1.168   8.843  18.137  0.00  0.00    +0.000 HD
ENDROOT
BRANCH   2   5
ATOM      5  C   UNL     1       1.975   6.980  19.815  0.00  0.00    +0.000 A 
ATOM      6  C   UNL     1       1.700   5.967  20.736  0.00  0.00    +0.000 A 
ATOM      7  C   UNL     1       2.135   4.660  20.492  0.00  0.00    +0.000 A 
ATOM      8  C   UNL     1       2.859   4.335  19.352  0.00  0.00    +0.000 A 
ATOM      9  N   UNL     1       3.277   3.072  19.174  0.00  0.00    +0.000 NA
ATOM     10  C   UNL     1       4.000   2.792  18.067  0.00  0.00    +0.000 A 
ATOM     11  C   UNL     1       4.325   3.727  17.102  0.00  0.00    +0.000 A 
ATOM     12  C   UNL     1       3.883   5.031  17.284  0.00  0.00    +0.000 A 
ATOM     13  C   UNL     1       3.139   5.363  18.425  0.00  0.00    +0.000 A 
ATOM     14  C   UNL     1       2.694   6.677  18.655  0.00  0.00    +0.000 A 
ENDBRANCH   2   5
BRANCH   3  15
ATOM     15  CA  UNL     1       0.811  10.566  19.319  0.00  0.00    +0.000 C 
BRANCH  15  16
ATOM     16  C   UNL     1      -0.614  10.827  18.883  0.00  0.00    +0.000 A 
ATOM     17  C   UNL     1      -1.225  10.141  17.822  0.00  0.00    +0.000 A 
ATOM     18  C   UNL     1      -2.564  10.383  17.506  0.00  0.00    +0.000 A 
ATOM     19  C   UNL     1      -3.286  11.320  18.237  0.00  0.00    +0.000 A 
ATOM     20  F   UNL     1      -4.575  11.532  17.942  0.00  0.00    +0.000 F 
ATOM     21  C   UNL     1      -2.692  12.043  19.262  0.00  0.00    +0.000 A 
ATOM     22  C   UNL     1      -1.359  11.797  19.565  0.00  0.00    +0.000 A 
ATOM     23  F   UNL     1      -0.764  12.521  20.526  0.00  0.00    +0.000 F 
ENDBRANCH  15  16
BRANCH  15  24
ATOM     24  C   UNL     1       1.795  11.513  18.618  0.00  0.00    +0.000 C 
ATOM     25  O   UNL     1       2.148  12.591  19.083  0.00  0.00    +0.000 OA
BRANCH  24  26
ATOM     26  OXT UNL     1       2.260  11.052  17.430  0.00  0.00    +0.000 OA
ATOM     27  HXT UNL     1       1.961  11.570  16.653  0.00  0.00    +0.000 HD
ENDBRANCH  24  26
ENDBRANCH  15  24
ENDBRANCH   3  15
TORSDOF 5
ENDMDL
MODEL 9
REMARK VINA RESULT:      -7.7      1.206      1.444
REMARK  Name = 
REMARK  5 active torsions:
REMARK  status: ('A' for Active; 'I' for Inactive)
REMARK    1  A    between atoms: C_2  and  C_16
REMARK    2  A    between atoms: N_3  and  CA_4
REMARK    3  A    between atoms: CA_4  and  C_5
REMARK    4  A    between atoms: CA_4  and  C_8
REMARK    5  A    between atoms: C_5  and  OXT_7
REMARK                            x       y       z     vdW  Elec       q    Type
REMARK                         _______ _______ _______ _____ _____    ______ ____
ROOT
ATOM      1  O   UNL     1       2.079   5.947  20.835  0.00  0.00    +0.000 OA
ATOM      2  C   UNL     1       2.139   6.595  19.796  0.00  0.00    +0.000 C 
ATOM      3  N   UNL     1       2.679   6.093  18.636  0.00  0.00    +0.000 N 
ATOM      4  H   UNL     1       2.825   6.671  17.817  0.00  0.00    +0.000 HD
ENDROOT
BRANCH   2   5
ATOM      5  C   UNL     1       1.624   7.988  19.757  0.00  0.00    +0.000 A 
ATOM      6  C   UNL     1       1.813   8.734  18.592  0.00  0.00    +0.000 A 
ATOM      7  C   UNL     1       1.394  10.067  18.537  0.00  0.00    +0.000 A 
ATOM      8  C   UNL     1       0.801  10.689  19.628  0.00  0.00    +0.000 A 
ATOM      9  N   UNL     1       0.439  11.978  19.536  0.00  0.00    +0.000 NA
ATOM     10  C   UNL     1      -0.114  12.562  20.622  0.00  0.00    +0.000 A 
ATOM     11  C   UNL     1      -0.337  11.909  21.819  0.00  0.00    +0.000 A 
ATOM     12  C   UNL     1       0.030  10.572  21.909  0.00  0.00    +0.000 A 
ATOM     13  C   UNL     1       0.615   9.934  20.807  0.00  0.00    +0.000 A 
ATOM     14  C   UNL     1       1.021   8.589  20.867  0.00  0.00    +0.000 A 
ENDBRANCH   2   5
BRANCH   3  15
ATOM     15  CA  UNL     1       3.192   4.729  18.582  0.00  0.00    +0.000 C 
BRANCH  15  16
ATOM     16  C   UNL     1       4.441   4.610  17.736  0.00  0.00    +0.000 A 
ATOM     17  C   UNL     1       4.433   4.088  16.433  0.00  0.00    +0.000 A 
ATOM     18  C   UNL     1       5.609   4.060  15.680  0.00  0.00    +0.000 A 
ATOM     19  C   UNL     1       6.793   4.538  16.231  0.00  0.00    +0.000 A 
ATOM     20  F   UNL     1       7.912   4.528  15.496  0.00  0.00    +0.000 F 
ATOM     21  C   UNL     1       6.835   5.017  17.533  0.00  0.00    +0.000 A 
ATOM     22  C   UNL     1       5.661   5.037  18.274  0.00  0.00    +0.000 A 
ATOM     23  F   UNL     1       5.700   5.460  19.548  0.00  0.00    +0.000 F 
ENDBRANCH  15  16
BRANCH  15  24
ATOM     24  C   UNL     1       2.085   3.790  18.084  0.00  0.00    +0.000 C 
ATOM     25  O   UNL     1       1.156   4.155  17.371  0.00  0.00    +0.000 OA
BRANCH  24  26
ATOM     26  OXT UNL     1       2.223   2.503  18.489  0.00  0.00    +0.000 OA
ATOM     27  HXT UNL     1       1.397   2.099  18.830  0.00  0.00    +0.000 HD
ENDBRANCH  24  26
ENDBRANCH  15  24
ENDBRANCH   3  15
TORSDOF 5
ENDMDL
