MODEL 1
REMARK VINA RESULT:      -8.5      0.000      0.000
REMARK  Name = 
REMARK  4 active torsions:
REMARK  status: ('A' for Active; 'I' for Inactive)
REMARK    1  A    between atoms: C_2  and  C_16
REMARK    2  A    between atoms: N_3  and  C_4
REMARK    3  A    between atoms: C_10  and  C_11
REMARK    4  A    between atoms: C_18  and  C_19
REMARK                            x       y       z     vdW  Elec       q    Type
REMARK                         _______ _______ _______ _____ _____    ______ ____
ROOT
ATOM      1  O   UNL     1       6.372   5.172  19.779  0.00  0.00    +0.000 OA
ATOM      2  C   UNL     1       5.971   4.660  18.741  0.00  0.00    +0.000 C 
ATOM      3  N   UNL     1       4.797   3.954  18.583  0.00  0.00    +0.000 N 
ATOM      4  H   UNL     1       4.673   3.395  17.739  0.00  0.00    +0.000 HD
ENDROOT
BRANCH   3   5
ATOM      5  C   UNL     1       3.778   3.794  19.568  0.00  0.00    +0.000 A 
ATOM      6  C   UNL     1       3.754   2.647  20.385  0.00  0.00    +0.000 A 
ATOM      7  C   UNL     1       2.756   2.444  21.336  0.00  0.00    +0.000 A 
ATOM      8  C   UNL     1       1.766   3.397  21.498  0.00  0.00    +0.000 A 
ATOM      9  C   UNL     1       1.792   4.556  20.724  0.00  0.00    +0.000 A 
ATOM     10  F   UNL     1       0.808   5.441  20.947  0.00  0.00    +0.000 F 
ATOM     11  C   UNL     1       2.789   4.792  19.755  0.00  0.00    +0.000 A 
BRANCH  11  12
ATOM     12  C   UNL     1       2.742   6.034  18.975  0.00  0.00    +0.000 A 
ATOM     13  N   UNL     1       2.408   7.251  19.536  0.00  0.00    +0.000 NA
ATOM     14  C   UNL     1       2.460   8.096  18.539  0.00  0.00    +0.000 A 
ATOM     15  N   UNL     1       2.811   7.433  17.415  0.00  0.00    +0.000 N 
ATOM     16  N   UNL     1       3.010   6.121  17.655  0.00  0.00    +0.000 NA
ATOM     17  H   UNL     1       2.929   7.795  16.475  0.00  0.00    +0.000 HD
ENDBRANCH  11  12
ENDBRANCH   3   5
BRANCH   2  18
ATOM     18  C   UNL     1       6.809   4.806  17.508  0.00  0.00    +0.000 C 
ATOM     19  C   UNL     1       7.174   6.198  17.040  0.00  0.00    +0.000 C 
ATOM     20  C   UNL     1       6.134   5.407  16.285  0.00  0.00    +0.000 C 
BRANCH  20  21
ATOM     21  C   UNL     1       6.435   4.995  14.867  0.00  0.00    +0.000 A 
ATOM     22  C   UNL     1       7.541   5.484  14.153  0.00  0.00    +0.000 A 
ATOM     23  C   UNL     1       7.838   5.012  12.871  0.00  0.00    +0.000 A 
ATOM     24  C   UNL     1       7.032   4.041  12.291  0.00  0.00    +0.000 A 
ATOM     25  F   UNL     1       7.328   3.574  11.071  0.00  0.00    +0.000 F 
ATOM     26  C   UNL     1       5.929   3.538  12.965  0.00  0.00    +0.000 A 
ATOM     27  C   UNL     1       5.637   4.015  14.243  0.00  0.00    +0.000 A 
ENDBRANCH  20  21
ENDBRANCH   2  18
TORSDOF 4
ENDMDL
MODEL 2
REMARK VINA RESULT:      -8.4      0.407      1.227
REMARK  Name = 
REMARK  4 active torsions:
REMARK  status: ('A' for Active; 'I' for Inactive)
REMARK    1  A    between atoms: C_2  and  C_16
REMARK    2  A    between atoms: N_3  and  C_4
REMARK    3  A    between atoms: C_10  and  C_11
REMARK    4  A    between atoms: C_18  and  C_19
REMARK                            x       y       z     vdW  Elec       q    Type
REMARK                         _______ _______ _______ _____ _____    ______ ____
ROOT
ATOM      1  O   UNL     1       6.430   5.113  19.791  0.00  0.00    +0.000 OA
ATOM      2  C   UNL     1       6.008   4.654  18.737  0.00  0.00    +0.000 C 
ATOM      3  N   UNL     1       4.809   3.996  18.558  0.00  0.00    +0.000 N 
ATOM      4  H   UNL     1       4.664   3.472  17.695  0.00  0.00    +0.000 HD
ENDROOT
BRANCH   3   5
ATOM      5  C   UNL     1       3.788   3.837  19.540  0.00  0.00    +0.000 A 
ATOM      6  C   UNL     1       3.739   2.672  20.331  0.00  0.00    +0.000 A 
ATOM      7  C   UNL     1       2.737   2.470  21.278  0.00  0.00    +0.000 A 
ATOM      8  C   UNL     1       1.770   3.441  21.464  0.00  0.00    +0.000 A 
ATOM      9  C   UNL     1       1.821   4.617  20.717  0.00  0.00    +0.000 A 
ATOM     10  F   UNL     1       0.858   5.519  20.962  0.00  0.00    +0.000 F 
ATOM     11  C   UNL     1       2.823   4.853  19.752  0.00  0.00    +0.000 A 
BRANCH  11  12
ATOM     12  C   UNL     1       2.804   6.113  19.001  0.00  0.00    +0.000 A 
ATOM     13  N   UNL     1       3.136   6.185  17.663  0.00  0.00    +0.000 NA
ATOM     14  C   UNL     1       3.017   7.452  17.363  0.00  0.00    +0.000 A 
ATOM     15  N   UNL     1       2.627   8.132  18.465  0.00  0.00    +0.000 N 
ATOM     16  N   UNL     1       2.471   7.312  19.524  0.00  0.00    +0.000 NA
ATOM     17  H   UNL     1       2.457   9.126  18.570  0.00  0.00    +0.000 HD
ENDBRANCH  11  12
ENDBRANCH   3   5
BRANCH   2  18
ATOM     18  C   UNL     1       6.848   4.815  17.507  0.00  0.00    +0.000 C 
ATOM     19  C   UNL     1       7.093   6.210  16.973  0.00  0.00    +0.000 C 
ATOM     20  C   UNL     1       6.140   5.290  16.248  0.00  0.00    +0.000 C 
BRANCH  20  21
ATOM     21  C   UNL     1       6.498   4.839  14.856  0.00  0.00    +0.000 A 
ATOM     22  C   UNL     1       5.761   3.867  14.159  0.00  0.00    +0.000 A 
ATOM     23  C   UNL     1       6.071   3.538  12.836  0.00  0.00    +0.000 A 
ATOM     24  C   UNL     1       7.120   4.182  12.194  0.00  0.00    +0.000 A 
ATOM     25  F   UNL     1       7.403   3.882  10.920  0.00  0.00    +0.000 F 
ATOM     26  C   UNL     1       7.872   5.144  12.852  0.00  0.00    +0.000 A 
ATOM     27  C   UNL     1       7.560   5.467  14.173  0.00  0.00    +0.000 A 
ENDBRANCH  20  21
ENDBRANCH   2  18
TORSDOF 4
ENDMDL
MODEL 3
REMARK VINA RESULT:      -8.0      4.146      8.640
REMARK  Name = 
REMARK  4 active torsions:
REMARK  status: ('A' for Active; 'I' for Inactive)
REMARK    1  A    between atoms: C_2  and  C_16
REMARK    2  A    between atoms: N_3  and  C_4
REMARK    3  A    between atoms: C_10  and  C_11
REMARK    4  A    between atoms: C_18  and  C_19
REMARK                            x       y       z     vdW  Elec       q    Type
REMARK                         _______ _______ _______ _____ _____    ______ ____
ROOT
ATOM      1  O   UNL     1       1.754   8.244  17.894  0.00  0.00    +0.000 OA
ATOM      2  C   UNL     1       2.117   7.906  19.014  0.00  0.00    +0.000 C 
ATOM      3  N   UNL     1       2.848   6.779  19.327  0.00  0.00    +0.000 N 
ATOM      4  H   UNL     1       2.905   6.489  20.304  0.00  0.00    +0.000 HD
ENDROOT
BRANCH   3   5
ATOM      5  C   UNL     1       3.417   5.864  18.392  0.00  0.00    +0.000 A 
ATOM      6  C   UNL     1       4.311   6.323  17.405  0.00  0.00    +0.000 A 
ATOM      7  C   UNL     1       4.862   5.463  16.457  0.00  0.00    +0.000 A 
ATOM      8  C   UNL     1       4.538   4.118  16.489  0.00  0.00    +0.000 A 
ATOM      9  C   UNL     1       3.683   3.638  17.480  0.00  0.00    +0.000 A 
ATOM     10  F   UNL     1       3.426   2.321  17.456  0.00  0.00    +0.000 F 
ATOM     11  C   UNL     1       3.111   4.482  18.454  0.00  0.00    +0.000 A 
BRANCH  11  12
ATOM     12  C   UNL     1       2.214   3.901  19.460  0.00  0.00    +0.000 A 
ATOM     13  N   UNL     1       2.591   3.722  20.776  0.00  0.00    +0.000 NA
ATOM     14  C   UNL     1       1.548   3.175  21.344  0.00  0.00    +0.000 A 
ATOM     15  N   UNL     1       0.571   3.025  20.422  0.00  0.00    +0.000 N 
ATOM     16  N   UNL     1       0.954   3.485  19.214  0.00  0.00    +0.000 NA
ATOM     17  H   UNL     1      -0.354   2.625  20.537  0.00  0.00    +0.000 HD
ENDBRANCH  11  12
ENDBRANCH   3   5
BRANCH   2  18
ATOM     18  C   UNL     1       1.757   8.786  20.172  0.00  0.00    +0.000 C 
ATOM     19  C   UNL     1       1.243   8.141  21.441  0.00  0.00    +0.000 C 
ATOM     20  C   UNL     1       0.284   8.876  20.536  0.00  0.00    +0.000 C 
BRANCH  20  21
ATOM     21  C   UNL     1      -0.382  10.122  21.057  0.00  0.00    +0.000 A 
ATOM     22  C   UNL     1      -0.910  11.112  20.212  0.00  0.00    +0.000 A 
ATOM     23  C   UNL     1      -1.599  12.212  20.733  0.00  0.00    +0.000 A 
ATOM     24  C   UNL     1      -1.772  12.331  22.105  0.00  0.00    +0.000 A 
ATOM     25  F   UNL     1      -2.450  13.373  22.602  0.00  0.00    +0.000 F 
ATOM     26  C   UNL     1      -1.261  11.374  22.970  0.00  0.00    +0.000 A 
ATOM     27  C   UNL     1      -0.572  10.280  22.446  0.00  0.00    +0.000 A 
ENDBRANCH  20  21
ENDBRANCH   2  18
TORSDOF 4
ENDMDL
MODEL 4
REMARK VINA RESULT:      -7.9      1.372      2.982
REMARK  Name = 
REMARK  4 active torsions:
REMARK  status: ('A' for Active; 'I' for Inactive)
REMARK    1  A    between atoms: C_2  and  C_16
REMARK    2  A    between atoms: N_3  and  C_4
REMARK    3  A    between atoms: C_10  and  C_11
REMARK    4  A    between atoms: C_18  and  C_19
REMARK                            x       y       z     vdW  Elec       q    Type
REMARK                         _______ _______ _______ _____ _____    ______ ____
ROOT
ATOM      1  O   UNL     1       6.114   5.127  19.623  0.00  0.00    +0.000 OA
ATOM      2  C   UNL     1       5.664   5.235  18.489  0.00  0.00    +0.000 C 
ATOM      3  N   UNL     1       4.343   5.447  18.155  0.00  0.00    +0.000 N 
ATOM      4  H   UNL     1       4.055   5.304  17.186  0.00  0.00    +0.000 HD
ENDROOT
BRANCH   3   5
ATOM      5  C   UNL     1       3.278   5.701  19.069  0.00  0.00    +0.000 A 
ATOM      6  C   UNL     1       2.967   7.021  19.447  0.00  0.00    +0.000 A 
ATOM      7  C   UNL     1       1.954   7.303  20.361  0.00  0.00    +0.000 A 
ATOM      8  C   UNL     1       1.219   6.264  20.905  0.00  0.00    +0.000 A 
ATOM      9  C   UNL     1       1.488   4.952  20.517  0.00  0.00    +0.000 A 
ATOM     10  F   UNL     1       0.725   4.000  21.075  0.00  0.00    +0.000 F 
ATOM     11  C   UNL     1       2.505   4.635  19.593  0.00  0.00    +0.000 A 
BRANCH  11  12
ATOM     12  C   UNL     1       2.731   3.228  19.241  0.00  0.00    +0.000 A 
ATOM     13  N   UNL     1       3.847   2.529  19.655  0.00  0.00    +0.000 NA
ATOM     14  C   UNL     1       3.699   1.338  19.137  0.00  0.00    +0.000 A 
ATOM     15  N   UNL     1       2.544   1.302  18.436  0.00  0.00    +0.000 N 
ATOM     16  N   UNL     1       1.895   2.483  18.488  0.00  0.00    +0.000 NA
ATOM     17  H   UNL     1       2.145   0.532  17.910  0.00  0.00    +0.000 HD
ENDBRANCH  11  12
ENDBRANCH   3   5
BRANCH   2  18
ATOM     18  C   UNL     1       6.616   5.141  17.336  0.00  0.00    +0.000 C 
ATOM     19  C   UNL     1       7.153   6.420  16.733  0.00  0.00    +0.000 C 
ATOM     20  C   UNL     1       6.111   5.623  15.986  0.00  0.00    +0.000 C 
BRANCH  20  21
ATOM     21  C   UNL     1       6.494   4.998  14.670  0.00  0.00    +0.000 A 
ATOM     22  C   UNL     1       5.741   3.978  14.065  0.00  0.00    +0.000 A 
ATOM     23  C   UNL     1       6.078   3.485  12.801  0.00  0.00    +0.000 A 
ATOM     24  C   UNL     1       7.171   4.011  12.125  0.00  0.00    +0.000 A 
ATOM     25  F   UNL     1       7.482   3.553  10.906  0.00  0.00    +0.000 F 
ATOM     26  C   UNL     1       7.940   5.016  12.693  0.00  0.00    +0.000 A 
ATOM     27  C   UNL     1       7.600   5.503  13.956  0.00  0.00    +0.000 A 
ENDBRANCH  20  21
ENDBRANCH   2  18
TORSDOF 4
ENDMDL
MODEL 5
REMARK VINA RESULT:      -7.8      1.373      3.050
REMARK  Name = 
REMARK  4 active torsions:
REMARK  status: ('A' for Active; 'I' for Inactive)
REMARK    1  A    between atoms: C_2  and  C_16
REMARK    2  A    between atoms: N_3  and  C_4
REMARK    3  A    between atoms: C_10  and  C_11
REMARK    4  A    between atoms: C_18  and  C_19
REMARK                            x       y       z     vdW  Elec       q    Type
REMARK                         _______ _______ _______ _____ _____    ______ ____
ROOT
ATOM      1  O   UNL     1       6.461   4.989  19.415  0.00  0.00    +0.000 OA
ATOM      2  C   UNL     1       5.904   5.036  18.325  0.00  0.00    +0.000 C 
ATOM      3  N   UNL     1       4.542   5.054  18.107  0.00  0.00    +0.000 N 
ATOM      4  H   UNL     1       4.196   4.875  17.164  0.00  0.00    +0.000 HD
ENDROOT
BRANCH   3   5
ATOM      5  C   UNL     1       3.535   5.142  19.113  0.00  0.00    +0.000 A 
ATOM      6  C   UNL     1       2.855   6.355  19.332  0.00  0.00    +0.000 A 
ATOM      7  C   UNL     1       1.887   6.485  20.326  0.00  0.00    +0.000 A 
ATOM      8  C   UNL     1       1.569   5.393  21.113  0.00  0.00    +0.000 A 
ATOM      9  C   UNL     1       2.204   4.172  20.888  0.00  0.00    +0.000 A 
ATOM     10  F   UNL     1       1.834   3.155  21.681  0.00  0.00    +0.000 F 
ATOM     11  C   UNL     1       3.187   4.008  19.889  0.00  0.00    +0.000 A 
BRANCH  11  12
ATOM     12  C   UNL     1       3.815   2.693  19.720  0.00  0.00    +0.000 A 
ATOM     13  N   UNL     1       3.478   1.836  18.691  0.00  0.00    +0.000 NA
ATOM     14  C   UNL     1       4.227   0.782  18.885  0.00  0.00    +0.000 A 
ATOM     15  N   UNL     1       4.992   0.978  19.982  0.00  0.00    +0.000 N 
ATOM     16  N   UNL     1       4.766   2.188  20.534  0.00  0.00    +0.000 NA
ATOM     17  H   UNL     1       5.668   0.352  20.404  0.00  0.00    +0.000 HD
ENDBRANCH  11  12
ENDBRANCH   3   5
BRANCH   2  18
ATOM     18  C   UNL     1       6.757   5.091  17.095  0.00  0.00    +0.000 C 
ATOM     19  C   UNL     1       7.070   6.442  16.489  0.00  0.00    +0.000 C 
ATOM     20  C   UNL     1       6.079   5.530  15.807  0.00  0.00    +0.000 C 
BRANCH  20  21
ATOM     21  C   UNL     1       6.423   4.987  14.444  0.00  0.00    +0.000 A 
ATOM     22  C   UNL     1       7.572   5.379  13.738  0.00  0.00    +0.000 A 
ATOM     23  C   UNL     1       7.904   4.788  12.515  0.00  0.00    +0.000 A 
ATOM     24  C   UNL     1       7.091   3.793  11.988  0.00  0.00    +0.000 A 
ATOM     25  F   UNL     1       7.421   3.213  10.826  0.00  0.00    +0.000 F 
ATOM     26  C   UNL     1       5.946   3.384  12.655  0.00  0.00    +0.000 A 
ATOM     27  C   UNL     1       5.619   3.979  13.873  0.00  0.00    +0.000 A 
ENDBRANCH  20  21
ENDBRANCH   2  18
TORSDOF 4
ENDMDL
MODEL 6
REMARK VINA RESULT:      -7.6      1.307      3.120
REMARK  Name = 
REMARK  4 active torsions:
REMARK  status: ('A' for Active; 'I' for Inactive)
REMARK    1  A    between atoms: C_2  and  C_16
REMARK    2  A    between atoms: N_3  and  C_4
REMARK    3  A    between atoms: C_10  and  C_11
REMARK    4  A    between atoms: C_18  and  C_19
REMARK                            x       y       z     vdW  Elec       q    Type
REMARK                         _______ _______ _______ _____ _____    ______ ____
ROOT
ATOM      1  O   UNL     1       6.453   5.641  19.496  0.00  0.00    +0.000 OA
ATOM      2  C   UNL     1       5.917   5.483  18.405  0.00  0.00    +0.000 C 
ATOM      3  N   UNL     1       4.565   5.342  18.175  0.00  0.00    +0.000 N 
ATOM      4  H   UNL     1       4.257   5.002  17.264  0.00  0.00    +0.000 HD
ENDROOT
BRANCH   3   5
ATOM      5  C   UNL     1       3.532   5.476  19.150  0.00  0.00    +0.000 A 
ATOM      6  C   UNL     1       2.932   6.729  19.381  0.00  0.00    +0.000 A 
ATOM      7  C   UNL     1       1.943   6.902  20.346  0.00  0.00    +0.000 A 
ATOM      8  C   UNL     1       1.521   5.815  21.091  0.00  0.00    +0.000 A 
ATOM      9  C   UNL     1       2.076   4.558  20.853  0.00  0.00    +0.000 A 
ATOM     10  F   UNL     1       1.608   3.550  21.604  0.00  0.00    +0.000 F 
ATOM     11  C   UNL     1       3.078   4.351  19.882  0.00  0.00    +0.000 A 
BRANCH  11  12
ATOM     12  C   UNL     1       3.618   2.999  19.697  0.00  0.00    +0.000 A 
ATOM     13  N   UNL     1       2.956   2.028  18.972  0.00  0.00    +0.000 NA
ATOM     14  C   UNL     1       3.730   0.977  19.047  0.00  0.00    +0.000 A 
ATOM     15  N   UNL     1       4.822   1.285  19.783  0.00  0.00    +0.000 N 
ATOM     16  N   UNL     1       4.791   2.566  20.204  0.00  0.00    +0.000 NA
ATOM     17  H   UNL     1       5.604   0.692  20.036  0.00  0.00    +0.000 HD
ENDBRANCH  11  12
ENDBRANCH   3   5
BRANCH   2  18
ATOM     18  C   UNL     1       6.788   5.444  17.187  0.00  0.00    +0.000 C 
ATOM     19  C   UNL     1       7.047   6.733  16.439  0.00  0.00    +0.000 C 
ATOM     20  C   UNL     1       6.113   5.703  15.850  0.00  0.00    +0.000 C 
BRANCH  20  21
ATOM     21  C   UNL     1       6.507   5.032  14.560  0.00  0.00    +0.000 A 
ATOM     22  C   UNL     1       5.758   3.991  13.987  0.00  0.00    +0.000 A 
ATOM     23  C   UNL     1       6.107   3.452  12.744  0.00  0.00    +0.000 A 
ATOM     24  C   UNL     1       7.206   3.953  12.059  0.00  0.00    +0.000 A 
ATOM     25  F   UNL     1       7.526   3.451  10.860  0.00  0.00    +0.000 F 
ATOM     26  C   UNL     1       7.970   4.978  12.597  0.00  0.00    +0.000 A 
ATOM     27  C   UNL     1       7.619   5.510  13.838  0.00  0.00    +0.000 A 
ENDBRANCH  20  21
ENDBRANCH   2  18
TORSDOF 4
ENDMDL
MODEL 7
REMARK VINA RESULT:      -7.6      3.693      8.340
REMARK  Name = 
REMARK  4 active torsions:
REMARK  status: ('A' for Active; 'I' for Inactive)
REMARK    1  A    between atoms: C_2  and  C_16
REMARK    2  A    between atoms: N_3  and  C_4
REMARK    3  A    between atoms: C_10  and  C_11
REMARK    4  A    between atoms: C_18  and  C_19
REMARK                            x       y       z     vdW  Elec       q    Type
REMARK                         _______ _______ _______ _____ _____    ______ ____
ROOT
ATOM      1  O   UNL     1       2.835   8.349  17.051  0.00  0.00    +0.000 OA
ATOM      2  C   UNL     1       2.246   7.996  18.066  0.00  0.00    +0.000 C 
ATOM      3  N   UNL     1       2.545   6.892  18.837  0.00  0.00    +0.000 N 
ATOM      4  H   UNL     1       1.860   6.577  19.525  0.00  0.00    +0.000 HD
ENDROOT
BRANCH   3   5
ATOM      5  C   UNL     1       3.668   6.030  18.665  0.00  0.00    +0.000 A 
ATOM      6  C   UNL     1       4.840   6.507  18.046  0.00  0.00    +0.000 A 
ATOM      7  C   UNL     1       5.944   5.684  17.834  0.00  0.00    +0.000 A 
ATOM      8  C   UNL     1       5.902   4.366  18.255  0.00  0.00    +0.000 A 
ATOM      9  C   UNL     1       4.765   3.885  18.902  0.00  0.00    +0.000 A 
ATOM     10  F   UNL     1       4.803   2.602  19.294  0.00  0.00    +0.000 F 
ATOM     11  C   UNL     1       3.632   4.693  19.133  0.00  0.00    +0.000 A 
BRANCH  11  12
ATOM     12  C   UNL     1       2.470   4.110  19.814  0.00  0.00    +0.000 A 
ATOM     13  N   UNL     1       2.535   3.619  21.103  0.00  0.00    +0.000 NA
ATOM     14  C   UNL     1       1.329   3.178  21.347  0.00  0.00    +0.000 A 
ATOM     15  N   UNL     1       0.553   3.389  20.260  0.00  0.00    +0.000 N 
ATOM     16  N   UNL     1       1.242   3.990  19.268  0.00  0.00    +0.000 NA
ATOM     17  H   UNL     1      -0.423   3.155  20.122  0.00  0.00    +0.000 HD
ENDBRANCH  11  12
ENDBRANCH   3   5
BRANCH   2  18
ATOM     18  C   UNL     1       1.093   8.825  18.542  0.00  0.00    +0.000 C 
ATOM     19  C   UNL     1       1.094  10.308  18.242  0.00  0.00    +0.000 C 
ATOM     20  C   UNL     1       1.380   9.831  19.646  0.00  0.00    +0.000 C 
BRANCH  20  21
ATOM     21  C   UNL     1       0.404  10.187  20.737  0.00  0.00    +0.000 A 
ATOM     22  C   UNL     1       0.340   9.492  21.956  0.00  0.00    +0.000 A 
ATOM     23  C   UNL     1      -0.518   9.908  22.979  0.00  0.00    +0.000 A 
ATOM     24  C   UNL     1      -1.317  11.028  22.795  0.00  0.00    +0.000 A 
ATOM     25  F   UNL     1      -2.123  11.438  23.784  0.00  0.00    +0.000 F 
ATOM     26  C   UNL     1      -1.283  11.737  21.604  0.00  0.00    +0.000 A 
ATOM     27  C   UNL     1      -0.427  11.316  20.586  0.00  0.00    +0.000 A 
ENDBRANCH  20  21
ENDBRANCH   2  18
TORSDOF 4
ENDMDL
MODEL 8
REMARK VINA RESULT:      -7.6      4.135      8.540
REMARK  Name = 
REMARK  4 active torsions:
REMARK  status: ('A' for Active; 'I' for Inactive)
REMARK    1  A    between atoms: C_2  and  C_16
REMARK    2  A    between atoms: N_3  and  C_4
REMARK    3  A    between atoms: C_10  and  C_11
REMARK    4  A    between atoms: C_18  and  C_19
REMARK                            x       y       z     vdW  Elec       q    Type
REMARK                         _______ _______ _______ _____ _____    ______ ____
ROOT
ATOM      1  O   UNL     1       2.100   8.813  17.299  0.00  0.00    +0.000 OA
ATOM      2  C   UNL     1       2.188   8.423  18.457  0.00  0.00    +0.000 C 
ATOM      3  N   UNL     1       2.752   7.236  18.875  0.00  0.00    +0.000 N 
ATOM      4  H   UNL     1       2.575   6.921  19.830  0.00  0.00    +0.000 HD
ENDROOT
BRANCH   3   5
ATOM      5  C   UNL     1       3.444   6.301  18.050  0.00  0.00    +0.000 A 
ATOM      6  C   UNL     1       4.383   6.751  17.101  0.00  0.00    +0.000 A 
ATOM      7  C   UNL     1       5.053   5.868  16.258  0.00  0.00    +0.000 A 
ATOM      8  C   UNL     1       4.808   4.510  16.359  0.00  0.00    +0.000 A 
ATOM      9  C   UNL     1       3.909   4.041  17.317  0.00  0.00    +0.000 A 
ATOM     10  F   UNL     1       3.733   2.712  17.365  0.00  0.00    +0.000 F 
ATOM     11  C   UNL     1       3.215   4.909  18.186  0.00  0.00    +0.000 A 
BRANCH  11  12
ATOM     12  C   UNL     1       2.279   4.338  19.162  0.00  0.00    +0.000 A 
ATOM     13  N   UNL     1       2.493   4.409  20.524  0.00  0.00    +0.000 NA
ATOM     14  C   UNL     1       1.470   3.787  21.048  0.00  0.00    +0.000 A 
ATOM     15  N   UNL     1       0.661   3.353  20.056  0.00  0.00    +0.000 N 
ATOM     16  N   UNL     1       1.137   3.695  18.842  0.00  0.00    +0.000 NA
ATOM     17  H   UNL     1      -0.205   2.831  20.127  0.00  0.00    +0.000 HD
ENDBRANCH  11  12
ENDBRANCH   3   5
BRANCH   2  18
ATOM     18  C   UNL     1       1.649   9.302  19.544  0.00  0.00    +0.000 C 
ATOM     19  C   UNL     1       1.102   8.654  20.797  0.00  0.00    +0.000 C 
ATOM     20  C   UNL     1       0.150   9.252  19.789  0.00  0.00    +0.000 C 
BRANCH  20  21
ATOM     21  C   UNL     1      -0.678  10.441  20.202  0.00  0.00    +0.000 A 
ATOM     22  C   UNL     1      -0.667  10.958  21.508  0.00  0.00    +0.000 A 
ATOM     23  C   UNL     1      -1.381  12.116  21.832  0.00  0.00    +0.000 A 
ATOM     24  C   UNL     1      -2.110  12.772  20.850  0.00  0.00    +0.000 A 
ATOM     25  F   UNL     1      -2.777  13.893  21.155  0.00  0.00    +0.000 F 
ATOM     26  C   UNL     1      -2.148  12.289  19.550  0.00  0.00    +0.000 A 
ATOM     27  C   UNL     1      -1.435  11.132  19.234  0.00  0.00    +0.000 A 
ENDBRANCH  20  21
ENDBRANCH   2  18
TORSDOF 4
ENDMDL
MODEL 9
REMARK VINA RESULT:      -7.5      3.174      6.990
REMARK  Name = 
REMARK  4 active torsions:
REMARK  status: ('A' for Active; 'I' for Inactive)
REMARK    1  A    between atoms: C_2  and  C_16
REMARK    2  A    between atoms: N_3  and  C_4
REMARK    3  A    between atoms: C_10  and  C_11
REMARK    4  A    between atoms: C_18  and  C_19
REMARK                            x       y       z     vdW  Elec       q    Type
REMARK                         _______ _______ _______ _____ _____    ______ ____
ROOT
ATOM      1  O   UNL     1       3.526   6.974  19.532  0.00  0.00    +0.000 OA
ATOM      2  C   UNL     1       2.537   6.666  18.878  0.00  0.00    +0.000 C 
ATOM      3  N   UNL     1       1.917   5.434  18.873  0.00  0.00    +0.000 N 
ATOM      4  H   UNL     1       1.243   5.230  18.134  0.00  0.00    +0.000 HD
ENDROOT
BRANCH   3   5
ATOM      5  C   UNL     1       2.238   4.331  19.718  0.00  0.00    +0.000 A 
ATOM      6  C   UNL     1       1.384   3.979  20.781  0.00  0.00    +0.000 A 
ATOM      7  C   UNL     1       1.683   2.927  21.644  0.00  0.00    +0.000 A 
ATOM      8  C   UNL     1       2.840   2.194  21.450  0.00  0.00    +0.000 A 
ATOM      9  C   UNL     1       3.680   2.503  20.381  0.00  0.00    +0.000 A 
ATOM     10  F   UNL     1       4.776   1.740  20.247  0.00  0.00    +0.000 F 
ATOM     11  C   UNL     1       3.405   3.561  19.489  0.00  0.00    +0.000 A 
BRANCH  11  12
ATOM     12  C   UNL     1       4.344   3.829  18.393  0.00  0.00    +0.000 A 
ATOM     13  N   UNL     1       3.966   3.789  17.066  0.00  0.00    +0.000 NA
ATOM     14  C   UNL     1       5.062   4.060  16.405  0.00  0.00    +0.000 A 
ATOM     15  N   UNL     1       6.069   4.260  17.284  0.00  0.00    +0.000 N 
ATOM     16  N   UNL     1       5.649   4.132  18.559  0.00  0.00    +0.000 NA
ATOM     17  H   UNL     1       7.041   4.478  17.095  0.00  0.00    +0.000 HD
ENDBRANCH  11  12
ENDBRANCH   3   5
BRANCH   2  18
ATOM     18  C   UNL     1       1.916   7.707  17.998  0.00  0.00    +0.000 C 
ATOM     19  C   UNL     1       2.691   8.975  17.717  0.00  0.00    +0.000 C 
ATOM     20  C   UNL     1       1.513   9.015  18.660  0.00  0.00    +0.000 C 
BRANCH  20  21
ATOM     21  C   UNL     1       0.305   9.824  18.265  0.00  0.00    +0.000 A 
ATOM     22  C   UNL     1      -0.702   9.325  17.422  0.00  0.00    +0.000 A 
ATOM     23  C   UNL     1      -1.851  10.073  17.149  0.00  0.00    +0.000 A 
ATOM     24  C   UNL     1      -2.008  11.328  17.722  0.00  0.00    +0.000 A 
ATOM     25  F   UNL     1      -3.118  12.036  17.477  0.00  0.00    +0.000 F 
ATOM     26  C   UNL     1      -1.033  11.855  18.556  0.00  0.00    +0.000 A 
ATOM     27  C   UNL     1       0.113  11.105  18.823  0.00  0.00    +0.000 A 
ENDBRANCH  20  21
ENDBRANCH   2  18
TORSDOF 4
ENDMDL
