MODEL 1
REMARK VINA RESULT:      -8.4      0.000      0.000
REMARK  Name = 
REMARK  5 active torsions:
REMARK  status: ('A' for Active; 'I' for Inactive)
REMARK    1  A    between atoms: N_1  and  C_2
REMARK    2  A    between atoms: C_2  and  C_3
REMARK    3  A    between atoms: C_7  and  N_8
REMARK    4  A    between atoms: C_9  and  C_11
REMARK    5  A    between atoms: C_15  and  C_16
REMARK                            x       y       z     vdW  Elec       q    Type
REMARK                         _______ _______ _______ _____ _____    ______ ____
ROOT
ATOM      1  N   UNL     1       2.702   6.393  19.902  0.00  0.00    +0.000 N 
ATOM      2  C   UNL     1       2.444   5.164  19.303  0.00  0.00    +0.000 C 
ATOM      3  O   UNL     1       1.591   4.943  18.451  0.00  0.00    +0.000 OA
ATOM      4  H   UNL     1       3.511   6.440  20.508  0.00  0.00    +0.000 HD
ENDROOT
BRANCH   1   9
ATOM      5  C   UNL     1       0.973   9.693  20.263  0.00  0.00    +0.000 A 
ATOM      6  C   UNL     1       1.110  10.180  18.951  0.00  0.00    +0.000 A 
ATOM      7  C   UNL     1       1.694   9.417  17.949  0.00  0.00    +0.000 A 
ATOM      8  C   UNL     1       2.190   8.148  18.242  0.00  0.00    +0.000 A 
ATOM      9  C   UNL     1       2.101   7.625  19.534  0.00  0.00    +0.000 A 
ATOM     10  C   UNL     1       1.449   8.386  20.523  0.00  0.00    +0.000 A 
BRANCH   5  11
ATOM     11  C   UNL     1       0.473  10.616  21.363  0.00  0.00    +0.000 C 
ATOM     12  C   UNL     1      -1.015  10.676  21.644  0.00  0.00    +0.000 C 
ATOM     13  C   UNL     1      -0.087  10.073  22.652  0.00  0.00    +0.000 C 
BRANCH  11  14
ATOM     14  N   UNL     1       1.206  11.889  21.428  0.00  0.00    +0.000 NA
ATOM     15  H   UNL     1       1.512  12.147  20.489  0.00  0.00    +0.000 HD
ATOM     16  H   UNL     1       2.065  11.763  21.960  0.00  0.00    +0.000 HD
ENDBRANCH  11  14
ENDBRANCH   5  11
ENDBRANCH   1   9
BRANCH   2  17
ATOM     17  C   UNL     1       3.312   4.078  19.741  0.00  0.00    +0.000 A 
ATOM     18  C   UNL     1       2.975   3.007  20.545  0.00  0.00    +0.000 A 
ATOM     19  N   UNL     1       4.048   2.169  20.521  0.00  0.00    +0.000 N 
ATOM     20  N   UNL     1       5.090   2.644  19.831  0.00  0.00    +0.000 NA
ATOM     21  C   UNL     1       4.671   3.826  19.341  0.00  0.00    +0.000 A 
ATOM     22  H   UNL     1       4.135   1.246  20.937  0.00  0.00    +0.000 HD
BRANCH  21  23
ATOM     23  C   UNL     1       5.563   4.647  18.515  0.00  0.00    +0.000 A 
ATOM     24  C   UNL     1       6.558   5.439  19.113  0.00  0.00    +0.000 A 
ATOM     25  C   UNL     1       7.432   6.204  18.331  0.00  0.00    +0.000 A 
ATOM     26  C   UNL     1       7.326   6.187  16.941  0.00  0.00    +0.000 A 
ATOM     27  C   UNL     1       6.326   5.430  16.335  0.00  0.00    +0.000 A 
ATOM     28  C   UNL     1       5.446   4.685  17.120  0.00  0.00    +0.000 A 
ATOM     29  F   UNL     1       4.453   4.032  16.495  0.00  0.00    +0.000 F 
ENDBRANCH  21  23
ENDBRANCH   2  17
TORSDOF 5
ENDMDL
MODEL 2
REMARK VINA RESULT:      -8.4      0.936      1.352
REMARK  Name = 
REMARK  5 active torsions:
REMARK  status: ('A' for Active; 'I' for Inactive)
REMARK    1  A    between atoms: N_1  and  C_2
REMARK    2  A    between atoms: C_2  and  C_3
REMARK    3  A    between atoms: C_7  and  N_8
REMARK    4  A    between atoms: C_9  and  C_11
REMARK    5  A    between atoms: C_15  and  C_16
REMARK                            x       y       z     vdW  Elec       q    Type
REMARK                         _______ _______ _______ _____ _____    ______ ____
ROOT
ATOM      1  N   UNL     1       2.659   6.419  19.867  0.00  0.00    +0.000 N 
ATOM      2  C   UNL     1       2.409   5.189  19.268  0.00  0.00    +0.000 C 
ATOM      3  O   UNL     1       1.589   4.973  18.382  0.00  0.00    +0.000 OA
ATOM      4  H   UNL     1       3.442   6.461  20.506  0.00  0.00    +0.000 HD
ENDROOT
BRANCH   1   9
ATOM      5  C   UNL     1       0.996   9.762  20.132  0.00  0.00    +0.000 A 
ATOM      6  C   UNL     1       1.166  10.220  18.813  0.00  0.00    +0.000 A 
ATOM      7  C   UNL     1       1.750   9.424  17.837  0.00  0.00    +0.000 A 
ATOM      8  C   UNL     1       2.213   8.151  18.163  0.00  0.00    +0.000 A 
ATOM      9  C   UNL     1       2.091   7.657  19.464  0.00  0.00    +0.000 A 
ATOM     10  C   UNL     1       1.439   8.451  20.426  0.00  0.00    +0.000 A 
BRANCH   5  11
ATOM     11  C   UNL     1       0.497  10.718  21.204  0.00  0.00    +0.000 C 
ATOM     12  C   UNL     1      -0.997  10.881  21.398  0.00  0.00    +0.000 C 
ATOM     13  C   UNL     1      -0.172  10.216  22.457  0.00  0.00    +0.000 C 
BRANCH  11  14
ATOM     14  N   UNL     1       1.311  11.937  21.316  0.00  0.00    +0.000 NA
ATOM     15  H   UNL     1       1.409  12.184  22.302  0.00  0.00    +0.000 HD
ATOM     16  H   UNL     1       0.814  12.721  20.896  0.00  0.00    +0.000 HD
ENDBRANCH  11  14
ENDBRANCH   5  11
ENDBRANCH   1   9
BRANCH   2  17
ATOM     17  C   UNL     1       3.243   4.095  19.750  0.00  0.00    +0.000 A 
ATOM     18  C   UNL     1       2.933   3.176  20.733  0.00  0.00    +0.000 A 
ATOM     19  N   UNL     1       3.929   2.246  20.703  0.00  0.00    +0.000 N 
ATOM     20  N   UNL     1       4.905   2.529  19.834  0.00  0.00    +0.000 NA
ATOM     21  C   UNL     1       4.516   3.669  19.234  0.00  0.00    +0.000 A 
ATOM     22  H   UNL     1       3.999   1.383  21.232  0.00  0.00    +0.000 HD
BRANCH  21  23
ATOM     23  C   UNL     1       5.353   4.289  18.200  0.00  0.00    +0.000 A 
ATOM     24  C   UNL     1       5.124   4.016  16.842  0.00  0.00    +0.000 A 
ATOM     25  C   UNL     1       5.899   4.625  15.847  0.00  0.00    +0.000 A 
ATOM     26  C   UNL     1       6.912   5.517  16.196  0.00  0.00    +0.000 A 
ATOM     27  C   UNL     1       7.170   5.776  17.540  0.00  0.00    +0.000 A 
ATOM     28  C   UNL     1       6.407   5.151  18.527  0.00  0.00    +0.000 A 
ATOM     29  F   UNL     1       6.742   5.373  19.808  0.00  0.00    +0.000 F 
ENDBRANCH  21  23
ENDBRANCH   2  17
TORSDOF 5
ENDMDL
MODEL 3
REMARK VINA RESULT:      -8.3      1.570      3.332
REMARK  Name = 
REMARK  5 active torsions:
REMARK  status: ('A' for Active; 'I' for Inactive)
REMARK    1  A    between atoms: N_1  and  C_2
REMARK    2  A    between atoms: C_2  and  C_3
REMARK    3  A    between atoms: C_7  and  N_8
REMARK    4  A    between atoms: C_9  and  C_11
REMARK    5  A    between atoms: C_15  and  C_16
REMARK                            x       y       z     vdW  Elec       q    Type
REMARK                         _______ _______ _______ _____ _____    ______ ____
ROOT
ATOM      1  N   UNL     1       2.941   6.790  18.993  0.00  0.00    +0.000 N 
ATOM      2  C   UNL     1       3.917   6.569  18.027  0.00  0.00    +0.000 C 
ATOM      3  O   UNL     1       4.097   7.241  17.017  0.00  0.00    +0.000 OA
ATOM      4  H   UNL     1       2.989   6.215  19.824  0.00  0.00    +0.000 HD
ENDROOT
BRANCH   1   9
ATOM      5  C   UNL     1       0.813   9.523  20.410  0.00  0.00    +0.000 A 
ATOM      6  C   UNL     1       0.544  10.250  19.237  0.00  0.00    +0.000 A 
ATOM      7  C   UNL     1       0.990   9.819  17.995  0.00  0.00    +0.000 A 
ATOM      8  C   UNL     1       1.752   8.655  17.896  0.00  0.00    +0.000 A 
ATOM      9  C   UNL     1       2.067   7.908  19.033  0.00  0.00    +0.000 A 
ATOM     10  C   UNL     1       1.553   8.325  20.276  0.00  0.00    +0.000 A 
BRANCH   5  11
ATOM     11  C   UNL     1       0.442  10.109  21.763  0.00  0.00    +0.000 C 
ATOM     12  C   UNL     1      -0.649   9.440  22.574  0.00  0.00    +0.000 C 
ATOM     13  C   UNL     1       0.771   9.394  23.048  0.00  0.00    +0.000 C 
BRANCH  11  14
ATOM     14  N   UNL     1       0.467  11.579  21.783  0.00  0.00    +0.000 NA
ATOM     15  H   UNL     1      -0.413  11.934  21.408  0.00  0.00    +0.000 HD
ATOM     16  H   UNL     1       1.183  11.919  21.143  0.00  0.00    +0.000 HD
ENDBRANCH  11  14
ENDBRANCH   5  11
ENDBRANCH   1   9
BRANCH   2  17
ATOM     17  C   UNL     1       4.800   5.441  18.299  0.00  0.00    +0.000 A 
ATOM     18  C   UNL     1       6.170   5.391  18.136  0.00  0.00    +0.000 A 
ATOM     19  N   UNL     1       6.571   4.213  18.692  0.00  0.00    +0.000 N 
ATOM     20  N   UNL     1       5.562   3.454  19.132  0.00  0.00    +0.000 NA
ATOM     21  C   UNL     1       4.454   4.180  18.898  0.00  0.00    +0.000 A 
ATOM     22  H   UNL     1       7.517   3.869  18.823  0.00  0.00    +0.000 HD
BRANCH  21  23
ATOM     23  C   UNL     1       3.131   3.657  19.261  0.00  0.00    +0.000 A 
ATOM     24  C   UNL     1       2.716   3.641  20.603  0.00  0.00    +0.000 A 
ATOM     25  C   UNL     1       1.445   3.171  20.955  0.00  0.00    +0.000 A 
ATOM     26  C   UNL     1       0.570   2.712  19.971  0.00  0.00    +0.000 A 
ATOM     27  C   UNL     1       0.978   2.696  18.640  0.00  0.00    +0.000 A 
ATOM     28  C   UNL     1       2.252   3.147  18.297  0.00  0.00    +0.000 A 
ATOM     29  F   UNL     1       2.627   3.042  17.012  0.00  0.00    +0.000 F 
ENDBRANCH  21  23
ENDBRANCH   2  17
TORSDOF 5
ENDMDL
MODEL 4
REMARK VINA RESULT:      -8.3      4.124      8.169
REMARK  Name = 
REMARK  5 active torsions:
REMARK  status: ('A' for Active; 'I' for Inactive)
REMARK    1  A    between atoms: N_1  and  C_2
REMARK    2  A    between atoms: C_2  and  C_3
REMARK    3  A    between atoms: C_7  and  N_8
REMARK    4  A    between atoms: C_9  and  C_11
REMARK    5  A    between atoms: C_15  and  C_16
REMARK                            x       y       z     vdW  Elec       q    Type
REMARK                         _______ _______ _______ _____ _____    ______ ____
ROOT
ATOM      1  N   UNL     1       7.402   4.786  15.595  0.00  0.00    +0.000 N 
ATOM      2  C   UNL     1       6.667   5.676  16.372  0.00  0.00    +0.000 C 
ATOM      3  O   UNL     1       5.963   6.588  15.951  0.00  0.00    +0.000 OA
ATOM      4  H   UNL     1       7.846   4.019  16.083  0.00  0.00    +0.000 HD
ENDROOT
BRANCH   1   9
ATOM      5  C   UNL     1       6.302   3.737  12.175  0.00  0.00    +0.000 A 
ATOM      6  C   UNL     1       7.027   4.657  11.397  0.00  0.00    +0.000 A 
ATOM      7  C   UNL     1       7.912   5.557  11.973  0.00  0.00    +0.000 A 
ATOM      8  C   UNL     1       8.074   5.585  13.357  0.00  0.00    +0.000 A 
ATOM      9  C   UNL     1       7.360   4.708  14.178  0.00  0.00    +0.000 A 
ATOM     10  C   UNL     1       6.515   3.759  13.574  0.00  0.00    +0.000 A 
BRANCH   5  11
ATOM     11  C   UNL     1       5.230   2.877  11.524  0.00  0.00    +0.000 C 
ATOM     12  C   UNL     1       3.777   3.137  11.869  0.00  0.00    +0.000 C 
ATOM     13  C   UNL     1       4.286   3.442  10.494  0.00  0.00    +0.000 C 
BRANCH  11  14
ATOM     14  N   UNL     1       5.629   1.470  11.374  0.00  0.00    +0.000 NA
ATOM     15  H   UNL     1       6.573   1.350  11.742  0.00  0.00    +0.000 HD
ATOM     16  H   UNL     1       5.698   1.237  10.385  0.00  0.00    +0.000 HD
ENDBRANCH  11  14
ENDBRANCH   5  11
ENDBRANCH   1   9
BRANCH   2  17
ATOM     17  C   UNL     1       6.750   5.445  17.808  0.00  0.00    +0.000 A 
ATOM     18  C   UNL     1       7.820   5.709  18.640  0.00  0.00    +0.000 A 
ATOM     19  N   UNL     1       7.367   5.508  19.909  0.00  0.00    +0.000 N 
ATOM     20  N   UNL     1       6.111   5.055  19.968  0.00  0.00    +0.000 NA
ATOM     21  C   UNL     1       5.702   4.998  18.687  0.00  0.00    +0.000 A 
ATOM     22  H   UNL     1       7.853   5.677  20.784  0.00  0.00    +0.000 HD
BRANCH  21  23
ATOM     23  C   UNL     1       4.347   4.541  18.358  0.00  0.00    +0.000 A 
ATOM     24  C   UNL     1       4.079   3.172  18.194  0.00  0.00    +0.000 A 
ATOM     25  C   UNL     1       2.783   2.724  17.909  0.00  0.00    +0.000 A 
ATOM     26  C   UNL     1       1.737   3.637  17.784  0.00  0.00    +0.000 A 
ATOM     27  C   UNL     1       1.993   5.000  17.915  0.00  0.00    +0.000 A 
ATOM     28  C   UNL     1       3.289   5.441  18.180  0.00  0.00    +0.000 A 
ATOM     29  F   UNL     1       3.500   6.767  18.224  0.00  0.00    +0.000 F 
ENDBRANCH  21  23
ENDBRANCH   2  17
TORSDOF 5
ENDMDL
MODEL 5
REMARK VINA RESULT:      -8.2      2.830      4.507
REMARK  Name = 
REMARK  5 active torsions:
REMARK  status: ('A' for Active; 'I' for Inactive)
REMARK    1  A    between atoms: N_1  and  C_2
REMARK    2  A    between atoms: C_2  and  C_3
REMARK    3  A    between atoms: C_7  and  N_8
REMARK    4  A    between atoms: C_9  and  C_11
REMARK    5  A    between atoms: C_15  and  C_16
REMARK                            x       y       z     vdW  Elec       q    Type
REMARK                         _______ _______ _______ _____ _____    ______ ____
ROOT
ATOM      1  N   UNL     1       1.897   8.865  18.222  0.00  0.00    +0.000 N 
ATOM      2  C   UNL     1       2.286   7.722  18.914  0.00  0.00    +0.000 C 
ATOM      3  O   UNL     1       1.913   7.398  20.036  0.00  0.00    +0.000 OA
ATOM      4  H   UNL     1       2.204   8.939  17.262  0.00  0.00    +0.000 HD
ENDROOT
BRANCH   1   9
ATOM      5  C   UNL     1      -1.303  10.806  18.249  0.00  0.00    +0.000 A 
ATOM      6  C   UNL     1      -1.223  11.384  19.528  0.00  0.00    +0.000 A 
ATOM      7  C   UNL     1      -0.113  11.199  20.341  0.00  0.00    +0.000 A 
ATOM      8  C   UNL     1       0.943  10.400  19.905  0.00  0.00    +0.000 A 
ATOM      9  C   UNL     1       0.904   9.784  18.652  0.00  0.00    +0.000 A 
ATOM     10  C   UNL     1      -0.201  10.032  17.815  0.00  0.00    +0.000 A 
BRANCH   5  11
ATOM     11  C   UNL     1      -2.598  10.902  17.457  0.00  0.00    +0.000 C 
ATOM     12  C   UNL     1      -3.602   9.771  17.560  0.00  0.00    +0.000 C 
ATOM     13  C   UNL     1      -3.924  11.114  18.139  0.00  0.00    +0.000 C 
BRANCH  11  14
ATOM     14  N   UNL     1      -2.419  11.503  16.127  0.00  0.00    +0.000 NA
ATOM     15  H   UNL     1      -1.617  11.070  15.670  0.00  0.00    +0.000 HD
ATOM     16  H   UNL     1      -2.169  12.485  16.226  0.00  0.00    +0.000 HD
ENDBRANCH  11  14
ENDBRANCH   5  11
ENDBRANCH   1   9
BRANCH   2  17
ATOM     17  C   UNL     1       3.199   6.850  18.186  0.00  0.00    +0.000 A 
ATOM     18  C   UNL     1       4.147   7.219  17.253  0.00  0.00    +0.000 A 
ATOM     19  N   UNL     1       4.875   6.097  16.994  0.00  0.00    +0.000 N 
ATOM     20  N   UNL     1       4.426   5.006  17.622  0.00  0.00    +0.000 NA
ATOM     21  C   UNL     1       3.387   5.434  18.362  0.00  0.00    +0.000 A 
ATOM     22  H   UNL     1       5.703   6.004  16.414  0.00  0.00    +0.000 HD
BRANCH  21  23
ATOM     23  C   UNL     1       2.634   4.496  19.204  0.00  0.00    +0.000 A 
ATOM     24  C   UNL     1       3.115   4.138  20.474  0.00  0.00    +0.000 A 
ATOM     25  C   UNL     1       2.389   3.266  21.296  0.00  0.00    +0.000 A 
ATOM     26  C   UNL     1       1.174   2.741  20.859  0.00  0.00    +0.000 A 
ATOM     27  C   UNL     1       0.699   3.065  19.590  0.00  0.00    +0.000 A 
ATOM     28  C   UNL     1       1.435   3.918  18.769  0.00  0.00    +0.000 A 
ATOM     29  F   UNL     1       0.974   4.140  17.528  0.00  0.00    +0.000 F 
ENDBRANCH  21  23
ENDBRANCH   2  17
TORSDOF 5
ENDMDL
MODEL 6
REMARK VINA RESULT:      -8.0      2.670      4.171
REMARK  Name = 
REMARK  5 active torsions:
REMARK  status: ('A' for Active; 'I' for Inactive)
REMARK    1  A    between atoms: N_1  and  C_2
REMARK    2  A    between atoms: C_2  and  C_3
REMARK    3  A    between atoms: C_7  and  N_8
REMARK    4  A    between atoms: C_9  and  C_11
REMARK    5  A    between atoms: C_15  and  C_16
REMARK                            x       y       z     vdW  Elec       q    Type
REMARK                         _______ _______ _______ _____ _____    ______ ____
ROOT
ATOM      1  N   UNL     1       2.320   8.349  18.124  0.00  0.00    +0.000 N 
ATOM      2  C   UNL     1       2.887   7.165  18.585  0.00  0.00    +0.000 C 
ATOM      3  O   UNL     1       2.720   6.672  19.696  0.00  0.00    +0.000 OA
ATOM      4  H   UNL     1       2.464   8.569  17.148  0.00  0.00    +0.000 HD
ENDROOT
BRANCH   1   9
ATOM      5  C   UNL     1      -0.613  10.601  18.698  0.00  0.00    +0.000 A 
ATOM      6  C   UNL     1      -0.743  10.476  20.092  0.00  0.00    +0.000 A 
ATOM      7  C   UNL     1       0.152   9.725  20.841  0.00  0.00    +0.000 A 
ATOM      8  C   UNL     1       1.193   9.048  20.207  0.00  0.00    +0.000 A 
ATOM      9  C   UNL     1       1.353   9.120  18.821  0.00  0.00    +0.000 A 
ATOM     10  C   UNL     1       0.475   9.936  18.084  0.00  0.00    +0.000 A 
BRANCH   5  11
ATOM     11  C   UNL     1      -1.701  11.301  17.898  0.00  0.00    +0.000 C 
ATOM     12  C   UNL     1      -2.679  10.458  17.104  0.00  0.00    +0.000 C 
ATOM     13  C   UNL     1      -3.150  11.222  18.303  0.00  0.00    +0.000 C 
BRANCH  11  14
ATOM     14  N   UNL     1      -1.244  12.547  17.266  0.00  0.00    +0.000 NA
ATOM     15  H   UNL     1      -1.920  12.829  16.555  0.00  0.00    +0.000 HD
ATOM     16  H   UNL     1      -0.380  12.375  16.755  0.00  0.00    +0.000 HD
ENDBRANCH  11  14
ENDBRANCH   5  11
ENDBRANCH   1   9
BRANCH   2  17
ATOM     17  C   UNL     1       3.723   6.470  17.615  0.00  0.00    +0.000 A 
ATOM     18  C   UNL     1       4.642   7.028  16.748  0.00  0.00    +0.000 A 
ATOM     19  N   UNL     1       5.305   5.982  16.181  0.00  0.00    +0.000 N 
ATOM     20  N   UNL     1       4.838   4.784  16.548  0.00  0.00    +0.000 NA
ATOM     21  C   UNL     1       3.856   5.050  17.429  0.00  0.00    +0.000 A 
ATOM     22  H   UNL     1       6.099   6.009  15.549  0.00  0.00    +0.000 HD
BRANCH  21  23
ATOM     23  C   UNL     1       3.103   3.958  18.057  0.00  0.00    +0.000 A 
ATOM     24  C   UNL     1       3.772   2.962  18.787  0.00  0.00    +0.000 A 
ATOM     25  C   UNL     1       3.060   1.931  19.415  0.00  0.00    +0.000 A 
ATOM     26  C   UNL     1       1.670   1.884  19.321  0.00  0.00    +0.000 A 
ATOM     27  C   UNL     1       0.995   2.848  18.576  0.00  0.00    +0.000 A 
ATOM     28  C   UNL     1       1.711   3.860  17.938  0.00  0.00    +0.000 A 
ATOM     29  F   UNL     1       1.024   4.722  17.170  0.00  0.00    +0.000 F 
ENDBRANCH  21  23
ENDBRANCH   2  17
TORSDOF 5
ENDMDL
MODEL 7
REMARK VINA RESULT:      -8.0      2.979      4.666
REMARK  Name = 
REMARK  5 active torsions:
REMARK  status: ('A' for Active; 'I' for Inactive)
REMARK    1  A    between atoms: N_1  and  C_2
REMARK    2  A    between atoms: C_2  and  C_3
REMARK    3  A    between atoms: C_7  and  N_8
REMARK    4  A    between atoms: C_9  and  C_11
REMARK    5  A    between atoms: C_15  and  C_16
REMARK                            x       y       z     vdW  Elec       q    Type
REMARK                         _______ _______ _______ _____ _____    ______ ____
ROOT
ATOM      1  N   UNL     1       1.866   8.697  17.924  0.00  0.00    +0.000 N 
ATOM      2  C   UNL     1       2.324   7.663  18.734  0.00  0.00    +0.000 C 
ATOM      3  O   UNL     1       1.961   7.434  19.883  0.00  0.00    +0.000 OA
ATOM      4  H   UNL     1       2.179   8.691  16.962  0.00  0.00    +0.000 HD
ENDROOT
BRANCH   1   9
ATOM      5  C   UNL     1      -1.489  10.349  17.785  0.00  0.00    +0.000 A 
ATOM      6  C   UNL     1      -1.426  11.120  18.959  0.00  0.00    +0.000 A 
ATOM      7  C   UNL     1      -0.283  11.154  19.746  0.00  0.00    +0.000 A 
ATOM      8  C   UNL     1       0.826  10.387  19.394  0.00  0.00    +0.000 A 
ATOM      9  C   UNL     1       0.808   9.586  18.250  0.00  0.00    +0.000 A 
ATOM     10  C   UNL     1      -0.335   9.612  17.429  0.00  0.00    +0.000 A 
BRANCH   5  11
ATOM     11  C   UNL     1      -2.808  10.217  17.039  0.00  0.00    +0.000 C 
ATOM     12  C   UNL     1      -3.078  11.137  15.865  0.00  0.00    +0.000 C 
ATOM     13  C   UNL     1      -2.867   9.673  15.635  0.00  0.00    +0.000 C 
BRANCH  11  14
ATOM     14  N   UNL     1      -3.946   9.928  17.923  0.00  0.00    +0.000 NA
ATOM     15  H   UNL     1      -4.639   9.382  17.409  0.00  0.00    +0.000 HD
ATOM     16  H   UNL     1      -4.421  10.796  18.165  0.00  0.00    +0.000 HD
ENDBRANCH  11  14
ENDBRANCH   5  11
ENDBRANCH   1   9
BRANCH   2  17
ATOM     17  C   UNL     1       3.302   6.783  18.106  0.00  0.00    +0.000 A 
ATOM     18  C   UNL     1       4.305   7.137  17.226  0.00  0.00    +0.000 A 
ATOM     19  N   UNL     1       5.071   6.022  17.063  0.00  0.00    +0.000 N 
ATOM     20  N   UNL     1       4.601   4.947  17.703  0.00  0.00    +0.000 NA
ATOM     21  C   UNL     1       3.505   5.381  18.352  0.00  0.00    +0.000 A 
ATOM     22  H   UNL     1       5.939   5.926  16.545  0.00  0.00    +0.000 HD
BRANCH  21  23
ATOM     23  C   UNL     1       2.715   4.459  19.178  0.00  0.00    +0.000 A 
ATOM     24  C   UNL     1       3.195   4.033  20.427  0.00  0.00    +0.000 A 
ATOM     25  C   UNL     1       2.436   3.177  21.234  0.00  0.00    +0.000 A 
ATOM     26  C   UNL     1       1.185   2.736  20.804  0.00  0.00    +0.000 A 
ATOM     27  C   UNL     1       0.708   3.127  19.555  0.00  0.00    +0.000 A 
ATOM     28  C   UNL     1       1.477   3.964  18.748  0.00  0.00    +0.000 A 
ATOM     29  F   UNL     1       1.009   4.253  17.523  0.00  0.00    +0.000 F 
ENDBRANCH  21  23
ENDBRANCH   2  17
TORSDOF 5
ENDMDL
MODEL 8
REMARK VINA RESULT:      -8.0      2.758      4.152
REMARK  Name = 
REMARK  5 active torsions:
REMARK  status: ('A' for Active; 'I' for Inactive)
REMARK    1  A    between atoms: N_1  and  C_2
REMARK    2  A    between atoms: C_2  and  C_3
REMARK    3  A    between atoms: C_7  and  N_8
REMARK    4  A    between atoms: C_9  and  C_11
REMARK    5  A    between atoms: C_15  and  C_16
REMARK                            x       y       z     vdW  Elec       q    Type
REMARK                         _______ _______ _______ _____ _____    ______ ____
ROOT
ATOM      1  N   UNL     1       2.603   8.425  18.075  0.00  0.00    +0.000 N 
ATOM      2  C   UNL     1       2.910   7.075  18.205  0.00  0.00    +0.000 C 
ATOM      3  O   UNL     1       2.361   6.280  18.960  0.00  0.00    +0.000 OA
ATOM      4  H   UNL     1       3.070   8.927  17.332  0.00  0.00    +0.000 HD
ENDROOT
BRANCH   1   9
ATOM      5  C   UNL     1      -0.628  10.276  18.458  0.00  0.00    +0.000 A 
ATOM      6  C   UNL     1      -0.795  10.182  19.851  0.00  0.00    +0.000 A 
ATOM      7  C   UNL     1       0.163   9.586  20.659  0.00  0.00    +0.000 A 
ATOM      8  C   UNL     1       1.309   9.035  20.089  0.00  0.00    +0.000 A 
ATOM      9  C   UNL     1       1.514   9.081  18.708  0.00  0.00    +0.000 A 
ATOM     10  C   UNL     1       0.563   9.745  17.909  0.00  0.00    +0.000 A 
BRANCH   5  11
ATOM     11  C   UNL     1      -1.768  10.793  17.594  0.00  0.00    +0.000 C 
ATOM     12  C   UNL     1      -2.388   9.863  16.571  0.00  0.00    +0.000 C 
ATOM     13  C   UNL     1      -3.178  10.292  17.768  0.00  0.00    +0.000 C 
BRANCH  11  14
ATOM     14  N   UNL     1      -1.595  12.196  17.188  0.00  0.00    +0.000 NA
ATOM     15  H   UNL     1      -1.527  12.243  16.171  0.00  0.00    +0.000 HD
ATOM     16  H   UNL     1      -0.701  12.544  17.530  0.00  0.00    +0.000 HD
ENDBRANCH  11  14
ENDBRANCH   5  11
ENDBRANCH   1   9
BRANCH   2  17
ATOM     17  C   UNL     1       3.970   6.603  17.322  0.00  0.00    +0.000 A 
ATOM     18  C   UNL     1       4.791   7.366  16.515  0.00  0.00    +0.000 A 
ATOM     19  N   UNL     1       5.736   6.514  16.030  0.00  0.00    +0.000 N 
ATOM     20  N   UNL     1       5.551   5.240  16.392  0.00  0.00    +0.000 NA
ATOM     21  C   UNL     1       4.464   5.259  17.185  0.00  0.00    +0.000 A 
ATOM     22  H   UNL     1       6.549   6.733  15.462  0.00  0.00    +0.000 HD
BRANCH  21  23
ATOM     23  C   UNL     1       3.956   4.018  17.782  0.00  0.00    +0.000 A 
ATOM     24  C   UNL     1       2.884   3.332  17.189  0.00  0.00    +0.000 A 
ATOM     25  C   UNL     1       2.411   2.131  17.735  0.00  0.00    +0.000 A 
ATOM     26  C   UNL     1       3.004   1.601  18.880  0.00  0.00    +0.000 A 
ATOM     27  C   UNL     1       4.050   2.286  19.495  0.00  0.00    +0.000 A 
ATOM     28  C   UNL     1       4.503   3.490  18.958  0.00  0.00    +0.000 A 
ATOM     29  F   UNL     1       5.462   4.150  19.628  0.00  0.00    +0.000 F 
ENDBRANCH  21  23
ENDBRANCH   2  17
TORSDOF 5
ENDMDL
MODEL 9
REMARK VINA RESULT:      -8.0      3.955      8.132
REMARK  Name = 
REMARK  5 active torsions:
REMARK  status: ('A' for Active; 'I' for Inactive)
REMARK    1  A    between atoms: N_1  and  C_2
REMARK    2  A    between atoms: C_2  and  C_3
REMARK    3  A    between atoms: C_7  and  N_8
REMARK    4  A    between atoms: C_9  and  C_11
REMARK    5  A    between atoms: C_15  and  C_16
REMARK                            x       y       z     vdW  Elec       q    Type
REMARK                         _______ _______ _______ _____ _____    ______ ____
ROOT
ATOM      1  N   UNL     1       7.456   4.832  15.629  0.00  0.00    +0.000 N 
ATOM      2  C   UNL     1       6.698   5.696  16.412  0.00  0.00    +0.000 C 
ATOM      3  O   UNL     1       5.955   6.580  15.996  0.00  0.00    +0.000 OA
ATOM      4  H   UNL     1       7.935   4.084  16.115  0.00  0.00    +0.000 HD
ENDROOT
BRANCH   1   9
ATOM      5  C   UNL     1       6.327   3.757  12.227  0.00  0.00    +0.000 A 
ATOM      6  C   UNL     1       7.037   4.677  11.436  0.00  0.00    +0.000 A 
ATOM      7  C   UNL     1       7.922   5.587  11.998  0.00  0.00    +0.000 A 
ATOM      8  C   UNL     1       8.099   5.623  13.380  0.00  0.00    +0.000 A 
ATOM      9  C   UNL     1       7.400   4.746  14.213  0.00  0.00    +0.000 A 
ATOM     10  C   UNL     1       6.555   3.788  13.623  0.00  0.00    +0.000 A 
BRANCH   5  11
ATOM     11  C   UNL     1       5.254   2.886  11.592  0.00  0.00    +0.000 C 
ATOM     12  C   UNL     1       3.803   3.137  11.951  0.00  0.00    +0.000 C 
ATOM     13  C   UNL     1       4.295   3.437  10.569  0.00  0.00    +0.000 C 
BRANCH  11  14
ATOM     14  N   UNL     1       5.661   1.480  11.446  0.00  0.00    +0.000 NA
ATOM     15  H   UNL     1       5.995   1.134  12.346  0.00  0.00    +0.000 HD
ATOM     16  H   UNL     1       6.466   1.419  10.825  0.00  0.00    +0.000 HD
ENDBRANCH  11  14
ENDBRANCH   5  11
ENDBRANCH   1   9
BRANCH   2  17
ATOM     17  C   UNL     1       6.807   5.475  17.848  0.00  0.00    +0.000 A 
ATOM     18  C   UNL     1       7.927   5.641  18.639  0.00  0.00    +0.000 A 
ATOM     19  N   UNL     1       7.501   5.501  19.925  0.00  0.00    +0.000 N 
ATOM     20  N   UNL     1       6.208   5.177  20.033  0.00  0.00    +0.000 NA
ATOM     21  C   UNL     1       5.752   5.146  18.768  0.00  0.00    +0.000 A 
ATOM     22  H   UNL     1       8.031   5.631  20.781  0.00  0.00    +0.000 HD
BRANCH  21  23
ATOM     23  C   UNL     1       4.347   4.821  18.491  0.00  0.00    +0.000 A 
ATOM     24  C   UNL     1       3.429   5.839  18.187  0.00  0.00    +0.000 A 
ATOM     25  C   UNL     1       2.093   5.536  17.893  0.00  0.00    +0.000 A 
ATOM     26  C   UNL     1       1.658   4.212  17.898  0.00  0.00    +0.000 A 
ATOM     27  C   UNL     1       2.550   3.194  18.227  0.00  0.00    +0.000 A 
ATOM     28  C   UNL     1       3.874   3.504  18.537  0.00  0.00    +0.000 A 
ATOM     29  F   UNL     1       4.677   2.498  18.920  0.00  0.00    +0.000 F 
ENDBRANCH  21  23
ENDBRANCH   2  17
TORSDOF 5
ENDMDL
