MODEL 1
REMARK VINA RESULT:      -9.4      0.000      0.000
REMARK  Name = 
REMARK  4 active torsions:
REMARK  status: ('A' for Active; 'I' for Inactive)
REMARK    1  A    between atoms: C_1  and  C_2
REMARK    2  A    between atoms: C_5  and  C_6
REMARK    3  A    between atoms: C_9  and  C_10
REMARK    4  A    between atoms: C_13  and  C_14
REMARK                            x       y       z     vdW  Elec       q    Type
REMARK                         _______ _______ _______ _____ _____    ______ ____
ROOT
ATOM      1  C   UNL     1       1.082   9.418  18.985  0.00  0.00    +0.000 A 
ATOM      2  C   UNL     1       1.197   8.820  20.248  0.00  0.00    +0.000 A 
ATOM      3  C   UNL     1       1.898   7.622  20.410  0.00  0.00    +0.000 A 
ATOM      4  C   UNL     1       2.509   7.012  19.310  0.00  0.00    +0.000 A 
ATOM      5  C   UNL     1       2.436   7.621  18.056  0.00  0.00    +0.000 A 
ATOM      6  C   UNL     1       1.734   8.814  17.901  0.00  0.00    +0.000 A 
ENDROOT
BRANCH   4   7
ATOM      7  C   UNL     1       3.059   5.600  19.458  0.00  0.00    +0.000 C 
ATOM      8  O   UNL     1       2.927   5.052  20.528  0.00  0.00    +0.000 OA
ATOM      9  N   UNL     1       3.451   4.982  18.307  0.00  0.00    +0.000 N 
ATOM     10  C   UNL     1       3.178   3.558  18.123  0.00  0.00    +0.000 C 
ATOM     11  C   UNL     1       3.546   3.317  16.664  0.00  0.00    +0.000 C 
ATOM     12  C   UNL     1       4.816   4.114  16.682  0.00  0.00    +0.000 A 
ATOM     13  C   UNL     1       6.015   3.957  16.021  0.00  0.00    +0.000 A 
ATOM     14  C   UNL     1       7.047   4.861  16.303  0.00  0.00    +0.000 A 
ATOM     15  C   UNL     1       6.859   5.932  17.198  0.00  0.00    +0.000 A 
ATOM     16  C   UNL     1       5.642   6.122  17.853  0.00  0.00    +0.000 A 
ATOM     17  C   UNL     1       4.656   5.191  17.609  0.00  0.00    +0.000 A 
ENDBRANCH   4   7
BRANCH   1  21
ATOM     18  C   UNL     1      -1.588  11.664  18.572  0.00  0.00    +0.000 A 
ATOM     19  N   UNL     1      -0.632  12.566  18.620  0.00  0.00    +0.000 NA
ATOM     20  N   UNL     1       0.568  11.887  18.758  0.00  0.00    +0.000 NA
ATOM     21  C   UNL     1       0.252  10.603  18.786  0.00  0.00    +0.000 A 
ATOM     22  O   UNL     1      -1.100  10.390  18.662  0.00  0.00    +0.000 OA
BRANCH  18  27
ATOM     23  C   UNL     1      -7.321  12.334  18.032  0.00  0.00    +0.000 C 
ATOM     24  C   UNL     1      -5.834  12.141  18.187  0.00  0.00    +0.000 A 
ATOM     25  C   UNL     1      -5.178  12.484  19.367  0.00  0.00    +0.000 A 
ATOM     26  C   UNL     1      -3.779  12.338  19.495  0.00  0.00    +0.000 A 
ATOM     27  C   UNL     1      -3.037  11.824  18.437  0.00  0.00    +0.000 A 
ATOM     28  C   UNL     1      -3.694  11.466  17.244  0.00  0.00    +0.000 A 
ATOM     29  C   UNL     1      -5.078  11.634  17.120  0.00  0.00    +0.000 A 
ENDBRANCH  18  27
ENDBRANCH   1  21
TORSDOF 3
ENDMDL
MODEL 2
REMARK VINA RESULT:      -9.4      1.962      2.634
REMARK  Name = 
REMARK  4 active torsions:
REMARK  status: ('A' for Active; 'I' for Inactive)
REMARK    1  A    between atoms: C_1  and  C_2
REMARK    2  A    between atoms: C_5  and  C_6
REMARK    3  A    between atoms: C_9  and  C_10
REMARK    4  A    between atoms: C_13  and  C_14
REMARK                            x       y       z     vdW  Elec       q    Type
REMARK                         _______ _______ _______ _____ _____    ______ ____
ROOT
ATOM      1  C   UNL     1       1.274   9.241  19.605  0.00  0.00    +0.000 A 
ATOM      2  C   UNL     1       1.371   8.305  20.644  0.00  0.00    +0.000 A 
ATOM      3  C   UNL     1       1.939   7.047  20.424  0.00  0.00    +0.000 A 
ATOM      4  C   UNL     1       2.434   6.714  19.159  0.00  0.00    +0.000 A 
ATOM      5  C   UNL     1       2.381   7.653  18.128  0.00  0.00    +0.000 A 
ATOM      6  C   UNL     1       1.812   8.904  18.354  0.00  0.00    +0.000 A 
ENDROOT
BRANCH   4   7
ATOM      7  C   UNL     1       2.828   5.270  18.875  0.00  0.00    +0.000 C 
ATOM      8  O   UNL     1       2.132   4.395  19.336  0.00  0.00    +0.000 OA
ATOM      9  N   UNL     1       3.799   5.083  17.937  0.00  0.00    +0.000 N 
ATOM     10  C   UNL     1       3.691   3.967  16.999  0.00  0.00    +0.000 C 
ATOM     11  C   UNL     1       4.809   4.241  16.000  0.00  0.00    +0.000 C 
ATOM     12  C   UNL     1       5.847   4.620  17.014  0.00  0.00    +0.000 A 
ATOM     13  C   UNL     1       7.213   4.442  17.049  0.00  0.00    +0.000 A 
ATOM     14  C   UNL     1       7.904   4.870  18.189  0.00  0.00    +0.000 A 
ATOM     15  C   UNL     1       7.239   5.508  19.253  0.00  0.00    +0.000 A 
ATOM     16  C   UNL     1       5.861   5.720  19.221  0.00  0.00    +0.000 A 
ATOM     17  C   UNL     1       5.187   5.243  18.119  0.00  0.00    +0.000 A 
ENDBRANCH   4   7
BRANCH   1  21
ATOM     18  C   UNL     1      -0.895  11.799  20.652  0.00  0.00    +0.000 A 
ATOM     19  N   UNL     1      -0.108  12.553  19.916  0.00  0.00    +0.000 NA
ATOM     20  N   UNL     1       0.850  11.724  19.354  0.00  0.00    +0.000 NA
ATOM     21  C   UNL     1       0.575  10.508  19.796  0.00  0.00    +0.000 A 
ATOM     22  O   UNL     1      -0.528  10.483  20.616  0.00  0.00    +0.000 OA
BRANCH  18  27
ATOM     23  C   UNL     1      -5.528  13.169  23.855  0.00  0.00    +0.000 C 
ATOM     24  C   UNL     1      -4.319  12.836  23.020  0.00  0.00    +0.000 A 
ATOM     25  C   UNL     1      -4.315  13.030  21.640  0.00  0.00    +0.000 A 
ATOM     26  C   UNL     1      -3.194  12.681  20.855  0.00  0.00    +0.000 A 
ATOM     27  C   UNL     1      -2.061  12.153  21.464  0.00  0.00    +0.000 A 
ATOM     28  C   UNL     1      -2.052  11.961  22.859  0.00  0.00    +0.000 A 
ATOM     29  C   UNL     1      -3.176  12.292  23.625  0.00  0.00    +0.000 A 
ENDBRANCH  18  27
ENDBRANCH   1  21
TORSDOF 3
ENDMDL
MODEL 3
REMARK VINA RESULT:      -9.3      2.515      3.674
REMARK  Name = 
REMARK  4 active torsions:
REMARK  status: ('A' for Active; 'I' for Inactive)
REMARK    1  A    between atoms: C_1  and  C_2
REMARK    2  A    between atoms: C_5  and  C_6
REMARK    3  A    between atoms: C_9  and  C_10
REMARK    4  A    between atoms: C_13  and  C_14
REMARK                            x       y       z     vdW  Elec       q    Type
REMARK                         _______ _______ _______ _____ _____    ______ ____
ROOT
ATOM      1  C   UNL     1       1.155   9.808  19.889  0.00  0.00    +0.000 A 
ATOM      2  C   UNL     1       1.450   9.939  18.525  0.00  0.00    +0.000 A 
ATOM      3  C   UNL     1       2.090   8.911  17.829  0.00  0.00    +0.000 A 
ATOM      4  C   UNL     1       2.430   7.724  18.488  0.00  0.00    +0.000 A 
ATOM      5  C   UNL     1       2.103   7.566  19.836  0.00  0.00    +0.000 A 
ATOM      6  C   UNL     1       1.467   8.597  20.523  0.00  0.00    +0.000 A 
ENDROOT
BRANCH   4   7
ATOM      7  C   UNL     1       3.331   6.719  17.784  0.00  0.00    +0.000 C 
ATOM      8  O   UNL     1       3.850   7.057  16.745  0.00  0.00    +0.000 OA
ATOM      9  N   UNL     1       3.663   5.604  18.495  0.00  0.00    +0.000 N 
ATOM     10  C   UNL     1       5.017   5.062  18.398  0.00  0.00    +0.000 C 
ATOM     11  C   UNL     1       5.047   3.998  19.489  0.00  0.00    +0.000 C 
ATOM     12  C   UNL     1       3.696   3.419  19.191  0.00  0.00    +0.000 A 
ATOM     13  C   UNL     1       3.201   2.136  19.276  0.00  0.00    +0.000 A 
ATOM     14  C   UNL     1       1.883   1.909  18.862  0.00  0.00    +0.000 A 
ATOM     15  C   UNL     1       1.063   2.963  18.415  0.00  0.00    +0.000 A 
ATOM     16  C   UNL     1       1.540   4.272  18.350  0.00  0.00    +0.000 A 
ATOM     17  C   UNL     1       2.855   4.470  18.706  0.00  0.00    +0.000 A 
ENDBRANCH   4   7
BRANCH   1  21
ATOM     18  C   UNL     1      -0.949  11.995  21.659  0.00  0.00    +0.000 A 
ATOM     19  N   UNL     1       0.172  12.646  21.878  0.00  0.00    +0.000 NA
ATOM     20  N   UNL     1       1.183  11.958  21.226  0.00  0.00    +0.000 NA
ATOM     21  C   UNL     1       0.596  10.922  20.650  0.00  0.00    +0.000 A 
ATOM     22  O   UNL     1      -0.760  10.891  20.876  0.00  0.00    +0.000 OA
BRANCH  18  27
ATOM     23  C   UNL     1      -6.338  13.140  23.462  0.00  0.00    +0.000 C 
ATOM     24  C   UNL     1      -4.942  12.819  22.997  0.00  0.00    +0.000 A 
ATOM     25  C   UNL     1      -3.951  12.427  23.894  0.00  0.00    +0.000 A 
ATOM     26  C   UNL     1      -2.632  12.164  23.460  0.00  0.00    +0.000 A 
ATOM     27  C   UNL     1      -2.313  12.276  22.111  0.00  0.00    +0.000 A 
ATOM     28  C   UNL     1      -3.311  12.663  21.196  0.00  0.00    +0.000 A 
ATOM     29  C   UNL     1      -4.609  12.941  21.639  0.00  0.00    +0.000 A 
ENDBRANCH  18  27
ENDBRANCH   1  21
TORSDOF 3
ENDMDL
MODEL 4
REMARK VINA RESULT:      -9.3      2.632      3.661
REMARK  Name = 
REMARK  4 active torsions:
REMARK  status: ('A' for Active; 'I' for Inactive)
REMARK    1  A    between atoms: C_1  and  C_2
REMARK    2  A    between atoms: C_5  and  C_6
REMARK    3  A    between atoms: C_9  and  C_10
REMARK    4  A    between atoms: C_13  and  C_14
REMARK                            x       y       z     vdW  Elec       q    Type
REMARK                         _______ _______ _______ _____ _____    ______ ____
ROOT
ATOM      1  C   UNL     1       0.695   9.473  20.580  0.00  0.00    +0.000 A 
ATOM      2  C   UNL     1       0.847   9.895  19.251  0.00  0.00    +0.000 A 
ATOM      3  C   UNL     1       1.595   9.142  18.343  0.00  0.00    +0.000 A 
ATOM      4  C   UNL     1       2.191   7.943  18.748  0.00  0.00    +0.000 A 
ATOM      5  C   UNL     1       2.012   7.493  20.057  0.00  0.00    +0.000 A 
ATOM      6  C   UNL     1       1.266   8.249  20.958  0.00  0.00    +0.000 A 
ENDROOT
BRANCH   4   7
ATOM      7  C   UNL     1       3.191   7.264  17.823  0.00  0.00    +0.000 C 
ATOM      8  O   UNL     1       3.559   7.873  16.845  0.00  0.00    +0.000 OA
ATOM      9  N   UNL     1       3.764   6.118  18.290  0.00  0.00    +0.000 N 
ATOM     10  C   UNL     1       5.178   5.858  18.028  0.00  0.00    +0.000 C 
ATOM     11  C   UNL     1       5.476   4.639  18.891  0.00  0.00    +0.000 C 
ATOM     12  C   UNL     1       4.224   3.886  18.550  0.00  0.00    +0.000 A 
ATOM     13  C   UNL     1       3.964   2.541  18.409  0.00  0.00    +0.000 A 
ATOM     14  C   UNL     1       2.674   2.156  18.021  0.00  0.00    +0.000 A 
ATOM     15  C   UNL     1       1.654   3.105  17.824  0.00  0.00    +0.000 A 
ATOM     16  C   UNL     1       1.894   4.470  17.990  0.00  0.00    +0.000 A 
ATOM     17  C   UNL     1       3.181   4.836  18.316  0.00  0.00    +0.000 A 
ENDBRANCH   4   7
BRANCH   1  21
ATOM     18  C   UNL     1      -1.517  11.623  22.262  0.00  0.00    +0.000 A 
ATOM     19  N   UNL     1      -0.768  11.325  23.301  0.00  0.00    +0.000 NA
ATOM     20  N   UNL     1       0.232  10.475  22.858  0.00  0.00    +0.000 NA
ATOM     21  C   UNL     1       0.017  10.312  21.564  0.00  0.00    +0.000 A 
ATOM     22  O   UNL     1      -1.073  11.022  21.117  0.00  0.00    +0.000 OA
BRANCH  18  27
ATOM     23  C   UNL     1      -6.238  14.961  21.843  0.00  0.00    +0.000 C 
ATOM     24  C   UNL     1      -4.997  14.113  21.950  0.00  0.00    +0.000 A 
ATOM     25  C   UNL     1      -4.209  13.839  20.834  0.00  0.00    +0.000 A 
ATOM     26  C   UNL     1      -3.068  13.011  20.930  0.00  0.00    +0.000 A 
ATOM     27  C   UNL     1      -2.705  12.473  22.160  0.00  0.00    +0.000 A 
ATOM     28  C   UNL     1      -3.491  12.752  23.294  0.00  0.00    +0.000 A 
ATOM     29  C   UNL     1      -4.631  13.557  23.185  0.00  0.00    +0.000 A 
ENDBRANCH  18  27
ENDBRANCH   1  21
TORSDOF 3
ENDMDL
MODEL 5
REMARK VINA RESULT:      -9.3      0.920      1.367
REMARK  Name = 
REMARK  4 active torsions:
REMARK  status: ('A' for Active; 'I' for Inactive)
REMARK    1  A    between atoms: C_1  and  C_2
REMARK    2  A    between atoms: C_5  and  C_6
REMARK    3  A    between atoms: C_9  and  C_10
REMARK    4  A    between atoms: C_13  and  C_14
REMARK                            x       y       z     vdW  Elec       q    Type
REMARK                         _______ _______ _______ _____ _____    ______ ____
ROOT
ATOM      1  C   UNL     1       1.171   9.038  19.424  0.00  0.00    +0.000 A 
ATOM      2  C   UNL     1       1.193   8.144  20.504  0.00  0.00    +0.000 A 
ATOM      3  C   UNL     1       1.834   6.908  20.397  0.00  0.00    +0.000 A 
ATOM      4  C   UNL     1       2.480   6.553  19.208  0.00  0.00    +0.000 A 
ATOM      5  C   UNL     1       2.500   7.453  18.140  0.00  0.00    +0.000 A 
ATOM      6  C   UNL     1       1.857   8.682  18.253  0.00  0.00    +0.000 A 
ENDROOT
BRANCH   4   7
ATOM      7  C   UNL     1       2.963   5.121  19.026  0.00  0.00    +0.000 C 
ATOM      8  O   UNL     1       2.348   4.243  19.585  0.00  0.00    +0.000 OA
ATOM      9  N   UNL     1       3.911   4.921  18.066  0.00  0.00    +0.000 N 
ATOM     10  C   UNL     1       3.848   3.725  17.227  0.00  0.00    +0.000 C 
ATOM     11  C   UNL     1       4.906   3.988  16.163  0.00  0.00    +0.000 C 
ATOM     12  C   UNL     1       5.951   4.520  17.099  0.00  0.00    +0.000 A 
ATOM     13  C   UNL     1       7.326   4.438  17.091  0.00  0.00    +0.000 A 
ATOM     14  C   UNL     1       8.027   5.005  18.163  0.00  0.00    +0.000 A 
ATOM     15  C   UNL     1       7.358   5.684  19.199  0.00  0.00    +0.000 A 
ATOM     16  C   UNL     1       5.968   5.800  19.207  0.00  0.00    +0.000 A 
ATOM     17  C   UNL     1       5.289   5.188  18.176  0.00  0.00    +0.000 A 
ENDBRANCH   4   7
BRANCH   1  21
ATOM     18  C   UNL     1      -1.356  11.476  19.310  0.00  0.00    +0.000 A 
ATOM     19  N   UNL     1      -0.424  12.242  19.833  0.00  0.00    +0.000 NA
ATOM     20  N   UNL     1       0.723  11.473  19.952  0.00  0.00    +0.000 NA
ATOM     21  C   UNL     1       0.402  10.277  19.487  0.00  0.00    +0.000 A 
ATOM     22  O   UNL     1      -0.901  10.213  19.052  0.00  0.00    +0.000 OA
BRANCH  18  27
ATOM     23  C   UNL     1      -6.882  12.615  17.982  0.00  0.00    +0.000 C 
ATOM     24  C   UNL     1      -5.439  12.336  18.312  0.00  0.00    +0.000 A 
ATOM     25  C   UNL     1      -4.598  11.697  17.404  0.00  0.00    +0.000 A 
ATOM     26  C   UNL     1      -3.255  11.403  17.732  0.00  0.00    +0.000 A 
ATOM     27  C   UNL     1      -2.749  11.773  18.973  0.00  0.00    +0.000 A 
ATOM     28  C   UNL     1      -3.590  12.426  19.894  0.00  0.00    +0.000 A 
ATOM     29  C   UNL     1      -4.925  12.695  19.567  0.00  0.00    +0.000 A 
ENDBRANCH  18  27
ENDBRANCH   1  21
TORSDOF 3
ENDMDL
MODEL 6
REMARK VINA RESULT:      -9.1      2.629      3.292
REMARK  Name = 
REMARK  4 active torsions:
REMARK  status: ('A' for Active; 'I' for Inactive)
REMARK    1  A    between atoms: C_1  and  C_2
REMARK    2  A    between atoms: C_5  and  C_6
REMARK    3  A    between atoms: C_9  and  C_10
REMARK    4  A    between atoms: C_13  and  C_14
REMARK                            x       y       z     vdW  Elec       q    Type
REMARK                         _______ _______ _______ _____ _____    ______ ____
ROOT
ATOM      1  C   UNL     1       1.250   9.261  19.539  0.00  0.00    +0.000 A 
ATOM      2  C   UNL     1       1.289   8.350  20.604  0.00  0.00    +0.000 A 
ATOM      3  C   UNL     1       1.865   7.088  20.444  0.00  0.00    +0.000 A 
ATOM      4  C   UNL     1       2.428   6.724  19.217  0.00  0.00    +0.000 A 
ATOM      5  C   UNL     1       2.433   7.639  18.162  0.00  0.00    +0.000 A 
ATOM      6  C   UNL     1       1.855   8.894  18.328  0.00  0.00    +0.000 A 
ENDROOT
BRANCH   4   7
ATOM      7  C   UNL     1       2.834   5.274  18.989  0.00  0.00    +0.000 C 
ATOM      8  O   UNL     1       2.170   4.413  19.519  0.00  0.00    +0.000 OA
ATOM      9  N   UNL     1       3.772   5.054  18.024  0.00  0.00    +0.000 N 
ATOM     10  C   UNL     1       3.646   3.891  17.147  0.00  0.00    +0.000 C 
ATOM     11  C   UNL     1       4.720   4.131  16.093  0.00  0.00    +0.000 C 
ATOM     12  C   UNL     1       5.790   4.574  17.046  0.00  0.00    +0.000 A 
ATOM     13  C   UNL     1       7.159   4.418  17.037  0.00  0.00    +0.000 A 
ATOM     14  C   UNL     1       7.886   4.911  18.127  0.00  0.00    +0.000 A 
ATOM     15  C   UNL     1       7.252   5.591  19.184  0.00  0.00    +0.000 A 
ATOM     16  C   UNL     1       5.870   5.783  19.195  0.00  0.00    +0.000 A 
ATOM     17  C   UNL     1       5.162   5.242  18.144  0.00  0.00    +0.000 A 
ENDBRANCH   4   7
BRANCH   1  21
ATOM     18  C   UNL     1      -0.480  12.086  20.709  0.00  0.00    +0.000 A 
ATOM     19  N   UNL     1      -0.312  12.507  19.475  0.00  0.00    +0.000 NA
ATOM     20  N   UNL     1       0.352  11.505  18.785  0.00  0.00    +0.000 NA
ATOM     21  C   UNL     1       0.545  10.534  19.661  0.00  0.00    +0.000 A 
ATOM     22  O   UNL     1       0.031  10.833  20.901  0.00  0.00    +0.000 OA
BRANCH  18  27
ATOM     23  C   UNL     1      -3.005  14.697  25.227  0.00  0.00    +0.000 C 
ATOM     24  C   UNL     1      -2.331  14.011  24.067  0.00  0.00    +0.000 A 
ATOM     25  C   UNL     1      -1.182  14.539  23.481  0.00  0.00    +0.000 A 
ATOM     26  C   UNL     1      -0.575  13.914  22.369  0.00  0.00    +0.000 A 
ATOM     27  C   UNL     1      -1.114  12.739  21.856  0.00  0.00    +0.000 A 
ATOM     28  C   UNL     1      -2.270  12.194  22.448  0.00  0.00    +0.000 A 
ATOM     29  C   UNL     1      -2.875  12.832  23.537  0.00  0.00    +0.000 A 
ENDBRANCH  18  27
ENDBRANCH   1  21
TORSDOF 3
ENDMDL
MODEL 7
REMARK VINA RESULT:      -9.0      2.859      3.730
REMARK  Name = 
REMARK  4 active torsions:
REMARK  status: ('A' for Active; 'I' for Inactive)
REMARK    1  A    between atoms: C_1  and  C_2
REMARK    2  A    between atoms: C_5  and  C_6
REMARK    3  A    between atoms: C_9  and  C_10
REMARK    4  A    between atoms: C_13  and  C_14
REMARK                            x       y       z     vdW  Elec       q    Type
REMARK                         _______ _______ _______ _____ _____    ______ ____
ROOT
ATOM      1  C   UNL     1       1.249   9.054  19.759  0.00  0.00    +0.000 A 
ATOM      2  C   UNL     1       1.302   8.067  20.754  0.00  0.00    +0.000 A 
ATOM      3  C   UNL     1       1.893   6.827  20.501  0.00  0.00    +0.000 A 
ATOM      4  C   UNL     1       2.456   6.560  19.249  0.00  0.00    +0.000 A 
ATOM      5  C   UNL     1       2.445   7.550  18.264  0.00  0.00    +0.000 A 
ATOM      6  C   UNL     1       1.853   8.783  18.523  0.00  0.00    +0.000 A 
ENDROOT
BRANCH   4   7
ATOM      7  C   UNL     1       2.877   5.136  18.915  0.00  0.00    +0.000 C 
ATOM      8  O   UNL     1       2.206   4.231  19.355  0.00  0.00    +0.000 OA
ATOM      9  N   UNL     1       3.842   5.001  17.961  0.00  0.00    +0.000 N 
ATOM     10  C   UNL     1       3.748   3.913  16.988  0.00  0.00    +0.000 C 
ATOM     11  C   UNL     1       4.847   4.244  15.987  0.00  0.00    +0.000 C 
ATOM     12  C   UNL     1       5.888   4.612  17.001  0.00  0.00    +0.000 A 
ATOM     13  C   UNL     1       7.258   4.464  17.016  0.00  0.00    +0.000 A 
ATOM     14  C   UNL     1       7.953   4.870  18.162  0.00  0.00    +0.000 A 
ATOM     15  C   UNL     1       7.286   5.459  19.253  0.00  0.00    +0.000 A 
ATOM     16  C   UNL     1       5.903   5.642  19.243  0.00  0.00    +0.000 A 
ATOM     17  C   UNL     1       5.227   5.185  18.133  0.00  0.00    +0.000 A 
ENDBRANCH   4   7
BRANCH   1  21
ATOM     18  C   UNL     1       0.175  12.399  19.753  0.00  0.00    +0.000 A 
ATOM     19  N   UNL     1      -0.860  11.904  20.394  0.00  0.00    +0.000 NA
ATOM     20  N   UNL     1      -0.641  10.544  20.545  0.00  0.00    +0.000 NA
ATOM     21  C   UNL     1       0.529  10.305  19.976  0.00  0.00    +0.000 A 
ATOM     22  O   UNL     1       1.107  11.442  19.462  0.00  0.00    +0.000 OA
BRANCH  18  27
ATOM     23  C   UNL     1       1.314  17.819  18.042  0.00  0.00    +0.000 C 
ATOM     24  C   UNL     1       1.029  16.414  18.507  0.00  0.00    +0.000 A 
ATOM     25  C   UNL     1       2.031  15.448  18.547  0.00  0.00    +0.000 A 
ATOM     26  C   UNL     1       1.753  14.121  18.947  0.00  0.00    +0.000 A 
ATOM     27  C   UNL     1       0.463  13.771  19.330  0.00  0.00    +0.000 A 
ATOM     28  C   UNL     1      -0.555  14.744  19.300  0.00  0.00    +0.000 A 
ATOM     29  C   UNL     1      -0.272  16.050  18.883  0.00  0.00    +0.000 A 
ENDBRANCH  18  27
ENDBRANCH   1  21
TORSDOF 3
ENDMDL
MODEL 8
REMARK VINA RESULT:      -9.0      1.621      2.708
REMARK  Name = 
REMARK  4 active torsions:
REMARK  status: ('A' for Active; 'I' for Inactive)
REMARK    1  A    between atoms: C_1  and  C_2
REMARK    2  A    between atoms: C_5  and  C_6
REMARK    3  A    between atoms: C_9  and  C_10
REMARK    4  A    between atoms: C_13  and  C_14
REMARK                            x       y       z     vdW  Elec       q    Type
REMARK                         _______ _______ _______ _____ _____    ______ ____
ROOT
ATOM      1  C   UNL     1       1.168   9.396  19.173  0.00  0.00    +0.000 A 
ATOM      2  C   UNL     1       1.519   8.314  19.993  0.00  0.00    +0.000 A 
ATOM      3  C   UNL     1       2.413   7.338  19.546  0.00  0.00    +0.000 A 
ATOM      4  C   UNL     1       2.983   7.439  18.272  0.00  0.00    +0.000 A 
ATOM      5  C   UNL     1       2.672   8.534  17.464  0.00  0.00    +0.000 A 
ATOM      6  C   UNL     1       1.779   9.502  17.916  0.00  0.00    +0.000 A 
ENDROOT
BRANCH   4   7
ATOM      7  C   UNL     1       3.760   6.256  17.713  0.00  0.00    +0.000 C 
ATOM      8  O   UNL     1       4.407   6.431  16.706  0.00  0.00    +0.000 OA
ATOM      9  N   UNL     1       3.848   5.158  18.517  0.00  0.00    +0.000 N 
ATOM     10  C   UNL     1       5.099   4.403  18.574  0.00  0.00    +0.000 C 
ATOM     11  C   UNL     1       4.868   3.431  19.724  0.00  0.00    +0.000 C 
ATOM     12  C   UNL     1       3.469   3.051  19.341  0.00  0.00    +0.000 A 
ATOM     13  C   UNL     1       2.766   1.872  19.458  0.00  0.00    +0.000 A 
ATOM     14  C   UNL     1       1.465   1.826  18.941  0.00  0.00    +0.000 A 
ATOM     15  C   UNL     1       0.866   2.960  18.361  0.00  0.00    +0.000 A 
ATOM     16  C   UNL     1       1.554   4.170  18.261  0.00  0.00    +0.000 A 
ATOM     17  C   UNL     1       2.852   4.183  18.721  0.00  0.00    +0.000 A 
ENDBRANCH   4   7
BRANCH   1  21
ATOM     18  C   UNL     1      -1.745  11.338  19.466  0.00  0.00    +0.000 A 
ATOM     19  N   UNL     1      -1.162  11.765  20.565  0.00  0.00    +0.000 NA
ATOM     20  N   UNL     1       0.068  11.132  20.652  0.00  0.00    +0.000 NA
ATOM     21  C   UNL     1       0.146  10.353  19.586  0.00  0.00    +0.000 A 
ATOM     22  O   UNL     1      -0.968  10.444  18.784  0.00  0.00    +0.000 OA
BRANCH  18  27
ATOM     23  C   UNL     1      -6.897  12.704  17.188  0.00  0.00    +0.000 C 
ATOM     24  C   UNL     1      -5.568  12.332  17.793  0.00  0.00    +0.000 A 
ATOM     25  C   UNL     1      -5.252  12.665  19.109  0.00  0.00    +0.000 A 
ATOM     26  C   UNL     1      -3.991  12.349  19.661  0.00  0.00    +0.000 A 
ATOM     27  C   UNL     1      -3.049  11.674  18.892  0.00  0.00    +0.000 A 
ATOM     28  C   UNL     1      -3.364  11.325  17.564  0.00  0.00    +0.000 A 
ATOM     29  C   UNL     1      -4.609  11.661  17.020  0.00  0.00    +0.000 A 
ENDBRANCH  18  27
ENDBRANCH   1  21
TORSDOF 3
ENDMDL
MODEL 9
REMARK VINA RESULT:      -9.0      2.960      3.617
REMARK  Name = 
REMARK  4 active torsions:
REMARK  status: ('A' for Active; 'I' for Inactive)
REMARK    1  A    between atoms: C_1  and  C_2
REMARK    2  A    between atoms: C_5  and  C_6
REMARK    3  A    between atoms: C_9  and  C_10
REMARK    4  A    between atoms: C_13  and  C_14
REMARK                            x       y       z     vdW  Elec       q    Type
REMARK                         _______ _______ _______ _____ _____    ______ ____
ROOT
ATOM      1  C   UNL     1       1.454   8.319  20.220  0.00  0.00    +0.000 A 
ATOM      2  C   UNL     1       1.912   8.195  18.901  0.00  0.00    +0.000 A 
ATOM      3  C   UNL     1       2.317   6.956  18.398  0.00  0.00    +0.000 A 
ATOM      4  C   UNL     1       2.253   5.816  19.206  0.00  0.00    +0.000 A 
ATOM      5  C   UNL     1       1.759   5.921  20.507  0.00  0.00    +0.000 A 
ATOM      6  C   UNL     1       1.359   7.159  21.003  0.00  0.00    +0.000 A 
ENDROOT
BRANCH   4   7
ATOM      7  C   UNL     1       2.916   4.532  18.727  0.00  0.00    +0.000 C 
ATOM      8  O   UNL     1       2.378   3.483  19.002  0.00  0.00    +0.000 OA
ATOM      9  N   UNL     1       3.935   4.675  17.833  0.00  0.00    +0.000 N 
ATOM     10  C   UNL     1       4.066   3.727  16.728  0.00  0.00    +0.000 C 
ATOM     11  C   UNL     1       5.146   4.354  15.855  0.00  0.00    +0.000 C 
ATOM     12  C   UNL     1       6.063   4.739  16.979  0.00  0.00    +0.000 A 
ATOM     13  C   UNL     1       7.436   4.802  17.071  0.00  0.00    +0.000 A 
ATOM     14  C   UNL     1       7.999   5.153  18.304  0.00  0.00    +0.000 A 
ATOM     15  C   UNL     1       7.192   5.479  19.411  0.00  0.00    +0.000 A 
ATOM     16  C   UNL     1       5.800   5.448  19.326  0.00  0.00    +0.000 A 
ATOM     17  C   UNL     1       5.263   5.046  18.124  0.00  0.00    +0.000 A 
ENDBRANCH   4   7
BRANCH   1  21
ATOM     18  C   UNL     1       0.683  11.710  20.717  0.00  0.00    +0.000 A 
ATOM     19  N   UNL     1       0.570  11.339  21.974  0.00  0.00    +0.000 NA
ATOM     20  N   UNL     1       0.868   9.987  22.033  0.00  0.00    +0.000 NA
ATOM     21  C   UNL     1       1.143   9.626  20.790  0.00  0.00    +0.000 A 
ATOM     22  O   UNL     1       1.054  10.675  19.905  0.00  0.00    +0.000 OA
BRANCH  18  27
ATOM     23  C   UNL     1      -0.111  16.908  18.278  0.00  0.00    +0.000 C 
ATOM     24  C   UNL     1       0.079  15.548  18.897  0.00  0.00    +0.000 A 
ATOM     25  C   UNL     1      -0.895  14.982  19.716  0.00  0.00    +0.000 A 
ATOM     26  C   UNL     1      -0.696  13.723  20.326  0.00  0.00    +0.000 A 
ATOM     27  C   UNL     1       0.480  13.019  20.093  0.00  0.00    +0.000 A 
ATOM     28  C   UNL     1       1.467  13.580  19.259  0.00  0.00    +0.000 A 
ATOM     29  C   UNL     1       1.269  14.837  18.676  0.00  0.00    +0.000 A 
ENDBRANCH  18  27
ENDBRANCH   1  21
TORSDOF 3
ENDMDL
