MODEL 1
REMARK VINA RESULT:      -7.9      0.000      0.000
REMARK  Name = 
REMARK  3 active torsions:
REMARK  status: ('A' for Active; 'I' for Inactive)
REMARK    1  A    between atoms: C_2  and  C_4
REMARK    2  A    between atoms: N_16  and  C_17
REMARK    3  A    between atoms: C_17  and  C_18
REMARK                            x       y       z     vdW  Elec       q    Type
REMARK                         _______ _______ _______ _____ _____    ______ ____
ROOT
ATOM      1  C   UNL     1       0.217  10.493  21.447  0.00  0.00    +0.000 A 
ATOM      2  N   UNL     1      -0.086  11.740  21.123  0.00  0.00    +0.000 NA
ATOM      3  N   UNL     1       0.353  11.964  19.841  0.00  0.00    +0.000 NA
ATOM      4  C   UNL     1       0.906  10.851  19.412  0.00  0.00    +0.000 A 
ATOM      5  C   UNL     1       1.543  10.514  18.209  0.00  0.00    +0.000 A 
ATOM      6  C   UNL     1       2.017   9.273  18.057  0.00  0.00    +0.000 A 
ATOM      7  C   UNL     1       1.826   8.263  19.160  0.00  0.00    +0.000 A 
ATOM      8  N   UNL     1       2.257   6.962  18.968  0.00  0.00    +0.000 N 
ATOM      9  C   UNL     1       2.137   5.912  19.985  0.00  0.00    +0.000 C 
ATOM     10  C   UNL     1       2.849   4.696  19.367  0.00  0.00    +0.000 C 
ATOM     11  C   UNL     1       4.350   4.679  19.683  0.00  0.00    +0.000 C 
ATOM     12  C   UNL     1       5.147   3.794  18.719  0.00  0.00    +0.000 C 
ATOM     13  N   UNL     1       4.918   4.146  17.306  0.00  0.00    +0.000 NA
ATOM     14  C   UNL     1       3.486   4.065  16.975  0.00  0.00    +0.000 C 
ATOM     15  C   UNL     1       2.594   4.905  17.877  0.00  0.00    +0.000 C 
ATOM     16  C   UNL     1       2.773   6.413  17.715  0.00  0.00    +0.000 C 
ATOM     17  N   UNL     1       1.260   8.583  20.298  0.00  0.00    +0.000 NA
ATOM     18  N   UNL     1       0.828   9.876  20.386  0.00  0.00    +0.000 N 
ENDROOT
BRANCH   1  20
ATOM     19  F   UNL     1      -0.722  10.606  23.601  0.00  0.00    +0.000 F 
ATOM     20  C   UNL     1      -0.030   9.822  22.730  0.00  0.00    +0.000 C 
ATOM     21  F   UNL     1      -0.751   8.676  22.580  0.00  0.00    +0.000 F 
ENDBRANCH   1  20
BRANCH  13  22
ATOM     22  C   UNL     1       5.652   3.232  16.396  0.00  0.00    +0.000 C 
BRANCH  22  23
ATOM     23  C   UNL     1       6.206   3.871  15.142  0.00  0.00    +0.000 A 
ATOM     24  C   UNL     1       7.114   4.938  15.237  0.00  0.00    +0.000 A 
ATOM     25  C   UNL     1       7.646   5.524  14.087  0.00  0.00    +0.000 A 
ATOM     26  C   UNL     1       7.280   5.047  12.831  0.00  0.00    +0.000 A 
ATOM     27  C   UNL     1       6.386   3.983  12.723  0.00  0.00    +0.000 A 
ATOM     28  C   UNL     1       5.849   3.397  13.873  0.00  0.00    +0.000 A 
ENDBRANCH  22  23
ENDBRANCH  13  22
TORSDOF 3
ENDMDL
MODEL 2
REMARK VINA RESULT:      -7.8      0.639      1.162
REMARK  Name = 
REMARK  3 active torsions:
REMARK  status: ('A' for Active; 'I' for Inactive)
REMARK    1  A    between atoms: C_2  and  C_4
REMARK    2  A    between atoms: N_16  and  C_17
REMARK    3  A    between atoms: C_17  and  C_18
REMARK                            x       y       z     vdW  Elec       q    Type
REMARK                         _______ _______ _______ _____ _____    ______ ____
ROOT
ATOM      1  C   UNL     1       0.393  10.343  21.453  0.00  0.00    +0.000 A 
ATOM      2  N   UNL     1      -0.151  11.493  21.089  0.00  0.00    +0.000 NA
ATOM      3  N   UNL     1      -0.023  11.610  19.727  0.00  0.00    +0.000 NA
ATOM      4  C   UNL     1       0.588  10.531  19.292  0.00  0.00    +0.000 A 
ATOM      5  C   UNL     1       1.005  10.130  18.015  0.00  0.00    +0.000 A 
ATOM      6  C   UNL     1       1.615   8.948  17.878  0.00  0.00    +0.000 A 
ATOM      7  C   UNL     1       1.806   8.065  19.086  0.00  0.00    +0.000 A 
ATOM      8  N   UNL     1       2.375   6.814  18.925  0.00  0.00    +0.000 N 
ATOM      9  C   UNL     1       2.623   5.889  20.038  0.00  0.00    +0.000 C 
ATOM     10  C   UNL     1       3.363   4.704  19.393  0.00  0.00    +0.000 C 
ATOM     11  C   UNL     1       4.883   4.912  19.370  0.00  0.00    +0.000 C 
ATOM     12  C   UNL     1       5.586   4.020  18.340  0.00  0.00    +0.000 C 
ATOM     13  N   UNL     1       5.021   4.165  16.986  0.00  0.00    +0.000 NA
ATOM     14  C   UNL     1       3.579   3.868  16.989  0.00  0.00    +0.000 C 
ATOM     15  C   UNL     1       2.779   4.695  17.984  0.00  0.00    +0.000 C 
ATOM     16  C   UNL     1       2.696   6.183  17.647  0.00  0.00    +0.000 C 
ATOM     17  N   UNL     1       1.446   8.449  20.285  0.00  0.00    +0.000 NA
ATOM     18  N   UNL     1       0.856   9.680  20.346  0.00  0.00    +0.000 N 
ENDROOT
BRANCH   1  20
ATOM     19  F   UNL     1      -0.411   8.849  23.084  0.00  0.00    +0.000 F 
ATOM     20  C   UNL     1       0.518   9.808  22.816  0.00  0.00    +0.000 C 
ATOM     21  F   UNL     1       1.736   9.242  23.036  0.00  0.00    +0.000 F 
ENDBRANCH   1  20
BRANCH  13  22
ATOM     22  C   UNL     1       5.678   3.244  16.026  0.00  0.00    +0.000 C 
BRANCH  22  23
ATOM     23  C   UNL     1       6.314   3.906  14.824  0.00  0.00    +0.000 A 
ATOM     24  C   UNL     1       6.002   3.463  13.528  0.00  0.00    +0.000 A 
ATOM     25  C   UNL     1       6.569   4.077  12.410  0.00  0.00    +0.000 A 
ATOM     26  C   UNL     1       7.449   5.143  12.575  0.00  0.00    +0.000 A 
ATOM     27  C   UNL     1       7.762   5.599  13.855  0.00  0.00    +0.000 A 
ATOM     28  C   UNL     1       7.198   4.983  14.976  0.00  0.00    +0.000 A 
ENDBRANCH  22  23
ENDBRANCH  13  22
TORSDOF 3
ENDMDL
MODEL 3
REMARK VINA RESULT:      -7.8      1.093      1.312
REMARK  Name = 
REMARK  3 active torsions:
REMARK  status: ('A' for Active; 'I' for Inactive)
REMARK    1  A    between atoms: C_2  and  C_4
REMARK    2  A    between atoms: N_16  and  C_17
REMARK    3  A    between atoms: C_17  and  C_18
REMARK                            x       y       z     vdW  Elec       q    Type
REMARK                         _______ _______ _______ _____ _____    ______ ____
ROOT
ATOM      1  C   UNL     1       0.046   9.671  21.164  0.00  0.00    +0.000 A 
ATOM      2  N   UNL     1      -0.663  10.729  20.806  0.00  0.00    +0.000 NA
ATOM      3  N   UNL     1      -0.385  11.002  19.489  0.00  0.00    +0.000 NA
ATOM      4  C   UNL     1       0.480  10.103  19.073  0.00  0.00    +0.000 A 
ATOM      5  C   UNL     1       1.132   9.915  17.846  0.00  0.00    +0.000 A 
ATOM      6  C   UNL     1       1.977   8.888  17.717  0.00  0.00    +0.000 A 
ATOM      7  C   UNL     1       2.182   7.942  18.874  0.00  0.00    +0.000 A 
ATOM      8  N   UNL     1       3.005   6.842  18.710  0.00  0.00    +0.000 N 
ATOM      9  C   UNL     1       3.285   5.876  19.778  0.00  0.00    +0.000 C 
ATOM     10  C   UNL     1       4.324   4.920  19.167  0.00  0.00    +0.000 C 
ATOM     11  C   UNL     1       5.762   5.410  19.382  0.00  0.00    +0.000 C 
ATOM     12  C   UNL     1       6.757   4.772  18.406  0.00  0.00    +0.000 C 
ATOM     13  N   UNL     1       6.356   4.940  16.997  0.00  0.00    +0.000 NA
ATOM     14  C   UNL     1       5.014   4.379  16.768  0.00  0.00    +0.000 C 
ATOM     15  C   UNL     1       3.943   4.940  17.691  0.00  0.00    +0.000 C 
ATOM     16  C   UNL     1       3.609   6.411  17.451  0.00  0.00    +0.000 C 
ATOM     17  N   UNL     1       1.599   8.133  20.032  0.00  0.00    +0.000 NA
ATOM     18  N   UNL     1       0.773   9.219  20.092  0.00  0.00    +0.000 N 
ENDROOT
BRANCH   1  20
ATOM     19  F   UNL     1       1.317   9.170  23.080  0.00  0.00    +0.000 F 
ATOM     20  C   UNL     1       0.097   9.038  22.488  0.00  0.00    +0.000 C 
ATOM     21  F   UNL     1      -0.812   9.575  23.349  0.00  0.00    +0.000 F 
ENDBRANCH   1  20
BRANCH  13  22
ATOM     22  C   UNL     1       7.303   4.258  16.082  0.00  0.00    +0.000 C 
BRANCH  22  23
ATOM     23  C   UNL     1       6.923   4.284  14.618  0.00  0.00    +0.000 A 
ATOM     24  C   UNL     1       7.677   5.042  13.708  0.00  0.00    +0.000 A 
ATOM     25  C   UNL     1       7.346   5.060  12.351  0.00  0.00    +0.000 A 
ATOM     26  C   UNL     1       6.263   4.316  11.890  0.00  0.00    +0.000 A 
ATOM     27  C   UNL     1       5.511   3.552  12.782  0.00  0.00    +0.000 A 
ATOM     28  C   UNL     1       5.838   3.536  14.140  0.00  0.00    +0.000 A 
ENDBRANCH  22  23
ENDBRANCH  13  22
TORSDOF 3
ENDMDL
MODEL 4
REMARK VINA RESULT:      -7.6      0.924      1.328
REMARK  Name = 
REMARK  3 active torsions:
REMARK  status: ('A' for Active; 'I' for Inactive)
REMARK    1  A    between atoms: C_2  and  C_4
REMARK    2  A    between atoms: N_16  and  C_17
REMARK    3  A    between atoms: C_17  and  C_18
REMARK                            x       y       z     vdW  Elec       q    Type
REMARK                         _______ _______ _______ _____ _____    ______ ____
ROOT
ATOM      1  C   UNL     1      -0.083  10.017  21.004  0.00  0.00    +0.000 A 
ATOM      2  N   UNL     1      -0.625  11.183  20.693  0.00  0.00    +0.000 NA
ATOM      3  N   UNL     1      -0.133  11.567  19.470  0.00  0.00    +0.000 NA
ATOM      4  C   UNL     1       0.690  10.627  19.061  0.00  0.00    +0.000 A 
ATOM      5  C   UNL     1       1.491  10.502  17.917  0.00  0.00    +0.000 A 
ATOM      6  C   UNL     1       2.240   9.405  17.772  0.00  0.00    +0.000 A 
ATOM      7  C   UNL     1       2.179   8.318  18.816  0.00  0.00    +0.000 A 
ATOM      8  N   UNL     1       2.904   7.155  18.624  0.00  0.00    +0.000 N 
ATOM      9  C   UNL     1       2.929   6.049  19.589  0.00  0.00    +0.000 C 
ATOM     10  C   UNL     1       3.945   5.054  19.004  0.00  0.00    +0.000 C 
ATOM     11  C   UNL     1       5.378   5.347  19.468  0.00  0.00    +0.000 C 
ATOM     12  C   UNL     1       6.436   4.710  18.559  0.00  0.00    +0.000 C 
ATOM     13  N   UNL     1       6.262   5.080  17.143  0.00  0.00    +0.000 NA
ATOM     14  C   UNL     1       4.919   4.708  16.668  0.00  0.00    +0.000 C 
ATOM     15  C   UNL     1       3.786   5.283  17.505  0.00  0.00    +0.000 C 
ATOM     16  C   UNL     1       3.639   6.800  17.412  0.00  0.00    +0.000 C 
ATOM     17  N   UNL     1       1.457   8.445  19.901  0.00  0.00    +0.000 NA
ATOM     18  N   UNL     1       0.743   9.606  19.989  0.00  0.00    +0.000 N 
ENDROOT
BRANCH   1  20
ATOM     19  F   UNL     1      -1.067   9.894  23.138  0.00  0.00    +0.000 F 
ATOM     20  C   UNL     1      -0.289   9.239  22.233  0.00  0.00    +0.000 C 
ATOM     21  F   UNL     1      -0.898   8.045  21.990  0.00  0.00    +0.000 F 
ENDBRANCH   1  20
BRANCH  13  22
ATOM     22  C   UNL     1       7.259   4.399  16.281  0.00  0.00    +0.000 C 
BRANCH  22  23
ATOM     23  C   UNL     1       6.920   4.352  14.808  0.00  0.00    +0.000 A 
ATOM     24  C   UNL     1       5.858   3.554  14.354  0.00  0.00    +0.000 A 
ATOM     25  C   UNL     1       5.525   3.516  12.999  0.00  0.00    +0.000 A 
ATOM     26  C   UNL     1       6.245   4.280  12.084  0.00  0.00    +0.000 A 
ATOM     27  C   UNL     1       7.297   5.084  12.522  0.00  0.00    +0.000 A 
ATOM     28  C   UNL     1       7.635   5.120  13.878  0.00  0.00    +0.000 A 
ENDBRANCH  22  23
ENDBRANCH  13  22
TORSDOF 3
ENDMDL
MODEL 5
REMARK VINA RESULT:      -7.5      3.557      9.677
REMARK  Name = 
REMARK  3 active torsions:
REMARK  status: ('A' for Active; 'I' for Inactive)
REMARK    1  A    between atoms: C_2  and  C_4
REMARK    2  A    between atoms: N_16  and  C_17
REMARK    3  A    between atoms: C_17  and  C_18
REMARK                            x       y       z     vdW  Elec       q    Type
REMARK                         _______ _______ _______ _____ _____    ______ ____
ROOT
ATOM      1  C   UNL     1       4.390   4.266  18.215  0.00  0.00    +0.000 A 
ATOM      2  N   UNL     1       4.479   3.142  18.908  0.00  0.00    +0.000 NA
ATOM      3  N   UNL     1       3.685   3.266  20.021  0.00  0.00    +0.000 NA
ATOM      4  C   UNL     1       3.127   4.455  19.980  0.00  0.00    +0.000 A 
ATOM      5  C   UNL     1       2.262   5.126  20.857  0.00  0.00    +0.000 A 
ATOM      6  C   UNL     1       1.852   6.358  20.539  0.00  0.00    +0.000 A 
ATOM      7  C   UNL     1       2.297   6.979  19.239  0.00  0.00    +0.000 A 
ATOM      8  N   UNL     1       1.813   8.226  18.885  0.00  0.00    +0.000 N 
ATOM      9  C   UNL     1       2.200   8.924  17.653  0.00  0.00    +0.000 C 
ATOM     10  C   UNL     1       1.511  10.296  17.758  0.00  0.00    +0.000 C 
ATOM     11  C   UNL     1       2.380  11.328  18.488  0.00  0.00    +0.000 C 
ATOM     12  C   UNL     1       1.567  12.513  19.023  0.00  0.00    +0.000 C 
ATOM     13  N   UNL     1       0.440  12.088  19.873  0.00  0.00    +0.000 NA
ATOM     14  C   UNL     1      -0.450  11.174  19.139  0.00  0.00    +0.000 C 
ATOM     15  C   UNL     1       0.255   9.959  18.556  0.00  0.00    +0.000 C 
ATOM     16  C   UNL     1       0.776   8.970  19.597  0.00  0.00    +0.000 C 
ATOM     17  N   UNL     1       3.130   6.369  18.433  0.00  0.00    +0.000 NA
ATOM     18  N   UNL     1       3.524   5.127  18.840  0.00  0.00    +0.000 N 
ENDROOT
BRANCH   1  20
ATOM     19  F   UNL     1       6.405   4.241  17.000  0.00  0.00    +0.000 F 
ATOM     20  C   UNL     1       5.092   4.602  16.969  0.00  0.00    +0.000 C 
ATOM     21  F   UNL     1       4.544   3.983  15.888  0.00  0.00    +0.000 F 
ENDBRANCH   1  20
BRANCH  13  22
ATOM     22  C   UNL     1      -0.365  13.251  20.323  0.00  0.00    +0.000 C 
BRANCH  22  23
ATOM     23  C   UNL     1      -1.412  12.949  21.371  0.00  0.00    +0.000 A 
ATOM     24  C   UNL     1      -2.704  13.487  21.252  0.00  0.00    +0.000 A 
ATOM     25  C   UNL     1      -3.684  13.201  22.204  0.00  0.00    +0.000 A 
ATOM     26  C   UNL     1      -3.385  12.371  23.281  0.00  0.00    +0.000 A 
ATOM     27  C   UNL     1      -2.109  11.824  23.408  0.00  0.00    +0.000 A 
ATOM     28  C   UNL     1      -1.125  12.112  22.458  0.00  0.00    +0.000 A 
ENDBRANCH  22  23
ENDBRANCH  13  22
TORSDOF 3
ENDMDL
MODEL 6
REMARK VINA RESULT:      -7.2      3.570     10.001
REMARK  Name = 
REMARK  3 active torsions:
REMARK  status: ('A' for Active; 'I' for Inactive)
REMARK    1  A    between atoms: C_2  and  C_4
REMARK    2  A    between atoms: N_16  and  C_17
REMARK    3  A    between atoms: C_17  and  C_18
REMARK                            x       y       z     vdW  Elec       q    Type
REMARK                         _______ _______ _______ _____ _____    ______ ____
ROOT
ATOM      1  C   UNL     1       4.030   5.381  17.925  0.00  0.00    +0.000 A 
ATOM      2  N   UNL     1       4.139   4.170  18.447  0.00  0.00    +0.000 NA
ATOM      3  N   UNL     1       3.370   4.128  19.584  0.00  0.00    +0.000 NA
ATOM      4  C   UNL     1       2.807   5.308  19.726  0.00  0.00    +0.000 A 
ATOM      5  C   UNL     1       1.961   5.841  20.709  0.00  0.00    +0.000 A 
ATOM      6  C   UNL     1       1.539   7.102  20.581  0.00  0.00    +0.000 A 
ATOM      7  C   UNL     1       1.953   7.907  19.374  0.00  0.00    +0.000 A 
ATOM      8  N   UNL     1       1.456   9.188  19.213  0.00  0.00    +0.000 N 
ATOM      9  C   UNL     1       1.813  10.058  18.086  0.00  0.00    +0.000 C 
ATOM     10  C   UNL     1       1.122  11.396  18.402  0.00  0.00    +0.000 C 
ATOM     11  C   UNL     1       2.004  12.319  19.252  0.00  0.00    +0.000 C 
ATOM     12  C   UNL     1       1.200  13.409  19.970  0.00  0.00    +0.000 C 
ATOM     13  N   UNL     1       0.094  12.860  20.775  0.00  0.00    +0.000 NA
ATOM     14  C   UNL     1      -0.810  12.055  19.937  0.00  0.00    +0.000 C 
ATOM     15  C   UNL     1      -0.114  10.940  19.170  0.00  0.00    +0.000 C 
ATOM     16  C   UNL     1       0.434   9.816  20.047  0.00  0.00    +0.000 C 
ATOM     17  N   UNL     1       2.769   7.423  18.470  0.00  0.00    +0.000 NA
ATOM     18  N   UNL     1       3.176   6.138  18.686  0.00  0.00    +0.000 N 
ENDROOT
BRANCH   1  20
ATOM     19  F   UNL     1       5.834   6.594  17.023  0.00  0.00    +0.000 F 
ATOM     20  C   UNL     1       4.702   5.897  16.725  0.00  0.00    +0.000 C 
ATOM     21  F   UNL     1       5.073   4.900  15.875  0.00  0.00    +0.000 F 
ENDBRANCH   1  20
BRANCH  13  22
ATOM     22  C   UNL     1      -0.703  13.941  21.405  0.00  0.00    +0.000 C 
BRANCH  22  23
ATOM     23  C   UNL     1      -2.022  13.509  22.006  0.00  0.00    +0.000 A 
ATOM     24  C   UNL     1      -2.042  12.633  23.104  0.00  0.00    +0.000 A 
ATOM     25  C   UNL     1      -3.253  12.241  23.679  0.00  0.00    +0.000 A 
ATOM     26  C   UNL     1      -4.454  12.724  23.167  0.00  0.00    +0.000 A 
ATOM     27  C   UNL     1      -4.448  13.601  22.083  0.00  0.00    +0.000 A 
ATOM     28  C   UNL     1      -3.238  13.992  21.503  0.00  0.00    +0.000 A 
ENDBRANCH  22  23
ENDBRANCH  13  22
TORSDOF 3
ENDMDL
MODEL 7
REMARK VINA RESULT:      -7.1      3.888      5.954
REMARK  Name = 
REMARK  3 active torsions:
REMARK  status: ('A' for Active; 'I' for Inactive)
REMARK    1  A    between atoms: C_2  and  C_4
REMARK    2  A    between atoms: N_16  and  C_17
REMARK    3  A    between atoms: C_17  and  C_18
REMARK                            x       y       z     vdW  Elec       q    Type
REMARK                         _______ _______ _______ _____ _____    ______ ____
ROOT
ATOM      1  C   UNL     1       0.460  16.181  19.933  0.00  0.00    +0.000 A 
ATOM      2  N   UNL     1       1.063  17.311  19.602  0.00  0.00    +0.000 NA
ATOM      3  N   UNL     1       2.178  16.996  18.864  0.00  0.00    +0.000 NA
ATOM      4  C   UNL     1       2.227  15.686  18.759  0.00  0.00    +0.000 A 
ATOM      5  C   UNL     1       3.148  14.819  18.154  0.00  0.00    +0.000 A 
ATOM      6  C   UNL     1       2.925  13.503  18.210  0.00  0.00    +0.000 A 
ATOM      7  C   UNL     1       1.680  12.986  18.886  0.00  0.00    +0.000 A 
ATOM      8  N   UNL     1       1.421  11.626  18.879  0.00  0.00    +0.000 N 
ATOM      9  C   UNL     1       0.250  11.023  19.525  0.00  0.00    +0.000 C 
ATOM     10  C   UNL     1       0.458   9.508  19.355  0.00  0.00    +0.000 C 
ATOM     11  C   UNL     1       1.271   8.900  20.505  0.00  0.00    +0.000 C 
ATOM     12  C   UNL     1       1.892   7.547  20.140  0.00  0.00    +0.000 C 
ATOM     13  N   UNL     1       2.700   7.609  18.908  0.00  0.00    +0.000 NA
ATOM     14  C   UNL     1       1.892   8.098  17.779  0.00  0.00    +0.000 C 
ATOM     15  C   UNL     1       1.219   9.439  18.036  0.00  0.00    +0.000 C 
ATOM     16  C   UNL     1       2.184  10.619  18.144  0.00  0.00    +0.000 C 
ATOM     17  N   UNL     1       0.833  13.790  19.479  0.00  0.00    +0.000 NA
ATOM     18  N   UNL     1       1.145  15.118  19.402  0.00  0.00    +0.000 N 
ENDROOT
BRANCH   1  20
ATOM     19  F   UNL     1      -1.101  17.176  21.386  0.00  0.00    +0.000 F 
ATOM     20  C   UNL     1      -0.752  16.024  20.748  0.00  0.00    +0.000 C 
ATOM     21  F   UNL     1      -1.828  15.651  20.002  0.00  0.00    +0.000 F 
ENDBRANCH   1  20
BRANCH  13  22
ATOM     22  C   UNL     1       3.234   6.273  18.546  0.00  0.00    +0.000 C 
BRANCH  22  23
ATOM     23  C   UNL     1       2.461   5.094  19.093  0.00  0.00    +0.000 A 
ATOM     24  C   UNL     1       2.554   4.761  20.454  0.00  0.00    +0.000 A 
ATOM     25  C   UNL     1       1.831   3.685  20.974  0.00  0.00    +0.000 A 
ATOM     26  C   UNL     1       1.004   2.936  20.141  0.00  0.00    +0.000 A 
ATOM     27  C   UNL     1       0.896   3.261  18.789  0.00  0.00    +0.000 A 
ATOM     28  C   UNL     1       1.622   4.335  18.266  0.00  0.00    +0.000 A 
ENDBRANCH  22  23
ENDBRANCH  13  22
TORSDOF 3
ENDMDL
MODEL 8
REMARK VINA RESULT:      -7.1      3.316      9.055
REMARK  Name = 
REMARK  3 active torsions:
REMARK  status: ('A' for Active; 'I' for Inactive)
REMARK    1  A    between atoms: C_2  and  C_4
REMARK    2  A    between atoms: N_16  and  C_17
REMARK    3  A    between atoms: C_17  and  C_18
REMARK                            x       y       z     vdW  Elec       q    Type
REMARK                         _______ _______ _______ _____ _____    ______ ____
ROOT
ATOM      1  C   UNL     1       2.938   3.833  20.203  0.00  0.00    +0.000 A 
ATOM      2  N   UNL     1       3.745   3.038  19.520  0.00  0.00    +0.000 NA
ATOM      3  N   UNL     1       4.218   3.740  18.439  0.00  0.00    +0.000 NA
ATOM      4  C   UNL     1       3.695   4.946  18.490  0.00  0.00    +0.000 A 
ATOM      5  C   UNL     1       3.797   6.058  17.642  0.00  0.00    +0.000 A 
ATOM      6  C   UNL     1       3.135   7.174  17.963  0.00  0.00    +0.000 A 
ATOM      7  C   UNL     1       2.330   7.223  19.237  0.00  0.00    +0.000 A 
ATOM      8  N   UNL     1       1.704   8.403  19.597  0.00  0.00    +0.000 N 
ATOM      9  C   UNL     1       0.882   8.548  20.804  0.00  0.00    +0.000 C 
ATOM     10  C   UNL     1       0.315   9.975  20.712  0.00  0.00    +0.000 C 
ATOM     11  C   UNL     1      -1.007  10.027  19.937  0.00  0.00    +0.000 C 
ATOM     12  C   UNL     1      -1.336  11.433  19.422  0.00  0.00    +0.000 C 
ATOM     13  N   UNL     1      -0.242  12.014  18.624  0.00  0.00    +0.000 NA
ATOM     14  C   UNL     1       1.005  12.057  19.403  0.00  0.00    +0.000 C 
ATOM     15  C   UNL     1       1.427  10.710  19.970  0.00  0.00    +0.000 C 
ATOM     16  C   UNL     1       1.859   9.689  18.919  0.00  0.00    +0.000 C 
ATOM     17  N   UNL     1       2.207   6.176  20.015  0.00  0.00    +0.000 NA
ATOM     18  N   UNL     1       2.890   5.067  19.605  0.00  0.00    +0.000 N 
ENDROOT
BRANCH   1  20
ATOM     19  F   UNL     1       0.870   3.233  21.150  0.00  0.00    +0.000 F 
ATOM     20  C   UNL     1       2.178   3.502  21.416  0.00  0.00    +0.000 C 
ATOM     21  F   UNL     1       2.679   2.408  22.053  0.00  0.00    +0.000 F 
ENDBRANCH   1  20
BRANCH  13  22
ATOM     22  C   UNL     1      -0.564  13.398  18.194  0.00  0.00    +0.000 C 
BRANCH  22  23
ATOM     23  C   UNL     1      -0.117  14.491  19.139  0.00  0.00    +0.000 A 
ATOM     24  C   UNL     1       1.060  15.211  18.876  0.00  0.00    +0.000 A 
ATOM     25  C   UNL     1       1.474  16.234  19.731  0.00  0.00    +0.000 A 
ATOM     26  C   UNL     1       0.714  16.552  20.853  0.00  0.00    +0.000 A 
ATOM     27  C   UNL     1      -0.461  15.851  21.121  0.00  0.00    +0.000 A 
ATOM     28  C   UNL     1      -0.875  14.824  20.269  0.00  0.00    +0.000 A 
ENDBRANCH  22  23
ENDBRANCH  13  22
TORSDOF 3
ENDMDL
MODEL 9
REMARK VINA RESULT:      -7.1      3.609      5.525
REMARK  Name = 
REMARK  3 active torsions:
REMARK  status: ('A' for Active; 'I' for Inactive)
REMARK    1  A    between atoms: C_2  and  C_4
REMARK    2  A    between atoms: N_16  and  C_17
REMARK    3  A    between atoms: C_17  and  C_18
REMARK                            x       y       z     vdW  Elec       q    Type
REMARK                         _______ _______ _______ _____ _____    ______ ____
ROOT
ATOM      1  C   UNL     1       1.139  16.546  20.053  0.00  0.00    +0.000 A 
ATOM      2  N   UNL     1       1.831  17.613  19.686  0.00  0.00    +0.000 NA
ATOM      3  N   UNL     1       2.857  17.195  18.874  0.00  0.00    +0.000 NA
ATOM      4  C   UNL     1       2.765  15.888  18.760  0.00  0.00    +0.000 A 
ATOM      5  C   UNL     1       3.551  14.939  18.091  0.00  0.00    +0.000 A 
ATOM      6  C   UNL     1       3.199  13.651  18.156  0.00  0.00    +0.000 A 
ATOM      7  C   UNL     1       1.955  13.256  18.912  0.00  0.00    +0.000 A 
ATOM      8  N   UNL     1       1.560  11.930  18.916  0.00  0.00    +0.000 N 
ATOM      9  C   UNL     1       0.379  11.441  19.637  0.00  0.00    +0.000 C 
ATOM     10  C   UNL     1       0.419   9.915  19.447  0.00  0.00    +0.000 C 
ATOM     11  C   UNL     1       1.240   9.215  20.537  0.00  0.00    +0.000 C 
ATOM     12  C   UNL     1       1.694   7.810  20.125  0.00  0.00    +0.000 C 
ATOM     13  N   UNL     1       2.421   7.803  18.842  0.00  0.00    +0.000 NA
ATOM     14  C   UNL     1       1.594   8.385  17.772  0.00  0.00    +0.000 C 
ATOM     15  C   UNL     1       1.080   9.784  18.079  0.00  0.00    +0.000 C 
ATOM     16  C   UNL     1       2.165  10.859  18.128  0.00  0.00    +0.000 C 
ATOM     17  N   UNL     1       1.236  14.136  19.564  0.00  0.00    +0.000 NA
ATOM     18  N   UNL     1       1.676  15.425  19.472  0.00  0.00    +0.000 N 
ENDROOT
BRANCH   1  20
ATOM     19  F   UNL     1       0.270  16.936  22.204  0.00  0.00    +0.000 F 
ATOM     20  C   UNL     1      -0.025  16.504  20.947  0.00  0.00    +0.000 C 
ATOM     21  F   UNL     1      -1.046  17.285  20.497  0.00  0.00    +0.000 F 
ENDBRANCH   1  20
BRANCH  13  22
ATOM     22  C   UNL     1       2.791   6.425  18.439  0.00  0.00    +0.000 C 
BRANCH  22  23
ATOM     23  C   UNL     1       4.271   6.180  18.247  0.00  0.00    +0.000 A 
ATOM     24  C   UNL     1       4.929   6.687  17.115  0.00  0.00    +0.000 A 
ATOM     25  C   UNL     1       6.298   6.483  16.937  0.00  0.00    +0.000 A 
ATOM     26  C   UNL     1       7.025   5.774  17.889  0.00  0.00    +0.000 A 
ATOM     27  C   UNL     1       6.387   5.271  19.022  0.00  0.00    +0.000 A 
ATOM     28  C   UNL     1       5.015   5.471  19.201  0.00  0.00    +0.000 A 
ENDBRANCH  22  23
ENDBRANCH  13  22
TORSDOF 3
ENDMDL
