MODEL 1
REMARK VINA RESULT:      -8.1      0.000      0.000
REMARK  Name = 
REMARK  4 active torsions:
REMARK  status: ('A' for Active; 'I' for Inactive)
REMARK    1  A    between atoms: C_2  and  C_3
REMARK    2  A    between atoms: C_3  and  N_4
REMARK    3  A    between atoms: N_15  and  C_16
REMARK    4  A    between atoms: C_21  and  C_22
REMARK                            x       y       z     vdW  Elec       q    Type
REMARK                         _______ _______ _______ _____ _____    ______ ____
ROOT
ATOM      1  O   UNL     1       1.985   8.952  17.226  0.00  0.00    +0.000 OA
ATOM      2  C   UNL     1       1.736   8.963  18.434  0.00  0.00    +0.000 C 
ATOM      3  N   UNL     1       0.699   9.746  18.872  0.00  0.00    +0.000 N 
ATOM      4  H   UNL     1       0.572  10.526  18.230  0.00  0.00    +0.000 HD
ENDROOT
BRANCH   3   5
ATOM      5  C   UNL     1       0.368   9.996  20.213  0.00  0.00    +0.000 A 
ATOM      6  C   UNL     1      -0.146   8.908  20.935  0.00  0.00    +0.000 A 
ATOM      7  C   UNL     1      -0.588   9.072  22.246  0.00  0.00    +0.000 A 
ATOM      8  C   UNL     1      -0.521  10.323  22.844  0.00  0.00    +0.000 A 
ATOM      9  C   UNL     1      -0.027  11.413  22.124  0.00  0.00    +0.000 A 
ATOM     10  C   UNL     1       0.418  11.277  20.794  0.00  0.00    +0.000 A 
BRANCH  10  11
ATOM     11  C   UNL     1       0.948  12.458  20.097  0.00  0.00    +0.000 A 
ATOM     12  N   UNL     1       2.025  12.542  19.334  0.00  0.00    +0.000 NA
ATOM     13  C   UNL     1       2.096  13.857  18.914  0.00  0.00    +0.000 A 
ATOM     14  C   UNL     1       3.026  14.499  18.080  0.00  0.00    +0.000 A 
ATOM     15  C   UNL     1       2.882  15.875  17.842  0.00  0.00    +0.000 A 
ATOM     16  C   UNL     1       1.828  16.597  18.410  0.00  0.00    +0.000 A 
ATOM     17  C   UNL     1       0.878  15.971  19.221  0.00  0.00    +0.000 A 
ATOM     18  C   UNL     1       1.057  14.602  19.449  0.00  0.00    +0.000 A 
ATOM     19  N   UNL     1       0.337  13.696  20.174  0.00  0.00    +0.000 N 
ATOM     20  H   UNL     1      -0.498  13.900  20.701  0.00  0.00    +0.000 HD
ENDBRANCH  10  11
ENDBRANCH   3   5
BRANCH   2  21
ATOM     21  C   UNL     1       2.525   8.082  19.404  0.00  0.00    +0.000 C 
BRANCH  21  22
ATOM     22  N   UNL     1       2.394   6.674  19.095  0.00  0.00    +0.000 N 
ATOM     23  C   UNL     1       1.868   5.755  19.978  0.00  0.00    +0.000 C 
ATOM     24  O   UNL     1       1.273   5.973  21.019  0.00  0.00    +0.000 OA
ATOM     25  C   UNL     1       2.352   4.406  19.510  0.00  0.00    +0.000 C 
ATOM     26  C   UNL     1       1.526   3.160  19.763  0.00  0.00    +0.000 C 
ATOM     27  C   UNL     1       2.228   1.969  19.087  0.00  0.00    +0.000 C 
ATOM     28  C   UNL     1       2.526   2.221  17.600  0.00  0.00    +0.000 C 
ATOM     29  C   UNL     1       3.280   3.539  17.360  0.00  0.00    +0.000 C 
ATOM     30  C   UNL     1       2.509   4.660  18.023  0.00  0.00    +0.000 C 
ATOM     31  C   UNL     1       3.078   6.049  18.075  0.00  0.00    +0.000 C 
ATOM     32  O   UNL     1       3.955   6.495  17.361  0.00  0.00    +0.000 OA
ENDBRANCH  21  22
ENDBRANCH   2  21
TORSDOF 4
ENDMDL
MODEL 2
REMARK VINA RESULT:      -7.9      3.733      6.281
REMARK  Name = 
REMARK  4 active torsions:
REMARK  status: ('A' for Active; 'I' for Inactive)
REMARK    1  A    between atoms: C_2  and  C_3
REMARK    2  A    between atoms: C_3  and  N_4
REMARK    3  A    between atoms: N_15  and  C_16
REMARK    4  A    between atoms: C_21  and  C_22
REMARK                            x       y       z     vdW  Elec       q    Type
REMARK                         _______ _______ _______ _____ _____    ______ ____
ROOT
ATOM      1  O   UNL     1       0.146  15.773  18.826  0.00  0.00    +0.000 OA
ATOM      2  C   UNL     1      -0.253  15.063  19.751  0.00  0.00    +0.000 C 
ATOM      3  N   UNL     1      -1.603  14.986  19.971  0.00  0.00    +0.000 N 
ATOM      4  H   UNL     1      -2.047  15.842  19.644  0.00  0.00    +0.000 HD
ENDROOT
BRANCH   3   5
ATOM      5  C   UNL     1      -2.225  14.351  21.058  0.00  0.00    +0.000 A 
ATOM      6  C   UNL     1      -2.091  14.984  22.302  0.00  0.00    +0.000 A 
ATOM      7  C   UNL     1      -2.595  14.392  23.459  0.00  0.00    +0.000 A 
ATOM      8  C   UNL     1      -3.235  13.163  23.379  0.00  0.00    +0.000 A 
ATOM      9  C   UNL     1      -3.356  12.519  22.145  0.00  0.00    +0.000 A 
ATOM     10  C   UNL     1      -2.848  13.092  20.963  0.00  0.00    +0.000 A 
BRANCH  10  11
ATOM     11  C   UNL     1      -3.026  12.375  19.691  0.00  0.00    +0.000 A 
ATOM     12  N   UNL     1      -4.055  12.426  18.862  0.00  0.00    +0.000 NA
ATOM     13  C   UNL     1      -3.746  11.577  17.815  0.00  0.00    +0.000 A 
ATOM     14  C   UNL     1      -4.471  11.257  16.656  0.00  0.00    +0.000 A 
ATOM     15  C   UNL     1      -3.933  10.320  15.760  0.00  0.00    +0.000 A 
ATOM     16  C   UNL     1      -2.693   9.721  16.005  0.00  0.00    +0.000 A 
ATOM     17  C   UNL     1      -1.946  10.045  17.139  0.00  0.00    +0.000 A 
ATOM     18  C   UNL     1      -2.515  10.973  18.017  0.00  0.00    +0.000 A 
ATOM     19  N   UNL     1      -2.073  11.506  19.195  0.00  0.00    +0.000 N 
ATOM     20  H   UNL     1      -1.197  11.285  19.645  0.00  0.00    +0.000 HD
ENDBRANCH  10  11
ENDBRANCH   3   5
BRANCH   2  21
ATOM     21  C   UNL     1       0.731  14.244  20.590  0.00  0.00    +0.000 C 
BRANCH  21  22
ATOM     22  N   UNL     1       0.855  12.883  20.115  0.00  0.00    +0.000 N 
ATOM     23  C   UNL     1       0.665  11.783  20.926  0.00  0.00    +0.000 C 
ATOM     24  O   UNL     1       0.193  11.754  22.050  0.00  0.00    +0.000 OA
ATOM     25  C   UNL     1       1.348  10.633  20.230  0.00  0.00    +0.000 C 
ATOM     26  C   UNL     1       0.845   9.213  20.413  0.00  0.00    +0.000 C 
ATOM     27  C   UNL     1       1.676   8.287  19.508  0.00  0.00    +0.000 C 
ATOM     28  C   UNL     1       1.697   8.751  18.043  0.00  0.00    +0.000 C 
ATOM     29  C   UNL     1       2.117  10.222  17.891  0.00  0.00    +0.000 C 
ATOM     30  C   UNL     1       1.232  11.067  18.782  0.00  0.00    +0.000 C 
ATOM     31  C   UNL     1       1.500  12.535  18.949  0.00  0.00    +0.000 C 
ATOM     32  O   UNL     1       2.152  13.238  18.201  0.00  0.00    +0.000 OA
ENDBRANCH  21  22
ENDBRANCH   2  21
TORSDOF 4
ENDMDL
MODEL 3
REMARK VINA RESULT:      -7.9      5.569      8.911
REMARK  Name = 
REMARK  4 active torsions:
REMARK  status: ('A' for Active; 'I' for Inactive)
REMARK    1  A    between atoms: C_2  and  C_3
REMARK    2  A    between atoms: C_3  and  N_4
REMARK    3  A    between atoms: N_15  and  C_16
REMARK    4  A    between atoms: C_21  and  C_22
REMARK                            x       y       z     vdW  Elec       q    Type
REMARK                         _______ _______ _______ _____ _____    ______ ____
ROOT
ATOM      1  O   UNL     1      -5.479  12.030  24.670  0.00  0.00    +0.000 OA
ATOM      2  C   UNL     1      -4.792  12.973  24.274  0.00  0.00    +0.000 C 
ATOM      3  N   UNL     1      -3.507  13.077  24.738  0.00  0.00    +0.000 N 
ATOM      4  H   UNL     1      -3.444  12.638  25.655  0.00  0.00    +0.000 HD
ENDROOT
BRANCH   3   5
ATOM      5  C   UNL     1      -2.635  14.154  24.514  0.00  0.00    +0.000 A 
ATOM      6  C   UNL     1      -3.003  15.377  25.093  0.00  0.00    +0.000 A 
ATOM      7  C   UNL     1      -2.255  16.529  24.859  0.00  0.00    +0.000 A 
ATOM      8  C   UNL     1      -1.133  16.466  24.042  0.00  0.00    +0.000 A 
ATOM      9  C   UNL     1      -0.771  15.254  23.449  0.00  0.00    +0.000 A 
ATOM     10  C   UNL     1      -1.516  14.077  23.662  0.00  0.00    +0.000 A 
BRANCH  10  11
ATOM     11  C   UNL     1      -1.072  12.829  23.027  0.00  0.00    +0.000 A 
ATOM     12  N   UNL     1      -1.193  11.592  23.480  0.00  0.00    +0.000 NA
ATOM     13  C   UNL     1      -0.622  10.775  22.523  0.00  0.00    +0.000 A 
ATOM     14  C   UNL     1      -0.484   9.377  22.483  0.00  0.00    +0.000 A 
ATOM     15  C   UNL     1       0.182   8.797  21.392  0.00  0.00    +0.000 A 
ATOM     16  C   UNL     1       0.691   9.587  20.356  0.00  0.00    +0.000 A 
ATOM     17  C   UNL     1       0.542  10.976  20.367  0.00  0.00    +0.000 A 
ATOM     18  C   UNL     1      -0.116  11.524  21.473  0.00  0.00    +0.000 A 
ATOM     19  N   UNL     1      -0.429  12.812  21.803  0.00  0.00    +0.000 N 
ATOM     20  H   UNL     1      -0.206  13.627  21.252  0.00  0.00    +0.000 HD
ENDBRANCH  10  11
ENDBRANCH   3   5
BRANCH   2  21
ATOM     21  C   UNL     1      -5.343  13.965  23.247  0.00  0.00    +0.000 C 
BRANCH  21  22
ATOM     22  N   UNL     1      -5.587  13.344  21.962  0.00  0.00    +0.000 N 
ATOM     23  C   UNL     1      -6.708  12.587  21.693  0.00  0.00    +0.000 C 
ATOM     24  O   UNL     1      -7.719  12.482  22.366  0.00  0.00    +0.000 OA
ATOM     25  C   UNL     1      -6.361  11.744  20.492  0.00  0.00    +0.000 C 
ATOM     26  C   UNL     1      -7.439  11.304  19.521  0.00  0.00    +0.000 C 
ATOM     27  C   UNL     1      -6.766  10.550  18.361  0.00  0.00    +0.000 C 
ATOM     28  C   UNL     1      -5.636  11.359  17.704  0.00  0.00    +0.000 C 
ATOM     29  C   UNL     1      -4.606  11.876  18.722  0.00  0.00    +0.000 C 
ATOM     30  C   UNL     1      -5.342  12.633  19.806  0.00  0.00    +0.000 C 
ATOM     31  C   UNL     1      -4.608  13.138  21.015  0.00  0.00    +0.000 C 
ATOM     32  O   UNL     1      -3.409  13.312  21.109  0.00  0.00    +0.000 OA
ENDBRANCH  21  22
ENDBRANCH   2  21
TORSDOF 4
ENDMDL
MODEL 4
REMARK VINA RESULT:      -7.9      0.280      1.068
REMARK  Name = 
REMARK  4 active torsions:
REMARK  status: ('A' for Active; 'I' for Inactive)
REMARK    1  A    between atoms: C_2  and  C_3
REMARK    2  A    between atoms: C_3  and  N_4
REMARK    3  A    between atoms: N_15  and  C_16
REMARK    4  A    between atoms: C_21  and  C_22
REMARK                            x       y       z     vdW  Elec       q    Type
REMARK                         _______ _______ _______ _____ _____    ______ ____
ROOT
ATOM      1  O   UNL     1       1.872   8.974  17.361  0.00  0.00    +0.000 OA
ATOM      2  C   UNL     1       1.636   8.943  18.570  0.00  0.00    +0.000 C 
ATOM      3  N   UNL     1       0.591   9.694  19.043  0.00  0.00    +0.000 N 
ATOM      4  H   UNL     1       0.443  10.491  18.427  0.00  0.00    +0.000 HD
ENDROOT
BRANCH   3   5
ATOM      5  C   UNL     1       0.269   9.896  20.395  0.00  0.00    +0.000 A 
ATOM      6  C   UNL     1      -0.163   8.765  21.103  0.00  0.00    +0.000 A 
ATOM      7  C   UNL     1      -0.591   8.875  22.425  0.00  0.00    +0.000 A 
ATOM      8  C   UNL     1      -0.590  10.116  23.047  0.00  0.00    +0.000 A 
ATOM      9  C   UNL     1      -0.178  11.249  22.341  0.00  0.00    +0.000 A 
ATOM     10  C   UNL     1       0.251  11.166  21.002  0.00  0.00    +0.000 A 
BRANCH  10  11
ATOM     11  C   UNL     1       0.694  12.391  20.320  0.00  0.00    +0.000 A 
ATOM     12  N   UNL     1      -0.010  13.479  20.055  0.00  0.00    +0.000 NA
ATOM     13  C   UNL     1       0.850  14.343  19.404  0.00  0.00    +0.000 A 
ATOM     14  C   UNL     1       0.637  15.639  18.906  0.00  0.00    +0.000 A 
ATOM     15  C   UNL     1       1.690  16.289  18.242  0.00  0.00    +0.000 A 
ATOM     16  C   UNL     1       2.933  15.669  18.086  0.00  0.00    +0.000 A 
ATOM     17  C   UNL     1       3.172  14.391  18.596  0.00  0.00    +0.000 A 
ATOM     18  C   UNL     1       2.100  13.766  19.241  0.00  0.00    +0.000 A 
ATOM     19  N   UNL     1       1.982  12.545  19.843  0.00  0.00    +0.000 N 
ATOM     20  H   UNL     1       2.714  11.854  19.911  0.00  0.00    +0.000 HD
ENDBRANCH  10  11
ENDBRANCH   3   5
BRANCH   2  21
ATOM     21  C   UNL     1       2.450   8.046  19.505  0.00  0.00    +0.000 C 
BRANCH  21  22
ATOM     22  N   UNL     1       2.364   6.650  19.136  0.00  0.00    +0.000 N 
ATOM     23  C   UNL     1       1.880   5.675  19.983  0.00  0.00    +0.000 C 
ATOM     24  O   UNL     1       1.289   5.827  21.038  0.00  0.00    +0.000 OA
ATOM     25  C   UNL     1       2.404   4.366  19.451  0.00  0.00    +0.000 C 
ATOM     26  C   UNL     1       1.624   3.082  19.658  0.00  0.00    +0.000 C 
ATOM     27  C   UNL     1       2.359   1.947  18.924  0.00  0.00    +0.000 C 
ATOM     28  C   UNL     1       2.631   2.273  17.446  0.00  0.00    +0.000 C 
ATOM     29  C   UNL     1       3.338   3.626  17.257  0.00  0.00    +0.000 C 
ATOM     30  C   UNL     1       2.536   4.689  17.976  0.00  0.00    +0.000 C 
ATOM     31  C   UNL     1       3.058   6.094  18.083  0.00  0.00    +0.000 C 
ATOM     32  O   UNL     1       3.911   6.600  17.381  0.00  0.00    +0.000 OA
ENDBRANCH  21  22
ENDBRANCH   2  21
TORSDOF 4
ENDMDL
MODEL 5
REMARK VINA RESULT:      -7.8      3.211      6.101
REMARK  Name = 
REMARK  4 active torsions:
REMARK  status: ('A' for Active; 'I' for Inactive)
REMARK    1  A    between atoms: C_2  and  C_3
REMARK    2  A    between atoms: C_3  and  N_4
REMARK    3  A    between atoms: N_15  and  C_16
REMARK    4  A    between atoms: C_21  and  C_22
REMARK                            x       y       z     vdW  Elec       q    Type
REMARK                         _______ _______ _______ _____ _____    ______ ____
ROOT
ATOM      1  O   UNL     1       5.030   7.577  17.112  0.00  0.00    +0.000 OA
ATOM      2  C   UNL     1       4.700   6.573  17.746  0.00  0.00    +0.000 C 
ATOM      3  N   UNL     1       3.491   6.585  18.393  0.00  0.00    +0.000 N 
ATOM      4  H   UNL     1       3.245   7.545  18.628  0.00  0.00    +0.000 HD
ENDROOT
BRANCH   3   5
ATOM      5  C   UNL     1       3.020   5.599  19.275  0.00  0.00    +0.000 A 
ATOM      6  C   UNL     1       3.490   4.296  19.052  0.00  0.00    +0.000 A 
ATOM      7  C   UNL     1       3.016   3.231  19.815  0.00  0.00    +0.000 A 
ATOM      8  C   UNL     1       2.069   3.460  20.804  0.00  0.00    +0.000 A 
ATOM      9  C   UNL     1       1.585   4.753  21.018  0.00  0.00    +0.000 A 
ATOM     10  C   UNL     1       2.041   5.846  20.256  0.00  0.00    +0.000 A 
BRANCH  10  11
ATOM     11  C   UNL     1       1.509   7.186  20.544  0.00  0.00    +0.000 A 
ATOM     12  N   UNL     1       1.652   8.292  19.834  0.00  0.00    +0.000 NA
ATOM     13  C   UNL     1       0.969   9.279  20.520  0.00  0.00    +0.000 A 
ATOM     14  C   UNL     1       0.783  10.638  20.217  0.00  0.00    +0.000 A 
ATOM     15  C   UNL     1       0.067  11.439  21.121  0.00  0.00    +0.000 A 
ATOM     16  C   UNL     1      -0.465  10.898  22.296  0.00  0.00    +0.000 A 
ATOM     17  C   UNL     1      -0.312   9.544  22.602  0.00  0.00    +0.000 A 
ATOM     18  C   UNL     1       0.417   8.777  21.688  0.00  0.00    +0.000 A 
ATOM     19  N   UNL     1       0.753   7.453  21.671  0.00  0.00    +0.000 N 
ATOM     20  H   UNL     1       0.509   6.778  22.379  0.00  0.00    +0.000 HD
ENDBRANCH  10  11
ENDBRANCH   3   5
BRANCH   2  21
ATOM     21  C   UNL     1       5.589   5.328  17.758  0.00  0.00    +0.000 C 
BRANCH  21  22
ATOM     22  N   UNL     1       5.977   4.919  16.425  0.00  0.00    +0.000 N 
ATOM     23  C   UNL     1       6.985   5.534  15.713  0.00  0.00    +0.000 C 
ATOM     24  O   UNL     1       7.808   6.335  16.120  0.00  0.00    +0.000 OA
ATOM     25  C   UNL     1       6.747   5.177  14.267  0.00  0.00    +0.000 C 
ATOM     26  C   UNL     1       7.908   5.081  13.296  0.00  0.00    +0.000 C 
ATOM     27  C   UNL     1       7.363   4.608  11.937  0.00  0.00    +0.000 C 
ATOM     28  C   UNL     1       6.540   3.314  12.046  0.00  0.00    +0.000 C 
ATOM     29  C   UNL     1       5.430   3.402  13.106  0.00  0.00    +0.000 C 
ATOM     30  C   UNL     1       6.052   3.837  14.415  0.00  0.00    +0.000 C 
ATOM     31  C   UNL     1       5.187   4.145  15.604  0.00  0.00    +0.000 C 
ATOM     32  O   UNL     1       4.040   3.779  15.774  0.00  0.00    +0.000 OA
ENDBRANCH  21  22
ENDBRANCH   2  21
TORSDOF 4
ENDMDL
MODEL 6
REMARK VINA RESULT:      -7.8      4.932      7.453
REMARK  Name = 
REMARK  4 active torsions:
REMARK  status: ('A' for Active; 'I' for Inactive)
REMARK    1  A    between atoms: C_2  and  C_3
REMARK    2  A    between atoms: C_3  and  N_4
REMARK    3  A    between atoms: N_15  and  C_16
REMARK    4  A    between atoms: C_21  and  C_22
REMARK                            x       y       z     vdW  Elec       q    Type
REMARK                         _______ _______ _______ _____ _____    ______ ____
ROOT
ATOM      1  O   UNL     1      -1.023  16.371  20.078  0.00  0.00    +0.000 OA
ATOM      2  C   UNL     1      -1.740  15.692  20.815  0.00  0.00    +0.000 C 
ATOM      3  N   UNL     1      -3.016  15.413  20.397  0.00  0.00    +0.000 N 
ATOM      4  H   UNL     1      -3.334  16.152  19.772  0.00  0.00    +0.000 HD
ENDROOT
BRANCH   3   5
ATOM      5  C   UNL     1      -4.013  14.786  21.160  0.00  0.00    +0.000 A 
ATOM      6  C   UNL     1      -4.490  15.506  22.265  0.00  0.00    +0.000 A 
ATOM      7  C   UNL     1      -5.415  14.938  23.138  0.00  0.00    +0.000 A 
ATOM      8  C   UNL     1      -5.870  13.645  22.912  0.00  0.00    +0.000 A 
ATOM      9  C   UNL     1      -5.386  12.917  21.823  0.00  0.00    +0.000 A 
ATOM     10  C   UNL     1      -4.443  13.465  20.931  0.00  0.00    +0.000 A 
BRANCH  10  11
ATOM     11  C   UNL     1      -3.988  12.656  19.791  0.00  0.00    +0.000 A 
ATOM     12  N   UNL     1      -2.809  12.085  19.613  0.00  0.00    +0.000 NA
ATOM     13  C   UNL     1      -2.875  11.440  18.392  0.00  0.00    +0.000 A 
ATOM     14  C   UNL     1      -1.916  10.670  17.714  0.00  0.00    +0.000 A 
ATOM     15  C   UNL     1      -2.237  10.154  16.448  0.00  0.00    +0.000 A 
ATOM     16  C   UNL     1      -3.490  10.387  15.873  0.00  0.00    +0.000 A 
ATOM     17  C   UNL     1      -4.465  11.130  16.542  0.00  0.00    +0.000 A 
ATOM     18  C   UNL     1      -4.111  11.640  17.795  0.00  0.00    +0.000 A 
ATOM     19  N   UNL     1      -4.800  12.391  18.704  0.00  0.00    +0.000 N 
ATOM     20  H   UNL     1      -5.747  12.721  18.592  0.00  0.00    +0.000 HD
ENDBRANCH  10  11
ENDBRANCH   3   5
BRANCH   2  21
ATOM     21  C   UNL     1      -1.199  15.126  22.129  0.00  0.00    +0.000 C 
BRANCH  21  22
ATOM     22  N   UNL     1      -0.935  13.706  22.047  0.00  0.00    +0.000 N 
ATOM     23  C   UNL     1      -1.475  12.787  22.924  0.00  0.00    +0.000 C 
ATOM     24  O   UNL     1      -2.366  12.963  23.736  0.00  0.00    +0.000 OA
ATOM     25  C   UNL     1      -0.603  11.561  22.827  0.00  0.00    +0.000 C 
ATOM     26  C   UNL     1      -1.181  10.183  23.086  0.00  0.00    +0.000 C 
ATOM     27  C   UNL     1      -0.081   9.140  22.817  0.00  0.00    +0.000 C 
ATOM     28  C   UNL     1       0.554   9.293  21.425  0.00  0.00    +0.000 C 
ATOM     29  C   UNL     1       1.045  10.723  21.149  0.00  0.00    +0.000 C 
ATOM     30  C   UNL     1      -0.101  11.680  21.401  0.00  0.00    +0.000 C 
ATOM     31  C   UNL     1       0.121  13.164  21.347  0.00  0.00    +0.000 C 
ATOM     32  O   UNL     1       1.044  13.735  20.800  0.00  0.00    +0.000 OA
ENDBRANCH  21  22
ENDBRANCH   2  21
TORSDOF 4
ENDMDL
MODEL 7
REMARK VINA RESULT:      -7.8      3.721      7.003
REMARK  Name = 
REMARK  4 active torsions:
REMARK  status: ('A' for Active; 'I' for Inactive)
REMARK    1  A    between atoms: C_2  and  C_3
REMARK    2  A    between atoms: C_3  and  N_4
REMARK    3  A    between atoms: N_15  and  C_16
REMARK    4  A    between atoms: C_21  and  C_22
REMARK                            x       y       z     vdW  Elec       q    Type
REMARK                         _______ _______ _______ _____ _____    ______ ____
ROOT
ATOM      1  O   UNL     1       6.726   5.777  19.610  0.00  0.00    +0.000 OA
ATOM      2  C   UNL     1       5.692   5.320  19.118  0.00  0.00    +0.000 C 
ATOM      3  N   UNL     1       5.090   4.261  19.747  0.00  0.00    +0.000 N 
ATOM      4  H   UNL     1       5.793   3.730  20.258  0.00  0.00    +0.000 HD
ENDROOT
BRANCH   3   5
ATOM      5  C   UNL     1       4.002   3.523  19.257  0.00  0.00    +0.000 A 
ATOM      6  C   UNL     1       4.280   2.211  18.847  0.00  0.00    +0.000 A 
ATOM      7  C   UNL     1       3.289   1.424  18.263  0.00  0.00    +0.000 A 
ATOM      8  C   UNL     1       2.014   1.944  18.085  0.00  0.00    +0.000 A 
ATOM      9  C   UNL     1       1.736   3.256  18.475  0.00  0.00    +0.000 A 
ATOM     10  C   UNL     1       2.722   4.075  19.059  0.00  0.00    +0.000 A 
BRANCH  10  11
ATOM     11  C   UNL     1       2.361   5.440  19.469  0.00  0.00    +0.000 A 
ATOM     12  N   UNL     1       2.077   5.881  20.683  0.00  0.00    +0.000 NA
ATOM     13  C   UNL     1       1.804   7.230  20.547  0.00  0.00    +0.000 A 
ATOM     14  C   UNL     1       1.457   8.191  21.511  0.00  0.00    +0.000 A 
ATOM     15  C   UNL     1       1.193   9.504  21.089  0.00  0.00    +0.000 A 
ATOM     16  C   UNL     1       1.284   9.858  19.739  0.00  0.00    +0.000 A 
ATOM     17  C   UNL     1       1.652   8.922  18.771  0.00  0.00    +0.000 A 
ATOM     18  C   UNL     1       1.897   7.621  19.221  0.00  0.00    +0.000 A 
ATOM     19  N   UNL     1       2.268   6.482  18.564  0.00  0.00    +0.000 N 
ATOM     20  H   UNL     1       2.428   6.405  17.571  0.00  0.00    +0.000 HD
ENDBRANCH  10  11
ENDBRANCH   3   5
BRANCH   2  21
ATOM     21  C   UNL     1       5.070   5.956  17.873  0.00  0.00    +0.000 C 
BRANCH  21  22
ATOM     22  N   UNL     1       5.609   5.403  16.649  0.00  0.00    +0.000 N 
ATOM     23  C   UNL     1       6.707   5.932  16.003  0.00  0.00    +0.000 C 
ATOM     24  O   UNL     1       7.490   6.767  16.421  0.00  0.00    +0.000 OA
ATOM     25  C   UNL     1       6.639   5.423  14.585  0.00  0.00    +0.000 C 
ATOM     26  C   UNL     1       7.906   5.217  13.779  0.00  0.00    +0.000 C 
ATOM     27  C   UNL     1       7.520   4.604  12.421  0.00  0.00    +0.000 C 
ATOM     28  C   UNL     1       6.666   3.333  12.565  0.00  0.00    +0.000 C 
ATOM     29  C   UNL     1       5.438   3.542  13.467  0.00  0.00    +0.000 C 
ATOM     30  C   UNL     1       5.906   4.112  14.789  0.00  0.00    +0.000 C 
ATOM     31  C   UNL     1       4.909   4.550  15.823  0.00  0.00    +0.000 C 
ATOM     32  O   UNL     1       3.744   4.212  15.890  0.00  0.00    +0.000 OA
ENDBRANCH  21  22
ENDBRANCH   2  21
TORSDOF 4
ENDMDL
MODEL 8
REMARK VINA RESULT:      -7.7      2.404      7.755
REMARK  Name = 
REMARK  4 active torsions:
REMARK  status: ('A' for Active; 'I' for Inactive)
REMARK    1  A    between atoms: C_2  and  C_3
REMARK    2  A    between atoms: C_3  and  N_4
REMARK    3  A    between atoms: N_15  and  C_16
REMARK    4  A    between atoms: C_21  and  C_22
REMARK                            x       y       z     vdW  Elec       q    Type
REMARK                         _______ _______ _______ _____ _____    ______ ____
ROOT
ATOM      1  O   UNL     1       2.292   7.635  21.548  0.00  0.00    +0.000 OA
ATOM      2  C   UNL     1       1.940   6.846  20.669  0.00  0.00    +0.000 C 
ATOM      3  N   UNL     1       2.131   5.506  20.889  0.00  0.00    +0.000 N 
ATOM      4  H   UNL     1       2.917   5.379  21.525  0.00  0.00    +0.000 HD
ENDROOT
BRANCH   3   5
ATOM      5  C   UNL     1       1.930   4.482  19.951  0.00  0.00    +0.000 A 
ATOM      6  C   UNL     1       0.738   3.754  20.077  0.00  0.00    +0.000 A 
ATOM      7  C   UNL     1       0.482   2.660  19.253  0.00  0.00    +0.000 A 
ATOM      8  C   UNL     1       1.417   2.286  18.297  0.00  0.00    +0.000 A 
ATOM      9  C   UNL     1       2.614   2.996  18.178  0.00  0.00    +0.000 A 
ATOM     10  C   UNL     1       2.901   4.100  19.005  0.00  0.00    +0.000 A 
BRANCH  10  11
ATOM     11  C   UNL     1       4.169   4.820  18.817  0.00  0.00    +0.000 A 
ATOM     12  N   UNL     1       5.280   4.718  19.525  0.00  0.00    +0.000 NA
ATOM     13  C   UNL     1       6.182   5.596  18.955  0.00  0.00    +0.000 A 
ATOM     14  C   UNL     1       7.513   5.886  19.295  0.00  0.00    +0.000 A 
ATOM     15  C   UNL     1       8.200   6.865  18.560  0.00  0.00    +0.000 A 
ATOM     16  C   UNL     1       7.581   7.535  17.501  0.00  0.00    +0.000 A 
ATOM     17  C   UNL     1       6.266   7.244  17.132  0.00  0.00    +0.000 A 
ATOM     18  C   UNL     1       5.606   6.272  17.890  0.00  0.00    +0.000 A 
ATOM     19  N   UNL     1       4.345   5.752  17.811  0.00  0.00    +0.000 N 
ATOM     20  H   UNL     1       3.643   6.021  17.138  0.00  0.00    +0.000 HD
ENDBRANCH  10  11
ENDBRANCH   3   5
BRANCH   2  21
ATOM     21  C   UNL     1       1.254   7.347  19.396  0.00  0.00    +0.000 C 
BRANCH  21  22
ATOM     22  N   UNL     1       1.331   8.786  19.263  0.00  0.00    +0.000 N 
ATOM     23  C   UNL     1       0.420   9.645  19.841  0.00  0.00    +0.000 C 
ATOM     24  O   UNL     1      -0.429   9.385  20.675  0.00  0.00    +0.000 OA
ATOM     25  C   UNL     1       0.541  10.945  19.086  0.00  0.00    +0.000 C 
ATOM     26  C   UNL     1       0.240  12.264  19.771  0.00  0.00    +0.000 C 
ATOM     27  C   UNL     1       0.545  13.402  18.781  0.00  0.00    +0.000 C 
ATOM     28  C   UNL     1       1.967  13.318  18.200  0.00  0.00    +0.000 C 
ATOM     29  C   UNL     1       2.281  11.939  17.597  0.00  0.00    +0.000 C 
ATOM     30  C   UNL     1       1.989  10.883  18.641  0.00  0.00    +0.000 C 
ATOM     31  C   UNL     1       2.071   9.424  18.292  0.00  0.00    +0.000 C 
ATOM     32  O   UNL     1       2.666   8.942  17.348  0.00  0.00    +0.000 OA
ENDBRANCH  21  22
ENDBRANCH   2  21
TORSDOF 4
ENDMDL
MODEL 9
REMARK VINA RESULT:      -7.7      2.404      7.761
REMARK  Name = 
REMARK  4 active torsions:
REMARK  status: ('A' for Active; 'I' for Inactive)
REMARK    1  A    between atoms: C_2  and  C_3
REMARK    2  A    between atoms: C_3  and  N_4
REMARK    3  A    between atoms: N_15  and  C_16
REMARK    4  A    between atoms: C_21  and  C_22
REMARK                            x       y       z     vdW  Elec       q    Type
REMARK                         _______ _______ _______ _____ _____    ______ ____
ROOT
ATOM      1  O   UNL     1       2.297   7.764  21.531  0.00  0.00    +0.000 OA
ATOM      2  C   UNL     1       1.924   6.969  20.665  0.00  0.00    +0.000 C 
ATOM      3  N   UNL     1       2.129   5.632  20.885  0.00  0.00    +0.000 N 
ATOM      4  H   UNL     1       2.934   5.511  21.498  0.00  0.00    +0.000 HD
ENDROOT
BRANCH   3   5
ATOM      5  C   UNL     1       1.907   4.602  19.957  0.00  0.00    +0.000 A 
ATOM      6  C   UNL     1       0.755   3.828  20.158  0.00  0.00    +0.000 A 
ATOM      7  C   UNL     1       0.488   2.727  19.346  0.00  0.00    +0.000 A 
ATOM      8  C   UNL     1       1.372   2.392  18.329  0.00  0.00    +0.000 A 
ATOM      9  C   UNL     1       2.529   3.149  18.135  0.00  0.00    +0.000 A 
ATOM     10  C   UNL     1       2.827   4.261  18.947  0.00  0.00    +0.000 A 
BRANCH  10  11
ATOM     11  C   UNL     1       4.050   5.031  18.679  0.00  0.00    +0.000 A 
ATOM     12  N   UNL     1       4.241   5.973  17.771  0.00  0.00    +0.000 NA
ATOM     13  C   UNL     1       5.551   6.387  17.916  0.00  0.00    +0.000 A 
ATOM     14  C   UNL     1       6.280   7.368  17.222  0.00  0.00    +0.000 A 
ATOM     15  C   UNL     1       7.631   7.563  17.552  0.00  0.00    +0.000 A 
ATOM     16  C   UNL     1       8.242   6.808  18.558  0.00  0.00    +0.000 A 
ATOM     17  C   UNL     1       7.527   5.847  19.275  0.00  0.00    +0.000 A 
ATOM     18  C   UNL     1       6.188   5.668  18.915  0.00  0.00    +0.000 A 
ATOM     19  N   UNL     1       5.217   4.834  19.394  0.00  0.00    +0.000 N 
ATOM     20  H   UNL     1       5.337   4.164  20.138  0.00  0.00    +0.000 HD
ENDBRANCH  10  11
ENDBRANCH   3   5
BRANCH   2  21
ATOM     21  C   UNL     1       1.199   7.461  19.411  0.00  0.00    +0.000 C 
BRANCH  21  22
ATOM     22  N   UNL     1       1.256   8.901  19.275  0.00  0.00    +0.000 N 
ATOM     23  C   UNL     1       0.320   9.747  19.833  0.00  0.00    +0.000 C 
ATOM     24  O   UNL     1      -0.541   9.475  20.652  0.00  0.00    +0.000 OA
ATOM     25  C   UNL     1       0.435  11.047  19.078  0.00  0.00    +0.000 C 
ATOM     26  C   UNL     1       0.100  12.363  19.753  0.00  0.00    +0.000 C 
ATOM     27  C   UNL     1       0.406  13.503  18.766  0.00  0.00    +0.000 C 
ATOM     28  C   UNL     1       1.839  13.441  18.213  0.00  0.00    +0.000 C 
ATOM     29  C   UNL     1       2.187  12.065  17.620  0.00  0.00    +0.000 C 
ATOM     30  C   UNL     1       1.892  11.007  18.661  0.00  0.00    +0.000 C 
ATOM     31  C   UNL     1       2.004   9.549  18.317  0.00  0.00    +0.000 C 
ATOM     32  O   UNL     1       2.626   9.075  17.386  0.00  0.00    +0.000 OA
ENDBRANCH  21  22
ENDBRANCH   2  21
TORSDOF 4
ENDMDL
