MODEL 1
REMARK VINA RESULT:      -8.5      0.000      0.000
REMARK  Name = 
REMARK  5 active torsions:
REMARK  status: ('A' for Active; 'I' for Inactive)
REMARK    1  A    between atoms: C_1  and  C_2
REMARK    2  A    between atoms: C_4  and  N_5
REMARK    3  A    between atoms: C_6  and  C_8
REMARK    4  A    between atoms: C_8  and  C_9
REMARK    5  A    between atoms: C_20  and  N_21
REMARK                            x       y       z     vdW  Elec       q    Type
REMARK                         _______ _______ _______ _____ _____    ______ ____
ROOT
ATOM      1  N   UNL     1       3.589   6.208  18.546  0.00  0.00    +0.000 N 
ATOM      2  C   UNL     1       3.246   4.993  17.967  0.00  0.00    +0.000 C 
ATOM      3  O   UNL     1       2.118   4.658  17.603  0.00  0.00    +0.000 OA
ATOM      4  H   UNL     1       4.502   6.285  18.979  0.00  0.00    +0.000 HD
ENDROOT
BRANCH   1   8
ATOM      5  C   UNL     1       0.688   8.634  21.674  0.00  0.00    +0.000 C 
ATOM      6  C   UNL     1       1.268   8.600  20.285  0.00  0.00    +0.000 A 
ATOM      7  C   UNL     1       2.085   7.484  20.009  0.00  0.00    +0.000 A 
ATOM      8  C   UNL     1       2.689   7.279  18.770  0.00  0.00    +0.000 A 
ATOM      9  C   UNL     1       2.386   8.168  17.745  0.00  0.00    +0.000 A 
ATOM     10  C   UNL     1       1.563   9.275  17.993  0.00  0.00    +0.000 A 
ATOM     11  C   UNL     1       1.013   9.540  19.263  0.00  0.00    +0.000 A 
BRANCH  11  12
ATOM     12  N   UNL     1       0.269  10.737  19.485  0.00  0.00    +0.000 N 
ATOM     13  C   UNL     1       0.889  11.975  19.894  0.00  0.00    +0.000 C 
ATOM     14  C   UNL     1      -0.263  12.933  20.088  0.00  0.00    +0.000 C 
ATOM     15  C   UNL     1      -1.267  12.479  19.052  0.00  0.00    +0.000 C 
ATOM     16  C   UNL     1      -1.006  10.993  18.948  0.00  0.00    +0.000 C 
ATOM     17  O   UNL     1      -1.797  10.212  18.444  0.00  0.00    +0.000 OA
ENDBRANCH  11  12
ENDBRANCH   1   8
BRANCH   2  18
ATOM     18  C   UNL     1       4.393   4.007  17.832  0.00  0.00    +0.000 C 
BRANCH  18  19
ATOM     19  C   UNL     1       5.338   4.292  16.686  0.00  0.00    +0.000 A 
ATOM     20  C   UNL     1       6.540   5.010  16.861  0.00  0.00    +0.000 A 
ATOM     21  C   UNL     1       7.382   5.288  15.780  0.00  0.00    +0.000 A 
ATOM     22  C   UNL     1       7.035   4.810  14.530  0.00  0.00    +0.000 A 
ATOM     23  C   UNL     1       5.885   4.046  14.351  0.00  0.00    +0.000 A 
ATOM     24  C   UNL     1       5.036   3.774  15.415  0.00  0.00    +0.000 A 
ATOM     25  C   UNL     1       5.729   3.606  12.934  0.00  0.00    +0.000 C 
ATOM     26  C   UNL     1       6.937   4.239  12.224  0.00  0.00    +0.000 C 
ATOM     27  C   UNL     1       7.773   5.016  13.251  0.00  0.00    +0.000 C 
ENDBRANCH  18  19
ENDBRANCH   2  18
TORSDOF 4
ENDMDL
MODEL 2
REMARK VINA RESULT:      -8.4      0.942      1.215
REMARK  Name = 
REMARK  5 active torsions:
REMARK  status: ('A' for Active; 'I' for Inactive)
REMARK    1  A    between atoms: C_1  and  C_2
REMARK    2  A    between atoms: C_4  and  N_5
REMARK    3  A    between atoms: C_6  and  C_8
REMARK    4  A    between atoms: C_8  and  C_9
REMARK    5  A    between atoms: C_20  and  N_21
REMARK                            x       y       z     vdW  Elec       q    Type
REMARK                         _______ _______ _______ _____ _____    ______ ____
ROOT
ATOM      1  N   UNL     1       3.546   6.297  18.593  0.00  0.00    +0.000 N 
ATOM      2  C   UNL     1       3.208   5.068  18.040  0.00  0.00    +0.000 C 
ATOM      3  O   UNL     1       2.079   4.717  17.695  0.00  0.00    +0.000 OA
ATOM      4  H   UNL     1       4.463   6.389  19.014  0.00  0.00    +0.000 HD
ENDROOT
BRANCH   1   8
ATOM      5  C   UNL     1       0.516   8.643  21.658  0.00  0.00    +0.000 C 
ATOM      6  C   UNL     1       1.157   8.647  20.296  0.00  0.00    +0.000 A 
ATOM      7  C   UNL     1       1.983   7.536  20.024  0.00  0.00    +0.000 A 
ATOM      8  C   UNL     1       2.640   7.365  18.807  0.00  0.00    +0.000 A 
ATOM      9  C   UNL     1       2.385   8.283  17.795  0.00  0.00    +0.000 A 
ATOM     10  C   UNL     1       1.554   9.385  18.039  0.00  0.00    +0.000 A 
ATOM     11  C   UNL     1       0.949   9.616  19.291  0.00  0.00    +0.000 A 
BRANCH  11  12
ATOM     12  N   UNL     1       0.199  10.809  19.513  0.00  0.00    +0.000 N 
ATOM     13  C   UNL     1      -1.204  10.919  19.192  0.00  0.00    +0.000 C 
ATOM     14  C   UNL     1      -1.557  12.353  19.508  0.00  0.00    +0.000 C 
ATOM     15  C   UNL     1      -0.652  12.682  20.674  0.00  0.00    +0.000 C 
ATOM     16  C   UNL     1       0.565  11.822  20.419  0.00  0.00    +0.000 C 
ATOM     17  O   UNL     1       1.641  12.012  20.964  0.00  0.00    +0.000 OA
ENDBRANCH  11  12
ENDBRANCH   1   8
BRANCH   2  18
ATOM     18  C   UNL     1       4.362   4.090  17.910  0.00  0.00    +0.000 C 
BRANCH  18  19
ATOM     19  C   UNL     1       5.297   4.367  16.754  0.00  0.00    +0.000 A 
ATOM     20  C   UNL     1       6.475   5.128  16.905  0.00  0.00    +0.000 A 
ATOM     21  C   UNL     1       7.308   5.396  15.814  0.00  0.00    +0.000 A 
ATOM     22  C   UNL     1       6.976   4.869  14.580  0.00  0.00    +0.000 A 
ATOM     23  C   UNL     1       5.850   4.064  14.428  0.00  0.00    +0.000 A 
ATOM     24  C   UNL     1       5.011   3.800  15.501  0.00  0.00    +0.000 A 
ATOM     25  C   UNL     1       5.707   3.574  13.025  0.00  0.00    +0.000 C 
ATOM     26  C   UNL     1       6.895   4.221  12.294  0.00  0.00    +0.000 C 
ATOM     27  C   UNL     1       7.707   5.057  13.294  0.00  0.00    +0.000 C 
ENDBRANCH  18  19
ENDBRANCH   2  18
TORSDOF 4
ENDMDL
MODEL 3
REMARK VINA RESULT:      -8.4      1.390      1.846
REMARK  Name = 
REMARK  5 active torsions:
REMARK  status: ('A' for Active; 'I' for Inactive)
REMARK    1  A    between atoms: C_1  and  C_2
REMARK    2  A    between atoms: C_4  and  N_5
REMARK    3  A    between atoms: C_6  and  C_8
REMARK    4  A    between atoms: C_8  and  C_9
REMARK    5  A    between atoms: C_20  and  N_21
REMARK                            x       y       z     vdW  Elec       q    Type
REMARK                         _______ _______ _______ _____ _____    ______ ____
ROOT
ATOM      1  N   UNL     1       3.066   6.311  19.614  0.00  0.00    +0.000 N 
ATOM      2  C   UNL     1       2.631   5.002  19.447  0.00  0.00    +0.000 C 
ATOM      3  O   UNL     1       1.458   4.635  19.365  0.00  0.00    +0.000 OA
ATOM      4  H   UNL     1       4.037   6.458  19.865  0.00  0.00    +0.000 HD
ENDROOT
BRANCH   1   8
ATOM      5  C   UNL     1      -0.014   9.084  22.242  0.00  0.00    +0.000 C 
ATOM      6  C   UNL     1       0.720   8.933  20.936  0.00  0.00    +0.000 A 
ATOM      7  C   UNL     1       1.490   7.757  20.818  0.00  0.00    +0.000 A 
ATOM      8  C   UNL     1       2.218   7.444  19.672  0.00  0.00    +0.000 A 
ATOM      9  C   UNL     1       2.094   8.285  18.573  0.00  0.00    +0.000 A 
ATOM     10  C   UNL     1       1.320   9.450  18.662  0.00  0.00    +0.000 A 
ATOM     11  C   UNL     1       0.646   9.823  19.842  0.00  0.00    +0.000 A 
BRANCH  11  12
ATOM     12  N   UNL     1      -0.040  11.072  19.910  0.00  0.00    +0.000 N 
ATOM     13  C   UNL     1      -1.438  11.213  19.581  0.00  0.00    +0.000 C 
ATOM     14  C   UNL     1      -1.714  12.692  19.709  0.00  0.00    +0.000 C 
ATOM     15  C   UNL     1      -0.783  13.122  20.820  0.00  0.00    +0.000 C 
ATOM     16  C   UNL     1       0.386  12.173  20.676  0.00  0.00    +0.000 C 
ATOM     17  O   UNL     1       1.475  12.376  21.189  0.00  0.00    +0.000 OA
ENDBRANCH  11  12
ENDBRANCH   1   8
BRANCH   2  18
ATOM     18  C   UNL     1       3.738   3.963  19.412  0.00  0.00    +0.000 C 
BRANCH  18  19
ATOM     19  C   UNL     1       4.795   4.203  18.358  0.00  0.00    +0.000 A 
ATOM     20  C   UNL     1       6.121   4.555  18.687  0.00  0.00    +0.000 A 
ATOM     21  C   UNL     1       7.073   4.802  17.693  0.00  0.00    +0.000 A 
ATOM     22  C   UNL     1       6.702   4.658  16.369  0.00  0.00    +0.000 A 
ATOM     23  C   UNL     1       5.415   4.250  16.029  0.00  0.00    +0.000 A 
ATOM     24  C   UNL     1       4.459   4.013  17.007  0.00  0.00    +0.000 A 
ATOM     25  C   UNL     1       5.249   4.123  14.551  0.00  0.00    +0.000 C 
ATOM     26  C   UNL     1       6.617   4.551  13.996  0.00  0.00    +0.000 C 
ATOM     27  C   UNL     1       7.549   4.898  15.165  0.00  0.00    +0.000 C 
ENDBRANCH  18  19
ENDBRANCH   2  18
TORSDOF 4
ENDMDL
MODEL 4
REMARK VINA RESULT:      -8.4      6.581      8.026
REMARK  Name = 
REMARK  5 active torsions:
REMARK  status: ('A' for Active; 'I' for Inactive)
REMARK    1  A    between atoms: C_1  and  C_2
REMARK    2  A    between atoms: C_4  and  N_5
REMARK    3  A    between atoms: C_6  and  C_8
REMARK    4  A    between atoms: C_8  and  C_9
REMARK    5  A    between atoms: C_20  and  N_21
REMARK                            x       y       z     vdW  Elec       q    Type
REMARK                         _______ _______ _______ _____ _____    ______ ____
ROOT
ATOM      1  N   UNL     1       8.620   8.300  18.994  0.00  0.00    +0.000 N 
ATOM      2  C   UNL     1       7.934   7.485  18.101  0.00  0.00    +0.000 C 
ATOM      3  O   UNL     1       7.439   7.841  17.031  0.00  0.00    +0.000 OA
ATOM      4  H   UNL     1       8.802   7.936  19.921  0.00  0.00    +0.000 HD
ENDROOT
BRANCH   1   8
ATOM      5  C   UNL     1      11.353  12.218  20.113  0.00  0.00    +0.000 C 
ATOM      6  C   UNL     1      10.264  11.672  19.229  0.00  0.00    +0.000 A 
ATOM      7  C   UNL     1       9.900  10.335  19.491  0.00  0.00    +0.000 A 
ATOM      8  C   UNL     1       8.897   9.673  18.785  0.00  0.00    +0.000 A 
ATOM      9  C   UNL     1       8.169  10.403  17.853  0.00  0.00    +0.000 A 
ATOM     10  C   UNL     1       8.503  11.738  17.589  0.00  0.00    +0.000 A 
ATOM     11  C   UNL     1       9.568  12.395  18.236  0.00  0.00    +0.000 A 
BRANCH  11  12
ATOM     12  N   UNL     1       9.931  13.721  17.852  0.00  0.00    +0.000 N 
ATOM     13  C   UNL     1       9.454  14.892  18.548  0.00  0.00    +0.000 C 
ATOM     14  C   UNL     1      10.009  16.056  17.763  0.00  0.00    +0.000 C 
ATOM     15  C   UNL     1      11.329  15.527  17.249  0.00  0.00    +0.000 C 
ATOM     16  C   UNL     1      11.068  14.046  17.089  0.00  0.00    +0.000 C 
ATOM     17  O   UNL     1      11.780  13.312  16.422  0.00  0.00    +0.000 OA
ENDBRANCH  11  12
ENDBRANCH   1   8
BRANCH   2  18
ATOM     18  C   UNL     1       7.769   6.045  18.553  0.00  0.00    +0.000 C 
BRANCH  18  19
ATOM     19  C   UNL     1       6.487   5.384  18.098  0.00  0.00    +0.000 A 
ATOM     20  C   UNL     1       6.431   4.556  16.956  0.00  0.00    +0.000 A 
ATOM     21  C   UNL     1       5.228   3.981  16.538  0.00  0.00    +0.000 A 
ATOM     22  C   UNL     1       4.088   4.208  17.287  0.00  0.00    +0.000 A 
ATOM     23  C   UNL     1       4.139   4.970  18.451  0.00  0.00    +0.000 A 
ATOM     24  C   UNL     1       5.326   5.555  18.870  0.00  0.00    +0.000 A 
ATOM     25  C   UNL     1       2.806   5.049  19.117  0.00  0.00    +0.000 C 
ATOM     26  C   UNL     1       1.885   4.252  18.180  0.00  0.00    +0.000 C 
ATOM     27  C   UNL     1       2.710   3.714  17.001  0.00  0.00    +0.000 C 
ENDBRANCH  18  19
ENDBRANCH   2  18
TORSDOF 4
ENDMDL
MODEL 5
REMARK VINA RESULT:      -8.3      1.017      1.413
REMARK  Name = 
REMARK  5 active torsions:
REMARK  status: ('A' for Active; 'I' for Inactive)
REMARK    1  A    between atoms: C_1  and  C_2
REMARK    2  A    between atoms: C_4  and  N_5
REMARK    3  A    between atoms: C_6  and  C_8
REMARK    4  A    between atoms: C_8  and  C_9
REMARK    5  A    between atoms: C_20  and  N_21
REMARK                            x       y       z     vdW  Elec       q    Type
REMARK                         _______ _______ _______ _____ _____    ______ ____
ROOT
ATOM      1  N   UNL     1       3.076   6.278  19.646  0.00  0.00    +0.000 N 
ATOM      2  C   UNL     1       2.648   4.961  19.542  0.00  0.00    +0.000 C 
ATOM      3  O   UNL     1       1.477   4.580  19.527  0.00  0.00    +0.000 OA
ATOM      4  H   UNL     1       4.056   6.443  19.846  0.00  0.00    +0.000 HD
ENDROOT
BRANCH   1   8
ATOM      5  C   UNL     1      -0.036   9.013  22.277  0.00  0.00    +0.000 C 
ATOM      6  C   UNL     1       0.704   8.876  20.973  0.00  0.00    +0.000 A 
ATOM      7  C   UNL     1       1.483   7.706  20.852  0.00  0.00    +0.000 A 
ATOM      8  C   UNL     1       2.219   7.405  19.706  0.00  0.00    +0.000 A 
ATOM      9  C   UNL     1       2.093   8.251  18.612  0.00  0.00    +0.000 A 
ATOM     10  C   UNL     1       1.311   9.410  18.705  0.00  0.00    +0.000 A 
ATOM     11  C   UNL     1       0.628   9.771  19.884  0.00  0.00    +0.000 A 
BRANCH  11  12
ATOM     12  N   UNL     1      -0.067  11.015  19.956  0.00  0.00    +0.000 N 
ATOM     13  C   UNL     1       0.556  12.230  20.425  0.00  0.00    +0.000 C 
ATOM     14  C   UNL     1      -0.552  13.257  20.412  0.00  0.00    +0.000 C 
ATOM     15  C   UNL     1      -1.410  12.823  19.245  0.00  0.00    +0.000 C 
ATOM     16  C   UNL     1      -1.226  11.323  19.220  0.00  0.00    +0.000 C 
ATOM     17  O   UNL     1      -1.976  10.570  18.619  0.00  0.00    +0.000 OA
ENDBRANCH  11  12
ENDBRANCH   1   8
BRANCH   2  18
ATOM     18  C   UNL     1       3.764   3.932  19.489  0.00  0.00    +0.000 C 
BRANCH  18  19
ATOM     19  C   UNL     1       4.809   4.189  18.427  0.00  0.00    +0.000 A 
ATOM     20  C   UNL     1       6.131   4.564  18.747  0.00  0.00    +0.000 A 
ATOM     21  C   UNL     1       7.072   4.826  17.746  0.00  0.00    +0.000 A 
ATOM     22  C   UNL     1       6.693   4.676  16.425  0.00  0.00    +0.000 A 
ATOM     23  C   UNL     1       5.411   4.246  16.094  0.00  0.00    +0.000 A 
ATOM     24  C   UNL     1       4.467   3.993  17.079  0.00  0.00    +0.000 A 
ATOM     25  C   UNL     1       5.236   4.116  14.617  0.00  0.00    +0.000 C 
ATOM     26  C   UNL     1       6.593   4.567  14.052  0.00  0.00    +0.000 C 
ATOM     27  C   UNL     1       7.528   4.930  15.215  0.00  0.00    +0.000 C 
ENDBRANCH  18  19
ENDBRANCH   2  18
TORSDOF 4
ENDMDL
MODEL 6
REMARK VINA RESULT:      -8.2      6.377      7.800
REMARK  Name = 
REMARK  5 active torsions:
REMARK  status: ('A' for Active; 'I' for Inactive)
REMARK    1  A    between atoms: C_1  and  C_2
REMARK    2  A    between atoms: C_4  and  N_5
REMARK    3  A    between atoms: C_6  and  C_8
REMARK    4  A    between atoms: C_8  and  C_9
REMARK    5  A    between atoms: C_20  and  N_21
REMARK                            x       y       z     vdW  Elec       q    Type
REMARK                         _______ _______ _______ _____ _____    ______ ____
ROOT
ATOM      1  N   UNL     1       8.588   8.185  18.939  0.00  0.00    +0.000 N 
ATOM      2  C   UNL     1       7.868   7.434  18.018  0.00  0.00    +0.000 C 
ATOM      3  O   UNL     1       7.333   7.864  16.995  0.00  0.00    +0.000 OA
ATOM      4  H   UNL     1       8.805   7.758  19.831  0.00  0.00    +0.000 HD
ENDROOT
BRANCH   1   8
ATOM      5  C   UNL     1      11.011  12.121  20.588  0.00  0.00    +0.000 C 
ATOM      6  C   UNL     1      10.086  11.582  19.528  0.00  0.00    +0.000 A 
ATOM      7  C   UNL     1       9.722  10.229  19.691  0.00  0.00    +0.000 A 
ATOM      8  C   UNL     1       8.858   9.571  18.817  0.00  0.00    +0.000 A 
ATOM      9  C   UNL     1       8.264  10.316  17.805  0.00  0.00    +0.000 A 
ATOM     10  C   UNL     1       8.600  11.666  17.636  0.00  0.00    +0.000 A 
ATOM     11  C   UNL     1       9.535  12.323  18.461  0.00  0.00    +0.000 A 
BRANCH  11  12
ATOM     12  N   UNL     1       9.918  13.668  18.178  0.00  0.00    +0.000 N 
ATOM     13  C   UNL     1      10.949  14.001  17.224  0.00  0.00    +0.000 C 
ATOM     14  C   UNL     1      11.076  15.504  17.308  0.00  0.00    +0.000 C 
ATOM     15  C   UNL     1       9.668  15.952  17.627  0.00  0.00    +0.000 C 
ATOM     16  C   UNL     1       9.110  14.794  18.424  0.00  0.00    +0.000 C 
ATOM     17  O   UNL     1       8.109  14.884  19.118  0.00  0.00    +0.000 OA
ENDBRANCH  11  12
ENDBRANCH   1   8
BRANCH   2  18
ATOM     18  C   UNL     1       7.719   5.965  18.373  0.00  0.00    +0.000 C 
BRANCH  18  19
ATOM     19  C   UNL     1       6.350   5.386  18.098  0.00  0.00    +0.000 A 
ATOM     20  C   UNL     1       6.055   4.683  16.910  0.00  0.00    +0.000 A 
ATOM     21  C   UNL     1       4.772   4.182  16.665  0.00  0.00    +0.000 A 
ATOM     22  C   UNL     1       3.796   4.357  17.629  0.00  0.00    +0.000 A 
ATOM     23  C   UNL     1       4.088   4.993  18.832  0.00  0.00    +0.000 A 
ATOM     24  C   UNL     1       5.354   5.503  19.082  0.00  0.00    +0.000 A 
ATOM     25  C   UNL     1       2.901   5.034  19.736  0.00  0.00    +0.000 C 
ATOM     26  C   UNL     1       1.794   4.360  18.909  0.00  0.00    +0.000 C 
ATOM     27  C   UNL     1       2.370   3.928  17.553  0.00  0.00    +0.000 C 
ENDBRANCH  18  19
ENDBRANCH   2  18
TORSDOF 4
ENDMDL
MODEL 7
REMARK VINA RESULT:      -8.1      2.000      3.050
REMARK  Name = 
REMARK  5 active torsions:
REMARK  status: ('A' for Active; 'I' for Inactive)
REMARK    1  A    between atoms: C_1  and  C_2
REMARK    2  A    between atoms: C_4  and  N_5
REMARK    3  A    between atoms: C_6  and  C_8
REMARK    4  A    between atoms: C_8  and  C_9
REMARK    5  A    between atoms: C_20  and  N_21
REMARK                            x       y       z     vdW  Elec       q    Type
REMARK                         _______ _______ _______ _____ _____    ______ ____
ROOT
ATOM      1  N   UNL     1       2.433   6.798  20.409  0.00  0.00    +0.000 N 
ATOM      2  C   UNL     1       1.918   5.508  20.455  0.00  0.00    +0.000 C 
ATOM      3  O   UNL     1       0.729   5.208  20.567  0.00  0.00    +0.000 OA
ATOM      4  H   UNL     1       3.434   6.911  20.515  0.00  0.00    +0.000 HD
ENDROOT
BRANCH   1   8
ATOM      5  C   UNL     1      -0.338   9.899  23.015  0.00  0.00    +0.000 C 
ATOM      6  C   UNL     1       0.314   9.629  21.685  0.00  0.00    +0.000 A 
ATOM      7  C   UNL     1       1.008   8.404  21.601  0.00  0.00    +0.000 A 
ATOM      8  C   UNL     1       1.654   7.981  20.440  0.00  0.00    +0.000 A 
ATOM      9  C   UNL     1       1.517   8.762  19.299  0.00  0.00    +0.000 A 
ATOM     10  C   UNL     1       0.817   9.975  19.356  0.00  0.00    +0.000 A 
ATOM     11  C   UNL     1       0.230  10.455  20.544  0.00  0.00    +0.000 A 
BRANCH  11  12
ATOM     12  N   UNL     1      -0.379  11.745  20.569  0.00  0.00    +0.000 N 
ATOM     13  C   UNL     1      -1.799  11.940  20.396  0.00  0.00    +0.000 C 
ATOM     14  C   UNL     1      -1.984  13.439  20.410  0.00  0.00    +0.000 C 
ATOM     15  C   UNL     1      -0.902  13.911  21.356  0.00  0.00    +0.000 C 
ATOM     16  C   UNL     1       0.191  12.883  21.168  0.00  0.00    +0.000 C 
ATOM     17  O   UNL     1       1.345  13.066  21.526  0.00  0.00    +0.000 OA
ENDBRANCH  11  12
ENDBRANCH   1   8
BRANCH   2  18
ATOM     18  C   UNL     1       2.961   4.405  20.403  0.00  0.00    +0.000 C 
BRANCH  18  19
ATOM     19  C   UNL     1       3.677   4.277  19.077  0.00  0.00    +0.000 A 
ATOM     20  C   UNL     1       3.016   3.868  17.900  0.00  0.00    +0.000 A 
ATOM     21  C   UNL     1       3.707   3.728  16.693  0.00  0.00    +0.000 A 
ATOM     22  C   UNL     1       5.055   4.035  16.660  0.00  0.00    +0.000 A 
ATOM     23  C   UNL     1       5.708   4.500  17.798  0.00  0.00    +0.000 A 
ATOM     24  C   UNL     1       5.035   4.633  19.004  0.00  0.00    +0.000 A 
ATOM     25  C   UNL     1       7.144   4.805  17.525  0.00  0.00    +0.000 C 
ATOM     26  C   UNL     1       7.317   4.426  16.045  0.00  0.00    +0.000 C 
ATOM     27  C   UNL     1       5.975   3.928  15.491  0.00  0.00    +0.000 C 
ENDBRANCH  18  19
ENDBRANCH   2  18
TORSDOF 4
ENDMDL
MODEL 8
REMARK VINA RESULT:      -8.0      2.592     10.186
REMARK  Name = 
REMARK  5 active torsions:
REMARK  status: ('A' for Active; 'I' for Inactive)
REMARK    1  A    between atoms: C_1  and  C_2
REMARK    2  A    between atoms: C_4  and  N_5
REMARK    3  A    between atoms: C_6  and  C_8
REMARK    4  A    between atoms: C_8  and  C_9
REMARK    5  A    between atoms: C_20  and  N_21
REMARK                            x       y       z     vdW  Elec       q    Type
REMARK                         _______ _______ _______ _____ _____    ______ ____
ROOT
ATOM      1  N   UNL     1       1.092  10.311  19.535  0.00  0.00    +0.000 N 
ATOM      2  C   UNL     1      -0.179  10.737  19.171  0.00  0.00    +0.000 C 
ATOM      3  O   UNL     1      -0.982  10.108  18.480  0.00  0.00    +0.000 OA
ATOM      4  H   UNL     1       1.724  10.996  19.934  0.00  0.00    +0.000 HD
ENDROOT
BRANCH   1   8
ATOM      5  C   UNL     1       1.960   5.657  20.826  0.00  0.00    +0.000 C 
ATOM      6  C   UNL     1       2.065   6.685  19.732  0.00  0.00    +0.000 A 
ATOM      7  C   UNL     1       1.610   7.974  20.081  0.00  0.00    +0.000 A 
ATOM      8  C   UNL     1       1.651   9.053  19.200  0.00  0.00    +0.000 A 
ATOM      9  C   UNL     1       2.257   8.860  17.964  0.00  0.00    +0.000 A 
ATOM     10  C   UNL     1       2.731   7.592  17.603  0.00  0.00    +0.000 A 
ATOM     11  C   UNL     1       2.621   6.473  18.452  0.00  0.00    +0.000 A 
BRANCH  11  12
ATOM     12  N   UNL     1       3.025   5.184  17.992  0.00  0.00    +0.000 N 
ATOM     13  C   UNL     1       4.317   4.616  18.299  0.00  0.00    +0.000 C 
ATOM     14  C   UNL     1       4.344   3.303  17.552  0.00  0.00    +0.000 C 
ATOM     15  C   UNL     1       2.898   2.861  17.579  0.00  0.00    +0.000 C 
ATOM     16  C   UNL     1       2.139   4.168  17.588  0.00  0.00    +0.000 C 
ATOM     17  O   UNL     1       0.952   4.251  17.312  0.00  0.00    +0.000 OA
ENDBRANCH  11  12
ENDBRANCH   1   8
BRANCH   2  18
ATOM     18  C   UNL     1      -0.548  12.127  19.657  0.00  0.00    +0.000 C 
BRANCH  18  19
ATOM     19  C   UNL     1      -1.385  12.154  20.916  0.00  0.00    +0.000 A 
ATOM     20  C   UNL     1      -0.908  11.659  22.148  0.00  0.00    +0.000 A 
ATOM     21  C   UNL     1      -1.713  11.667  23.292  0.00  0.00    +0.000 A 
ATOM     22  C   UNL     1      -2.984  12.205  23.205  0.00  0.00    +0.000 A 
ATOM     23  C   UNL     1      -3.446  12.755  22.012  0.00  0.00    +0.000 A 
ATOM     24  C   UNL     1      -2.660  12.743  20.869  0.00  0.00    +0.000 A 
ATOM     25  C   UNL     1      -4.823  13.312  22.159  0.00  0.00    +0.000 C 
ATOM     26  C   UNL     1      -5.185  12.999  23.619  0.00  0.00    +0.000 C 
ATOM     27  C   UNL     1      -4.003  12.285  24.290  0.00  0.00    +0.000 C 
ENDBRANCH  18  19
ENDBRANCH   2  18
TORSDOF 4
ENDMDL
MODEL 9
REMARK VINA RESULT:      -7.9      1.699      2.737
REMARK  Name = 
REMARK  5 active torsions:
REMARK  status: ('A' for Active; 'I' for Inactive)
REMARK    1  A    between atoms: C_1  and  C_2
REMARK    2  A    between atoms: C_4  and  N_5
REMARK    3  A    between atoms: C_6  and  C_8
REMARK    4  A    between atoms: C_8  and  C_9
REMARK    5  A    between atoms: C_20  and  N_21
REMARK                            x       y       z     vdW  Elec       q    Type
REMARK                         _______ _______ _______ _____ _____    ______ ____
ROOT
ATOM      1  N   UNL     1       2.467   6.715  20.410  0.00  0.00    +0.000 N 
ATOM      2  C   UNL     1       1.946   5.428  20.457  0.00  0.00    +0.000 C 
ATOM      3  O   UNL     1       0.757   5.134  20.590  0.00  0.00    +0.000 OA
ATOM      4  H   UNL     1       3.471   6.822  20.497  0.00  0.00    +0.000 HD
ENDROOT
BRANCH   1   8
ATOM      5  C   UNL     1      -0.336   9.750  23.059  0.00  0.00    +0.000 C 
ATOM      6  C   UNL     1       0.342   9.518  21.734  0.00  0.00    +0.000 A 
ATOM      7  C   UNL     1       1.029   8.292  21.624  0.00  0.00    +0.000 A 
ATOM      8  C   UNL     1       1.696   7.902  20.464  0.00  0.00    +0.000 A 
ATOM      9  C   UNL     1       1.589   8.721  19.346  0.00  0.00    +0.000 A 
ATOM     10  C   UNL     1       0.896   9.937  19.429  0.00  0.00    +0.000 A 
ATOM     11  C   UNL     1       0.288  10.382  20.619  0.00  0.00    +0.000 A 
BRANCH  11  12
ATOM     12  N   UNL     1      -0.313  11.675  20.675  0.00  0.00    +0.000 N 
ATOM     13  C   UNL     1       0.373  12.832  21.202  0.00  0.00    +0.000 C 
ATOM     14  C   UNL     1      -0.650  13.942  21.144  0.00  0.00    +0.000 C 
ATOM     15  C   UNL     1      -1.468  13.593  19.921  0.00  0.00    +0.000 C 
ATOM     16  C   UNL     1      -1.399  12.084  19.879  0.00  0.00    +0.000 C 
ATOM     17  O   UNL     1      -2.168  11.400  19.221  0.00  0.00    +0.000 OA
ENDBRANCH  11  12
ENDBRANCH   1   8
BRANCH   2  18
ATOM     18  C   UNL     1       2.981   4.319  20.378  0.00  0.00    +0.000 C 
BRANCH  18  19
ATOM     19  C   UNL     1       3.703   4.224  19.052  0.00  0.00    +0.000 A 
ATOM     20  C   UNL     1       3.052   3.820  17.868  0.00  0.00    +0.000 A 
ATOM     21  C   UNL     1       3.748   3.710  16.660  0.00  0.00    +0.000 A 
ATOM     22  C   UNL     1       5.090   4.043  16.636  0.00  0.00    +0.000 A 
ATOM     23  C   UNL     1       5.732   4.505  17.782  0.00  0.00    +0.000 A 
ATOM     24  C   UNL     1       5.053   4.607  18.988  0.00  0.00    +0.000 A 
ATOM     25  C   UNL     1       7.161   4.841  17.516  0.00  0.00    +0.000 C 
ATOM     26  C   UNL     1       7.346   4.487  16.032  0.00  0.00    +0.000 C 
ATOM     27  C   UNL     1       6.014   3.971  15.468  0.00  0.00    +0.000 C 
ENDBRANCH  18  19
ENDBRANCH   2  18
TORSDOF 4
ENDMDL
