MODEL 1
REMARK VINA RESULT:      -8.5      0.000      0.000
REMARK  Name = 
REMARK  9 active torsions:
REMARK  status: ('A' for Active; 'I' for Inactive)
REMARK    1  A    between atoms: C_1  and  C_2
REMARK    2  A    between atoms: C_2  and  C_3
REMARK    3  A    between atoms: C_2  and  C_10
REMARK    4  A    between atoms: C_3  and  C_4
REMARK    5  A    between atoms: N_8  and  C_9
REMARK    6  A    between atoms: C_14  and  N_15
REMARK    7  A    between atoms: N_15  and  C_16
REMARK    8  A    between atoms: C_17  and  C_18
REMARK    9  A    between atoms: C_23  and  C_24
REMARK                            x       y       z     vdW  Elec       q    Type
REMARK                         _______ _______ _______ _____ _____    ______ ____
ROOT
ATOM      1  C   UNL     1       1.060   8.955  20.150  0.00  0.00    +0.000 A 
ATOM      2  C   UNL     1       1.207   9.533  18.882  0.00  0.00    +0.000 A 
ATOM      3  C   UNL     1       1.890   8.864  17.871  0.00  0.00    +0.000 A 
ATOM      4  C   UNL     1       2.475   7.628  18.129  0.00  0.00    +0.000 A 
ATOM      5  C   UNL     1       2.456   7.078  19.421  0.00  0.00    +0.000 A 
ATOM      6  C   UNL     1       1.721   7.739  20.415  0.00  0.00    +0.000 A 
ENDROOT
BRANCH   1   8
ATOM      7  C   UNL     1       0.591   9.298  22.622  0.00  0.00    +0.000 C 
ATOM      8  C   UNL     1       0.199   9.671  21.185  0.00  0.00    +0.000 C 
BRANCH   8   9
ATOM      9  C   UNL     1       0.208  11.197  20.949  0.00  0.00    +0.000 C 
BRANCH   9  10
ATOM     10  C   UNL     1      -1.168  11.779  20.992  0.00  0.00    +0.000 A 
ATOM     11  N   UNL     1      -1.844  12.089  22.081  0.00  0.00    +0.000 NA
ATOM     12  N   UNL     1      -3.039  12.645  21.697  0.00  0.00    +0.000 NA
ATOM     13  C   UNL     1      -3.077  12.653  20.393  0.00  0.00    +0.000 A 
ATOM     14  N   UNL     1      -1.928  12.115  19.903  0.00  0.00    +0.000 N 
ATOM     15  C   UNL     1      -1.595  11.939  18.517  0.00  0.00    +0.000 C 
ENDBRANCH   9  10
ENDBRANCH   8   9
ENDBRANCH   1   8
BRANCH   5  16
ATOM     16  N   UNL     1       3.270   5.977  19.769  0.00  0.00    +0.000 N 
ATOM     17  H   UNL     1       3.929   6.156  20.523  0.00  0.00    +0.000 HD
BRANCH  16  18
ATOM     18  C   UNL     1       3.326   4.687  19.194  0.00  0.00    +0.000 A 
ATOM     19  C   UNL     1       4.155   4.404  18.077  0.00  0.00    +0.000 A 
ATOM     20  C   UNL     1       4.100   3.175  17.412  0.00  0.00    +0.000 A 
ATOM     21  C   UNL     1       3.252   2.175  17.866  0.00  0.00    +0.000 A 
ATOM     22  C   UNL     1       2.461   2.408  18.984  0.00  0.00    +0.000 A 
ATOM     23  C   UNL     1       2.475   3.655  19.655  0.00  0.00    +0.000 A 
BRANCH  23  24
ATOM     24  C   UNL     1       1.534   3.792  20.828  0.00  0.00    +0.000 C 
ATOM     25  F   UNL     1       0.531   4.699  20.665  0.00  0.00    +0.000 F 
ATOM     26  F   UNL     1       0.929   2.615  21.154  0.00  0.00    +0.000 F 
ATOM     27  F   UNL     1       2.191   4.188  21.957  0.00  0.00    +0.000 F 
ENDBRANCH  23  24
BRANCH  19  28
ATOM     28  C   UNL     1       5.198   5.355  17.616  0.00  0.00    +0.000 C 
ATOM     29  O   UNL     1       6.024   5.830  18.389  0.00  0.00    +0.000 OA
ENDBRANCH  19  28
ENDBRANCH  16  18
ENDBRANCH   5  16
TORSDOF 7
ENDMDL
MODEL 2
REMARK VINA RESULT:      -8.5      0.642      1.008
REMARK  Name = 
REMARK  9 active torsions:
REMARK  status: ('A' for Active; 'I' for Inactive)
REMARK    1  A    between atoms: C_1  and  C_2
REMARK    2  A    between atoms: C_2  and  C_3
REMARK    3  A    between atoms: C_2  and  C_10
REMARK    4  A    between atoms: C_3  and  C_4
REMARK    5  A    between atoms: N_8  and  C_9
REMARK    6  A    between atoms: C_14  and  N_15
REMARK    7  A    between atoms: N_15  and  C_16
REMARK    8  A    between atoms: C_17  and  C_18
REMARK    9  A    between atoms: C_23  and  C_24
REMARK                            x       y       z     vdW  Elec       q    Type
REMARK                         _______ _______ _______ _____ _____    ______ ____
ROOT
ATOM      1  C   UNL     1       1.170   8.887  20.168  0.00  0.00    +0.000 A 
ATOM      2  C   UNL     1       1.270   9.442  18.885  0.00  0.00    +0.000 A 
ATOM      3  C   UNL     1       1.893   8.743  17.855  0.00  0.00    +0.000 A 
ATOM      4  C   UNL     1       2.466   7.500  18.108  0.00  0.00    +0.000 A 
ATOM      5  C   UNL     1       2.496   6.971  19.408  0.00  0.00    +0.000 A 
ATOM      6  C   UNL     1       1.819   7.662  20.422  0.00  0.00    +0.000 A 
ENDROOT
BRANCH   1   8
ATOM      7  C   UNL     1       0.739   9.193  22.652  0.00  0.00    +0.000 C 
ATOM      8  C   UNL     1       0.370   9.636  21.228  0.00  0.00    +0.000 C 
BRANCH   8   9
ATOM      9  C   UNL     1       0.496  11.164  21.036  0.00  0.00    +0.000 C 
BRANCH   9  10
ATOM     10  C   UNL     1      -0.616  11.905  21.703  0.00  0.00    +0.000 A 
ATOM     11  N   UNL     1      -0.644  12.293  22.963  0.00  0.00    +0.000 NA
ATOM     12  N   UNL     1      -1.808  12.988  23.170  0.00  0.00    +0.000 NA
ATOM     13  C   UNL     1      -2.473  13.002  22.047  0.00  0.00    +0.000 A 
ATOM     14  N   UNL     1      -1.770  12.331  21.097  0.00  0.00    +0.000 N 
ATOM     15  C   UNL     1      -2.170  12.117  19.734  0.00  0.00    +0.000 C 
ENDBRANCH   9  10
ENDBRANCH   8   9
ENDBRANCH   1   8
BRANCH   5  16
ATOM     16  N   UNL     1       3.303   5.860  19.738  0.00  0.00    +0.000 N 
ATOM     17  H   UNL     1       4.001   6.039  20.455  0.00  0.00    +0.000 HD
BRANCH  16  18
ATOM     18  C   UNL     1       3.305   4.559  19.184  0.00  0.00    +0.000 A 
ATOM     19  C   UNL     1       4.075   4.238  18.036  0.00  0.00    +0.000 A 
ATOM     20  C   UNL     1       3.964   2.999  17.397  0.00  0.00    +0.000 A 
ATOM     21  C   UNL     1       3.118   2.025  17.909  0.00  0.00    +0.000 A 
ATOM     22  C   UNL     1       2.385   2.296  19.058  0.00  0.00    +0.000 A 
ATOM     23  C   UNL     1       2.456   3.553  19.704  0.00  0.00    +0.000 A 
BRANCH  23  24
ATOM     24  C   UNL     1       1.574   3.731  20.917  0.00  0.00    +0.000 C 
ATOM     25  F   UNL     1       0.935   2.605  21.341  0.00  0.00    +0.000 F 
ATOM     26  F   UNL     1       2.257   4.206  21.996  0.00  0.00    +0.000 F 
ATOM     27  F   UNL     1       0.580   4.639  20.688  0.00  0.00    +0.000 F 
ENDBRANCH  23  24
BRANCH  19  28
ATOM     28  C   UNL     1       5.115   5.159  17.509  0.00  0.00    +0.000 C 
ATOM     29  O   UNL     1       5.781   5.871  18.252  0.00  0.00    +0.000 OA
ENDBRANCH  19  28
ENDBRANCH  16  18
ENDBRANCH   5  16
TORSDOF 7
ENDMDL
MODEL 3
REMARK VINA RESULT:      -8.4      0.563      1.317
REMARK  Name = 
REMARK  9 active torsions:
REMARK  status: ('A' for Active; 'I' for Inactive)
REMARK    1  A    between atoms: C_1  and  C_2
REMARK    2  A    between atoms: C_2  and  C_3
REMARK    3  A    between atoms: C_2  and  C_10
REMARK    4  A    between atoms: C_3  and  C_4
REMARK    5  A    between atoms: N_8  and  C_9
REMARK    6  A    between atoms: C_14  and  N_15
REMARK    7  A    between atoms: N_15  and  C_16
REMARK    8  A    between atoms: C_17  and  C_18
REMARK    9  A    between atoms: C_23  and  C_24
REMARK                            x       y       z     vdW  Elec       q    Type
REMARK                         _______ _______ _______ _____ _____    ______ ____
ROOT
ATOM      1  C   UNL     1       1.108   8.944  20.140  0.00  0.00    +0.000 A 
ATOM      2  C   UNL     1       1.240   9.500  18.860  0.00  0.00    +0.000 A 
ATOM      3  C   UNL     1       1.894   8.805  17.847  0.00  0.00    +0.000 A 
ATOM      4  C   UNL     1       2.466   7.565  18.115  0.00  0.00    +0.000 A 
ATOM      5  C   UNL     1       2.463   7.036  19.415  0.00  0.00    +0.000 A 
ATOM      6  C   UNL     1       1.756   7.723  20.411  0.00  0.00    +0.000 A 
ENDROOT
BRANCH   1   8
ATOM      7  C   UNL     1       0.630   9.271  22.612  0.00  0.00    +0.000 C 
ATOM      8  C   UNL     1       0.276   9.689  21.178  0.00  0.00    +0.000 C 
BRANCH   8   9
ATOM      9  C   UNL     1       0.373  11.217  20.969  0.00  0.00    +0.000 C 
BRANCH   9  10
ATOM     10  C   UNL     1      -0.965  11.833  20.716  0.00  0.00    +0.000 A 
ATOM     11  N   UNL     1      -1.709  11.656  19.643  0.00  0.00    +0.000 NA
ATOM     12  N   UNL     1      -2.882  12.346  19.818  0.00  0.00    +0.000 NA
ATOM     13  C   UNL     1      -2.830  12.939  20.979  0.00  0.00    +0.000 A 
ATOM     14  N   UNL     1      -1.644  12.652  21.580  0.00  0.00    +0.000 N 
ATOM     15  C   UNL     1      -1.204  13.124  22.864  0.00  0.00    +0.000 C 
ENDBRANCH   9  10
ENDBRANCH   8   9
ENDBRANCH   1   8
BRANCH   5  16
ATOM     16  N   UNL     1       3.267   5.928  19.767  0.00  0.00    +0.000 N 
ATOM     17  H   UNL     1       3.920   6.100  20.527  0.00  0.00    +0.000 HD
BRANCH  16  18
ATOM     18  C   UNL     1       3.319   4.640  19.187  0.00  0.00    +0.000 A 
ATOM     19  C   UNL     1       4.124   4.367  18.050  0.00  0.00    +0.000 A 
ATOM     20  C   UNL     1       4.063   3.139  17.383  0.00  0.00    +0.000 A 
ATOM     21  C   UNL     1       3.235   2.130  17.856  0.00  0.00    +0.000 A 
ATOM     22  C   UNL     1       2.470   2.354  18.994  0.00  0.00    +0.000 A 
ATOM     23  C   UNL     1       2.490   3.599  19.667  0.00  0.00    +0.000 A 
BRANCH  23  24
ATOM     24  C   UNL     1       1.577   3.725  20.864  0.00  0.00    +0.000 C 
ATOM     25  F   UNL     1       2.193   4.069  22.030  0.00  0.00    +0.000 F 
ATOM     26  F   UNL     1       0.588   4.642  20.674  0.00  0.00    +0.000 F 
ATOM     27  F   UNL     1       0.936   2.550  21.134  0.00  0.00    +0.000 F 
ENDBRANCH  23  24
BRANCH  19  28
ATOM     28  C   UNL     1       5.146   5.328  17.565  0.00  0.00    +0.000 C 
ATOM     29  O   UNL     1       5.919   5.890  18.335  0.00  0.00    +0.000 OA
ENDBRANCH  19  28
ENDBRANCH  16  18
ENDBRANCH   5  16
TORSDOF 7
ENDMDL
MODEL 4
REMARK VINA RESULT:      -8.3      1.104      1.686
REMARK  Name = 
REMARK  9 active torsions:
REMARK  status: ('A' for Active; 'I' for Inactive)
REMARK    1  A    between atoms: C_1  and  C_2
REMARK    2  A    between atoms: C_2  and  C_3
REMARK    3  A    between atoms: C_2  and  C_10
REMARK    4  A    between atoms: C_3  and  C_4
REMARK    5  A    between atoms: N_8  and  C_9
REMARK    6  A    between atoms: C_14  and  N_15
REMARK    7  A    between atoms: N_15  and  C_16
REMARK    8  A    between atoms: C_17  and  C_18
REMARK    9  A    between atoms: C_23  and  C_24
REMARK                            x       y       z     vdW  Elec       q    Type
REMARK                         _______ _______ _______ _____ _____    ______ ____
ROOT
ATOM      1  C   UNL     1       1.088   8.714  20.053  0.00  0.00    +0.000 A 
ATOM      2  C   UNL     1       1.360   9.374  18.846  0.00  0.00    +0.000 A 
ATOM      3  C   UNL     1       2.160   8.778  17.876  0.00  0.00    +0.000 A 
ATOM      4  C   UNL     1       2.736   7.535  18.119  0.00  0.00    +0.000 A 
ATOM      5  C   UNL     1       2.588   6.904  19.365  0.00  0.00    +0.000 A 
ATOM      6  C   UNL     1       1.738   7.492  20.312  0.00  0.00    +0.000 A 
ENDROOT
BRANCH   1   8
ATOM      7  C   UNL     1       0.754   9.645  22.392  0.00  0.00    +0.000 C 
ATOM      8  C   UNL     1       0.107   9.354  21.030  0.00  0.00    +0.000 C 
BRANCH   8   9
ATOM      9  C   UNL     1      -0.551  10.606  20.411  0.00  0.00    +0.000 C 
BRANCH   9  10
ATOM     10  C   UNL     1      -0.139  11.860  21.111  0.00  0.00    +0.000 A 
ATOM     11  N   UNL     1       1.022  12.473  20.983  0.00  0.00    +0.000 NA
ATOM     12  N   UNL     1       0.988  13.613  21.747  0.00  0.00    +0.000 NA
ATOM     13  C   UNL     1      -0.176  13.670  22.333  0.00  0.00    +0.000 A 
ATOM     14  N   UNL     1      -0.918  12.589  21.971  0.00  0.00    +0.000 N 
ATOM     15  C   UNL     1      -2.251  12.286  22.411  0.00  0.00    +0.000 C 
ENDBRANCH   9  10
ENDBRANCH   8   9
ENDBRANCH   1   8
BRANCH   5  16
ATOM     16  N   UNL     1       3.379   5.792  19.731  0.00  0.00    +0.000 N 
ATOM     17  H   UNL     1       4.064   5.978  20.459  0.00  0.00    +0.000 HD
BRANCH  16  18
ATOM     18  C   UNL     1       3.382   4.482  19.200  0.00  0.00    +0.000 A 
ATOM     19  C   UNL     1       4.185   4.131  18.084  0.00  0.00    +0.000 A 
ATOM     20  C   UNL     1       4.078   2.882  17.463  0.00  0.00    +0.000 A 
ATOM     21  C   UNL     1       3.202   1.929  17.963  0.00  0.00    +0.000 A 
ATOM     22  C   UNL     1       2.435   2.229  19.083  0.00  0.00    +0.000 A 
ATOM     23  C   UNL     1       2.503   3.496  19.709  0.00  0.00    +0.000 A 
BRANCH  23  24
ATOM     24  C   UNL     1       1.584   3.707  20.889  0.00  0.00    +0.000 C 
ATOM     25  F   UNL     1       0.967   2.584  21.353  0.00  0.00    +0.000 F 
ATOM     26  F   UNL     1       2.223   4.256  21.959  0.00  0.00    +0.000 F 
ATOM     27  F   UNL     1       0.569   4.571  20.589  0.00  0.00    +0.000 F 
ENDBRANCH  23  24
BRANCH  19  28
ATOM     28  C   UNL     1       5.253   5.028  17.575  0.00  0.00    +0.000 C 
ATOM     29  O   UNL     1       5.931   5.716  18.332  0.00  0.00    +0.000 OA
ENDBRANCH  19  28
ENDBRANCH  16  18
ENDBRANCH   5  16
TORSDOF 7
ENDMDL
MODEL 5
REMARK VINA RESULT:      -8.1      1.171      1.361
REMARK  Name = 
REMARK  9 active torsions:
REMARK  status: ('A' for Active; 'I' for Inactive)
REMARK    1  A    between atoms: C_1  and  C_2
REMARK    2  A    between atoms: C_2  and  C_3
REMARK    3  A    between atoms: C_2  and  C_10
REMARK    4  A    between atoms: C_3  and  C_4
REMARK    5  A    between atoms: N_8  and  C_9
REMARK    6  A    between atoms: C_14  and  N_15
REMARK    7  A    between atoms: N_15  and  C_16
REMARK    8  A    between atoms: C_17  and  C_18
REMARK    9  A    between atoms: C_23  and  C_24
REMARK                            x       y       z     vdW  Elec       q    Type
REMARK                         _______ _______ _______ _____ _____    ______ ____
ROOT
ATOM      1  C   UNL     1       1.114   8.990  20.202  0.00  0.00    +0.000 A 
ATOM      2  C   UNL     1       1.144   9.545  18.915  0.00  0.00    +0.000 A 
ATOM      3  C   UNL     1       1.735   8.858  17.859  0.00  0.00    +0.000 A 
ATOM      4  C   UNL     1       2.346   7.628  18.086  0.00  0.00    +0.000 A 
ATOM      5  C   UNL     1       2.445   7.102  19.384  0.00  0.00    +0.000 A 
ATOM      6  C   UNL     1       1.801   7.780  20.428  0.00  0.00    +0.000 A 
ENDROOT
BRANCH   1   8
ATOM      7  C   UNL     1       0.765   9.266  22.702  0.00  0.00    +0.000 C 
ATOM      8  C   UNL     1       0.347   9.723  21.297  0.00  0.00    +0.000 C 
BRANCH   8   9
ATOM      9  C   UNL     1       0.459  11.253  21.118  0.00  0.00    +0.000 C 
BRANCH   9  10
ATOM     10  C   UNL     1      -0.524  11.990  21.968  0.00  0.00    +0.000 A 
ATOM     11  N   UNL     1      -1.595  11.474  22.538  0.00  0.00    +0.000 NA
ATOM     12  N   UNL     1      -2.203  12.459  23.276  0.00  0.00    +0.000 NA
ATOM     13  C   UNL     1      -1.507  13.554  23.135  0.00  0.00    +0.000 A 
ATOM     14  N   UNL     1      -0.445  13.313  22.319  0.00  0.00    +0.000 N 
ATOM     15  C   UNL     1       0.550  14.266  21.913  0.00  0.00    +0.000 C 
ENDBRANCH   9  10
ENDBRANCH   8   9
ENDBRANCH   1   8
BRANCH   5  16
ATOM     16  N   UNL     1       3.291   6.009  19.678  0.00  0.00    +0.000 N 
ATOM     17  H   UNL     1       4.015   6.204  20.365  0.00  0.00    +0.000 HD
BRANCH  16  18
ATOM     18  C   UNL     1       3.298   4.709  19.124  0.00  0.00    +0.000 A 
ATOM     19  C   UNL     1       4.089   4.385  17.991  0.00  0.00    +0.000 A 
ATOM     20  C   UNL     1       3.985   3.146  17.350  0.00  0.00    +0.000 A 
ATOM     21  C   UNL     1       3.124   2.176  17.845  0.00  0.00    +0.000 A 
ATOM     22  C   UNL     1       2.370   2.450  18.979  0.00  0.00    +0.000 A 
ATOM     23  C   UNL     1       2.435   3.707  19.627  0.00  0.00    +0.000 A 
BRANCH  23  24
ATOM     24  C   UNL     1       1.530   3.888  20.823  0.00  0.00    +0.000 C 
ATOM     25  F   UNL     1       0.531   4.801  20.662  0.00  0.00    +0.000 F 
ATOM     26  F   UNL     1       0.924   2.728  21.202  0.00  0.00    +0.000 F 
ATOM     27  F   UNL     1       2.224   4.312  21.919  0.00  0.00    +0.000 F 
ENDBRANCH  23  24
BRANCH  19  28
ATOM     28  C   UNL     1       5.143   5.301  17.485  0.00  0.00    +0.000 C 
ATOM     29  O   UNL     1       4.893   6.182  16.669  0.00  0.00    +0.000 OA
ENDBRANCH  19  28
ENDBRANCH  16  18
ENDBRANCH   5  16
TORSDOF 7
ENDMDL
MODEL 6
REMARK VINA RESULT:      -8.0      1.070      1.478
REMARK  Name = 
REMARK  9 active torsions:
REMARK  status: ('A' for Active; 'I' for Inactive)
REMARK    1  A    between atoms: C_1  and  C_2
REMARK    2  A    between atoms: C_2  and  C_3
REMARK    3  A    between atoms: C_2  and  C_10
REMARK    4  A    between atoms: C_3  and  C_4
REMARK    5  A    between atoms: N_8  and  C_9
REMARK    6  A    between atoms: C_14  and  N_15
REMARK    7  A    between atoms: N_15  and  C_16
REMARK    8  A    between atoms: C_17  and  C_18
REMARK    9  A    between atoms: C_23  and  C_24
REMARK                            x       y       z     vdW  Elec       q    Type
REMARK                         _______ _______ _______ _____ _____    ______ ____
ROOT
ATOM      1  C   UNL     1       1.164   8.837  19.918  0.00  0.00    +0.000 A 
ATOM      2  C   UNL     1       1.428   9.403  18.663  0.00  0.00    +0.000 A 
ATOM      3  C   UNL     1       2.191   8.718  17.721  0.00  0.00    +0.000 A 
ATOM      4  C   UNL     1       2.739   7.479  18.040  0.00  0.00    +0.000 A 
ATOM      5  C   UNL     1       2.600   6.941  19.329  0.00  0.00    +0.000 A 
ATOM      6  C   UNL     1       1.786   7.617  20.249  0.00  0.00    +0.000 A 
ENDROOT
BRANCH   1   8
ATOM      7  C   UNL     1      -0.134   8.723  22.098  0.00  0.00    +0.000 C 
ATOM      8  C   UNL     1       0.222   9.570  20.867  0.00  0.00    +0.000 C 
BRANCH   8   9
ATOM      9  C   UNL     1       0.791  10.954  21.248  0.00  0.00    +0.000 C 
BRANCH   9  10
ATOM     10  C   UNL     1       0.047  12.067  20.586  0.00  0.00    +0.000 A 
ATOM     11  N   UNL     1      -1.249  12.297  20.680  0.00  0.00    +0.000 NA
ATOM     12  N   UNL     1      -1.532  13.439  19.974  0.00  0.00    +0.000 NA
ATOM     13  C   UNL     1      -0.418  13.878  19.455  0.00  0.00    +0.000 A 
ATOM     14  N   UNL     1       0.602  13.048  19.806  0.00  0.00    +0.000 N 
ATOM     15  C   UNL     1       1.980  13.185  19.425  0.00  0.00    +0.000 C 
ENDBRANCH   9  10
ENDBRANCH   8   9
ENDBRANCH   1   8
BRANCH   5  16
ATOM     16  N   UNL     1       3.368   5.835  19.757  0.00  0.00    +0.000 N 
ATOM     17  H   UNL     1       4.016   6.034  20.515  0.00  0.00    +0.000 HD
BRANCH  16  18
ATOM     18  C   UNL     1       3.393   4.514  19.254  0.00  0.00    +0.000 A 
ATOM     19  C   UNL     1       4.212   4.151  18.153  0.00  0.00    +0.000 A 
ATOM     20  C   UNL     1       4.127   2.888  17.557  0.00  0.00    +0.000 A 
ATOM     21  C   UNL     1       3.259   1.934  18.069  0.00  0.00    +0.000 A 
ATOM     22  C   UNL     1       2.478   2.246  19.175  0.00  0.00    +0.000 A 
ATOM     23  C   UNL     1       2.522   3.527  19.775  0.00  0.00    +0.000 A 
BRANCH  23  24
ATOM     24  C   UNL     1       1.589   3.750  20.941  0.00  0.00    +0.000 C 
ATOM     25  F   UNL     1       2.184   4.196  22.083  0.00  0.00    +0.000 F 
ATOM     26  F   UNL     1       0.600   4.643  20.658  0.00  0.00    +0.000 F 
ATOM     27  F   UNL     1       0.949   2.599  21.300  0.00  0.00    +0.000 F 
ENDBRANCH  23  24
BRANCH  19  28
ATOM     28  C   UNL     1       5.273   5.052  17.636  0.00  0.00    +0.000 C 
ATOM     29  O   UNL     1       6.405   4.644  17.397  0.00  0.00    +0.000 OA
ENDBRANCH  19  28
ENDBRANCH  16  18
ENDBRANCH   5  16
TORSDOF 7
ENDMDL
MODEL 7
REMARK VINA RESULT:      -8.0      1.438      1.671
REMARK  Name = 
REMARK  9 active torsions:
REMARK  status: ('A' for Active; 'I' for Inactive)
REMARK    1  A    between atoms: C_1  and  C_2
REMARK    2  A    between atoms: C_2  and  C_3
REMARK    3  A    between atoms: C_2  and  C_10
REMARK    4  A    between atoms: C_3  and  C_4
REMARK    5  A    between atoms: N_8  and  C_9
REMARK    6  A    between atoms: C_14  and  N_15
REMARK    7  A    between atoms: N_15  and  C_16
REMARK    8  A    between atoms: C_17  and  C_18
REMARK    9  A    between atoms: C_23  and  C_24
REMARK                            x       y       z     vdW  Elec       q    Type
REMARK                         _______ _______ _______ _____ _____    ______ ____
ROOT
ATOM      1  C   UNL     1       1.415   8.674  19.775  0.00  0.00    +0.000 A 
ATOM      2  C   UNL     1       1.787   9.238  18.546  0.00  0.00    +0.000 A 
ATOM      3  C   UNL     1       2.587   8.530  17.653  0.00  0.00    +0.000 A 
ATOM      4  C   UNL     1       3.065   7.270  17.999  0.00  0.00    +0.000 A 
ATOM      5  C   UNL     1       2.818   6.729  19.271  0.00  0.00    +0.000 A 
ATOM      6  C   UNL     1       1.968   7.430  20.138  0.00  0.00    +0.000 A 
ENDROOT
BRANCH   1   8
ATOM      7  C   UNL     1       0.833   9.378  22.144  0.00  0.00    +0.000 C 
ATOM      8  C   UNL     1       0.437   9.437  20.662  0.00  0.00    +0.000 C 
BRANCH   8   9
ATOM      9  C   UNL     1       0.250  10.885  20.159  0.00  0.00    +0.000 C 
BRANCH   9  10
ATOM     10  C   UNL     1      -0.848  10.991  19.152  0.00  0.00    +0.000 A 
ATOM     11  N   UNL     1      -1.741  10.060  18.879  0.00  0.00    +0.000 NA
ATOM     12  N   UNL     1      -2.607  10.562  17.940  0.00  0.00    +0.000 NA
ATOM     13  C   UNL     1      -2.225  11.775  17.648  0.00  0.00    +0.000 A 
ATOM     14  N   UNL     1      -1.121  12.090  18.379  0.00  0.00    +0.000 N 
ATOM     15  C   UNL     1      -0.396  13.329  18.336  0.00  0.00    +0.000 C 
ENDBRANCH   9  10
ENDBRANCH   8   9
ENDBRANCH   1   8
BRANCH   5  16
ATOM     16  N   UNL     1       3.513   5.593  19.742  0.00  0.00    +0.000 N 
ATOM     17  H   UNL     1       4.169   5.778  20.497  0.00  0.00    +0.000 HD
BRANCH  16  18
ATOM     18  C   UNL     1       3.457   4.257  19.285  0.00  0.00    +0.000 A 
ATOM     19  C   UNL     1       4.253   3.806  18.200  0.00  0.00    +0.000 A 
ATOM     20  C   UNL     1       4.092   2.531  17.649  0.00  0.00    +0.000 A 
ATOM     21  C   UNL     1       3.166   1.650  18.190  0.00  0.00    +0.000 A 
ATOM     22  C   UNL     1       2.404   2.048  19.281  0.00  0.00    +0.000 A 
ATOM     23  C   UNL     1       2.526   3.345  19.837  0.00  0.00    +0.000 A 
BRANCH  23  24
ATOM     24  C   UNL     1       1.607   3.665  20.992  0.00  0.00    +0.000 C 
ATOM     25  F   UNL     1       2.218   4.186  22.093  0.00  0.00    +0.000 F 
ATOM     26  F   UNL     1       0.626   4.547  20.652  0.00  0.00    +0.000 F 
ATOM     27  F   UNL     1       0.956   2.552  21.441  0.00  0.00    +0.000 F 
ENDBRANCH  23  24
BRANCH  19  28
ATOM     28  C   UNL     1       5.369   4.621  17.656  0.00  0.00    +0.000 C 
ATOM     29  O   UNL     1       5.663   4.597  16.466  0.00  0.00    +0.000 OA
ENDBRANCH  19  28
ENDBRANCH  16  18
ENDBRANCH   5  16
TORSDOF 7
ENDMDL
MODEL 8
REMARK VINA RESULT:      -7.9      1.127      1.636
REMARK  Name = 
REMARK  9 active torsions:
REMARK  status: ('A' for Active; 'I' for Inactive)
REMARK    1  A    between atoms: C_1  and  C_2
REMARK    2  A    between atoms: C_2  and  C_3
REMARK    3  A    between atoms: C_2  and  C_10
REMARK    4  A    between atoms: C_3  and  C_4
REMARK    5  A    between atoms: N_8  and  C_9
REMARK    6  A    between atoms: C_14  and  N_15
REMARK    7  A    between atoms: N_15  and  C_16
REMARK    8  A    between atoms: C_17  and  C_18
REMARK    9  A    between atoms: C_23  and  C_24
REMARK                            x       y       z     vdW  Elec       q    Type
REMARK                         _______ _______ _______ _____ _____    ______ ____
ROOT
ATOM      1  C   UNL     1       1.070   8.782  20.012  0.00  0.00    +0.000 A 
ATOM      2  C   UNL     1       1.274   9.357  18.750  0.00  0.00    +0.000 A 
ATOM      3  C   UNL     1       2.012   8.689  17.776  0.00  0.00    +0.000 A 
ATOM      4  C   UNL     1       2.594   7.460  18.069  0.00  0.00    +0.000 A 
ATOM      5  C   UNL     1       2.517   6.915  19.361  0.00  0.00    +0.000 A 
ATOM      6  C   UNL     1       1.728   7.573  20.314  0.00  0.00    +0.000 A 
ENDROOT
BRANCH   1   8
ATOM      7  C   UNL     1      -0.408   8.539  22.063  0.00  0.00    +0.000 C 
ATOM      8  C   UNL     1       0.152   9.495  21.000  0.00  0.00    +0.000 C 
BRANCH   8   9
ATOM      9  C   UNL     1       0.858  10.720  21.622  0.00  0.00    +0.000 C 
BRANCH   9  10
ATOM     10  C   UNL     1       0.188  12.002  21.249  0.00  0.00    +0.000 A 
ATOM     11  N   UNL     1       0.559  12.818  20.282  0.00  0.00    +0.000 NA
ATOM     12  N   UNL     1      -0.343  13.850  20.225  0.00  0.00    +0.000 NA
ATOM     13  C   UNL     1      -1.235  13.657  21.158  0.00  0.00    +0.000 A 
ATOM     14  N   UNL     1      -0.943  12.512  21.832  0.00  0.00    +0.000 N 
ATOM     15  C   UNL     1      -1.680  11.963  22.935  0.00  0.00    +0.000 C 
ENDBRANCH   9  10
ENDBRANCH   8   9
ENDBRANCH   1   8
BRANCH   5  16
ATOM     16  N   UNL     1       3.322   5.823  19.754  0.00  0.00    +0.000 N 
ATOM     17  H   UNL     1       3.969   6.022  20.513  0.00  0.00    +0.000 HD
BRANCH  16  18
ATOM     18  C   UNL     1       3.383   4.517  19.217  0.00  0.00    +0.000 A 
ATOM     19  C   UNL     1       4.180   4.214  18.082  0.00  0.00    +0.000 A 
ATOM     20  C   UNL     1       4.127   2.964  17.457  0.00  0.00    +0.000 A 
ATOM     21  C   UNL     1       3.315   1.963  17.970  0.00  0.00    +0.000 A 
ATOM     22  C   UNL     1       2.557   2.217  19.108  0.00  0.00    +0.000 A 
ATOM     23  C   UNL     1       2.570   3.483  19.739  0.00  0.00    +0.000 A 
BRANCH  23  24
ATOM     24  C   UNL     1       1.666   3.640  20.939  0.00  0.00    +0.000 C 
ATOM     25  F   UNL     1       2.298   3.963  22.103  0.00  0.00    +0.000 F 
ATOM     26  F   UNL     1       0.708   4.589  20.753  0.00  0.00    +0.000 F 
ATOM     27  F   UNL     1       0.988   2.486  21.212  0.00  0.00    +0.000 F 
ENDBRANCH  23  24
BRANCH  19  28
ATOM     28  C   UNL     1       5.188   5.170  17.556  0.00  0.00    +0.000 C 
ATOM     29  O   UNL     1       5.094   5.651  16.431  0.00  0.00    +0.000 OA
ENDBRANCH  19  28
ENDBRANCH  16  18
ENDBRANCH   5  16
TORSDOF 7
ENDMDL
MODEL 9
REMARK VINA RESULT:      -7.9      1.058      1.265
REMARK  Name = 
REMARK  9 active torsions:
REMARK  status: ('A' for Active; 'I' for Inactive)
REMARK    1  A    between atoms: C_1  and  C_2
REMARK    2  A    between atoms: C_2  and  C_3
REMARK    3  A    between atoms: C_2  and  C_10
REMARK    4  A    between atoms: C_3  and  C_4
REMARK    5  A    between atoms: N_8  and  C_9
REMARK    6  A    between atoms: C_14  and  N_15
REMARK    7  A    between atoms: N_15  and  C_16
REMARK    8  A    between atoms: C_17  and  C_18
REMARK    9  A    between atoms: C_23  and  C_24
REMARK                            x       y       z     vdW  Elec       q    Type
REMARK                         _______ _______ _______ _____ _____    ______ ____
ROOT
ATOM      1  C   UNL     1       1.174   8.926  20.140  0.00  0.00    +0.000 A 
ATOM      2  C   UNL     1       1.390   9.358  18.824  0.00  0.00    +0.000 A 
ATOM      3  C   UNL     1       1.999   8.522  17.893  0.00  0.00    +0.000 A 
ATOM      4  C   UNL     1       2.443   7.261  18.279  0.00  0.00    +0.000 A 
ATOM      5  C   UNL     1       2.357   6.845  19.617  0.00  0.00    +0.000 A 
ATOM      6  C   UNL     1       1.695   7.676  20.531  0.00  0.00    +0.000 A 
ENDROOT
BRANCH   1   8
ATOM      7  C   UNL     1       0.473   9.350  22.544  0.00  0.00    +0.000 C 
ATOM      8  C   UNL     1       0.392   9.830  21.087  0.00  0.00    +0.000 C 
BRANCH   8   9
ATOM      9  C   UNL     1       0.828  11.304  20.927  0.00  0.00    +0.000 C 
BRANCH   9  10
ATOM     10  C   UNL     1      -0.327  12.197  20.610  0.00  0.00    +0.000 A 
ATOM     11  N   UNL     1      -1.547  11.806  20.298  0.00  0.00    +0.000 NA
ATOM     12  N   UNL     1      -2.325  12.925  20.134  0.00  0.00    +0.000 NA
ATOM     13  C   UNL     1      -1.571  13.971  20.333  0.00  0.00    +0.000 A 
ATOM     14  N   UNL     1      -0.306  13.568  20.630  0.00  0.00    +0.000 N 
ATOM     15  C   UNL     1       0.816  14.420  20.905  0.00  0.00    +0.000 C 
ENDBRANCH   9  10
ENDBRANCH   8   9
ENDBRANCH   1   8
BRANCH   5  16
ATOM     16  N   UNL     1       3.041   5.701  20.083  0.00  0.00    +0.000 N 
ATOM     17  H   UNL     1       3.447   5.795  21.011  0.00  0.00    +0.000 HD
BRANCH  16  18
ATOM     18  C   UNL     1       3.276   4.470  19.429  0.00  0.00    +0.000 A 
ATOM     19  C   UNL     1       4.423   4.263  18.617  0.00  0.00    +0.000 A 
ATOM     20  C   UNL     1       4.582   3.106  17.849  0.00  0.00    +0.000 A 
ATOM     21  C   UNL     1       3.629   2.098  17.902  0.00  0.00    +0.000 A 
ATOM     22  C   UNL     1       2.518   2.254  18.722  0.00  0.00    +0.000 A 
ATOM     23  C   UNL     1       2.319   3.430  19.484  0.00  0.00    +0.000 A 
BRANCH  23  24
ATOM     24  C   UNL     1       1.048   3.489  20.298  0.00  0.00    +0.000 C 
ATOM     25  F   UNL     1       0.442   4.709  20.340  0.00  0.00    +0.000 F 
ATOM     26  F   UNL     1       0.102   2.613  19.858  0.00  0.00    +0.000 F 
ATOM     27  F   UNL     1       1.271   3.158  21.604  0.00  0.00    +0.000 F 
ENDBRANCH  23  24
BRANCH  19  28
ATOM     28  C   UNL     1       5.562   5.216  18.616  0.00  0.00    +0.000 C 
ATOM     29  O   UNL     1       6.157   5.510  19.648  0.00  0.00    +0.000 OA
ENDBRANCH  19  28
ENDBRANCH  16  18
ENDBRANCH   5  16
TORSDOF 7
ENDMDL
