MODEL 1
REMARK VINA RESULT:      -8.5      0.000      0.000
REMARK  Name = 
REMARK  5 active torsions:
REMARK  status: ('A' for Active; 'I' for Inactive)
REMARK    1  A    between atoms: C_1  and  C_2
REMARK    2  A    between atoms: C_4  and  C_5
REMARK    3  A    between atoms: C_7  and  N_8
REMARK    4  A    between atoms: C_12  and  C_14
REMARK    5  A    between atoms: C_27  and  C_28
REMARK                            x       y       z     vdW  Elec       q    Type
REMARK                         _______ _______ _______ _____ _____    ______ ____
ROOT
ATOM      1  N   UNL     1      -0.929  10.555  18.816  0.00  0.00    +0.000 N 
ATOM      2  N   UNL     1      -0.181   9.449  18.607  0.00  0.00    +0.000 NA
ATOM      3  C   UNL     1       0.895   9.577  19.372  0.00  0.00    +0.000 A 
ATOM      4  N   UNL     1       1.974   8.709  19.367  0.00  0.00    +0.000 N 
ATOM      5  C   UNL     1       2.098   7.643  18.493  0.00  0.00    +0.000 C 
ATOM      6  O   UNL     1       1.296   7.339  17.610  0.00  0.00    +0.000 OA
ATOM      7  C   UNL     1       0.765  10.698  20.224  0.00  0.00    +0.000 A 
ATOM      8  C   UNL     1      -0.440  11.289  19.886  0.00  0.00    +0.000 A 
ATOM      9  C   UNL     1      -1.173  12.393  20.556  0.00  0.00    +0.000 C 
ATOM     10  H   UNL     1       2.705   8.891  20.041  0.00  0.00    +0.000 HD
ENDROOT
BRANCH   5  11
ATOM     11  C   UNL     1       3.356   6.786  18.708  0.00  0.00    +0.000 C 
ATOM     12  C   UNL     1       3.707   5.902  17.504  0.00  0.00    +0.000 C 
ATOM     13  C   UNL     1       2.819   4.663  17.361  0.00  0.00    +0.000 C 
ATOM     14  C   UNL     1       2.693   3.859  18.656  0.00  0.00    +0.000 C 
ATOM     15  C   UNL     1       2.336   4.720  19.863  0.00  0.00    +0.000 C 
ATOM     16  C   UNL     1       3.247   5.945  19.996  0.00  0.00    +0.000 C 
ATOM     17  N   UNL     1       3.881   3.061  18.904  0.00  0.00    +0.000 N 
ATOM     18  C   UNL     1       3.621   1.712  18.894  0.00  0.00    +0.000 C 
ATOM     19  O   UNL     1       4.453   0.840  19.065  0.00  0.00    +0.000 OA
ATOM     20  N   UNL     1       2.305   1.528  18.654  0.00  0.00    +0.000 N 
ATOM     21  C   UNL     1       1.668   2.718  18.485  0.00  0.00    +0.000 C 
ATOM     22  O   UNL     1       0.479   2.839  18.230  0.00  0.00    +0.000 OA
ATOM     23  H   UNL     1       4.814   3.408  19.083  0.00  0.00    +0.000 HD
ATOM     24  H   UNL     1       1.860   0.629  18.587  0.00  0.00    +0.000 HD
ENDBRANCH   5  11
BRANCH   1  31
ATOM     25  C   UNL     1      -3.141  10.096  14.403  0.00  0.00    +0.000 C 
ATOM     26  C   UNL     1      -3.151  10.608  15.814  0.00  0.00    +0.000 A 
ATOM     27  C   UNL     1      -4.280  11.240  16.346  0.00  0.00    +0.000 A 
ATOM     28  C   UNL     1      -4.304  11.659  17.683  0.00  0.00    +0.000 A 
ATOM     29  C   UNL     1      -5.508  12.354  18.248  0.00  0.00    +0.000 C 
ATOM     30  C   UNL     1      -3.188  11.422  18.497  0.00  0.00    +0.000 A 
ATOM     31  C   UNL     1      -2.040  10.816  17.967  0.00  0.00    +0.000 A 
ATOM     32  C   UNL     1      -2.027  10.414  16.626  0.00  0.00    +0.000 A 
ENDBRANCH   1  31
TORSDOF 2
ENDMDL
MODEL 2
REMARK VINA RESULT:      -8.5      1.352      2.037
REMARK  Name = 
REMARK  5 active torsions:
REMARK  status: ('A' for Active; 'I' for Inactive)
REMARK    1  A    between atoms: C_1  and  C_2
REMARK    2  A    between atoms: C_4  and  C_5
REMARK    3  A    between atoms: C_7  and  N_8
REMARK    4  A    between atoms: C_12  and  C_14
REMARK    5  A    between atoms: C_27  and  C_28
REMARK                            x       y       z     vdW  Elec       q    Type
REMARK                         _______ _______ _______ _____ _____    ______ ____
ROOT
ATOM      1  N   UNL     1      -0.238   9.874  20.653  0.00  0.00    +0.000 N 
ATOM      2  N   UNL     1       0.478   9.075  19.832  0.00  0.00    +0.000 NA
ATOM      3  C   UNL     1       1.384   8.475  20.593  0.00  0.00    +0.000 A 
ATOM      4  N   UNL     1       2.396   7.656  20.119  0.00  0.00    +0.000 N 
ATOM      5  C   UNL     1       2.637   7.435  18.774  0.00  0.00    +0.000 C 
ATOM      6  O   UNL     1       2.014   7.937  17.839  0.00  0.00    +0.000 OA
ATOM      7  C   UNL     1       1.144   8.753  21.958  0.00  0.00    +0.000 A 
ATOM      8  C   UNL     1       0.064   9.618  21.982  0.00  0.00    +0.000 A 
ATOM      9  C   UNL     1      -0.730  10.108  23.137  0.00  0.00    +0.000 C 
ATOM     10  H   UNL     1       2.984   7.216  20.812  0.00  0.00    +0.000 HD
ENDROOT
BRANCH   5  11
ATOM     11  C   UNL     1       3.780   6.447  18.486  0.00  0.00    +0.000 C 
ATOM     12  C   UNL     1       3.538   5.577  17.246  0.00  0.00    +0.000 C 
ATOM     13  C   UNL     1       2.537   4.439  17.469  0.00  0.00    +0.000 C 
ATOM     14  C   UNL     1       2.840   3.606  18.715  0.00  0.00    +0.000 C 
ATOM     15  C   UNL     1       3.074   4.455  19.961  0.00  0.00    +0.000 C 
ATOM     16  C   UNL     1       4.091   5.576  19.720  0.00  0.00    +0.000 C 
ATOM     17  N   UNL     1       3.937   2.684  18.485  0.00  0.00    +0.000 N 
ATOM     18  C   UNL     1       3.551   1.369  18.585  0.00  0.00    +0.000 C 
ATOM     19  O   UNL     1       4.285   0.412  18.423  0.00  0.00    +0.000 OA
ATOM     20  N   UNL     1       2.233   1.328  18.879  0.00  0.00    +0.000 N 
ATOM     21  C   UNL     1       1.712   2.582  18.965  0.00  0.00    +0.000 C 
ATOM     22  O   UNL     1       0.538   2.831  19.194  0.00  0.00    +0.000 OA
ATOM     23  H   UNL     1       4.898   2.928  18.283  0.00  0.00    +0.000 HD
ATOM     24  H   UNL     1       1.704   0.482  18.997  0.00  0.00    +0.000 HD
ENDBRANCH   5  11
BRANCH   1  31
ATOM     25  C   UNL     1      -3.369  11.180  17.039  0.00  0.00    +0.000 C 
ATOM     26  C   UNL     1      -2.682  11.489  18.336  0.00  0.00    +0.000 A 
ATOM     27  C   UNL     1      -2.997  12.642  19.064  0.00  0.00    +0.000 A 
ATOM     28  C   UNL     1      -2.396  12.893  20.305  0.00  0.00    +0.000 A 
ATOM     29  C   UNL     1      -2.719  14.138  21.077  0.00  0.00    +0.000 C 
ATOM     30  C   UNL     1      -1.485  11.964  20.827  0.00  0.00    +0.000 A 
ATOM     31  C   UNL     1      -1.139  10.821  20.093  0.00  0.00    +0.000 A 
ATOM     32  C   UNL     1      -1.739  10.591  18.850  0.00  0.00    +0.000 A 
ENDBRANCH   1  31
TORSDOF 2
ENDMDL
MODEL 3
REMARK VINA RESULT:      -8.4      3.428      9.063
REMARK  Name = 
REMARK  5 active torsions:
REMARK  status: ('A' for Active; 'I' for Inactive)
REMARK    1  A    between atoms: C_1  and  C_2
REMARK    2  A    between atoms: C_4  and  C_5
REMARK    3  A    between atoms: C_7  and  N_8
REMARK    4  A    between atoms: C_12  and  C_14
REMARK    5  A    between atoms: C_27  and  C_28
REMARK                            x       y       z     vdW  Elec       q    Type
REMARK                         _______ _______ _______ _____ _____    ______ ____
ROOT
ATOM      1  N   UNL     1       3.634   6.057  18.747  0.00  0.00    +0.000 N 
ATOM      2  N   UNL     1       3.245   7.329  18.505  0.00  0.00    +0.000 NA
ATOM      3  C   UNL     1       2.088   7.490  19.134  0.00  0.00    +0.000 A 
ATOM      4  N   UNL     1       1.293   8.621  19.046  0.00  0.00    +0.000 N 
ATOM      5  C   UNL     1       1.571   9.691  18.213  0.00  0.00    +0.000 C 
ATOM      6  O   UNL     1       2.528   9.775  17.443  0.00  0.00    +0.000 OA
ATOM      7  C   UNL     1       1.805   6.365  19.942  0.00  0.00    +0.000 A 
ATOM      8  C   UNL     1       2.837   5.471  19.718  0.00  0.00    +0.000 A 
ATOM      9  C   UNL     1       3.155   4.200  20.417  0.00  0.00    +0.000 C 
ATOM     10  H   UNL     1       0.463   8.637  19.622  0.00  0.00    +0.000 HD
ENDROOT
BRANCH   5  11
ATOM     11  C   UNL     1       0.575  10.858  18.322  0.00  0.00    +0.000 C 
ATOM     12  C   UNL     1       1.068  12.001  19.219  0.00  0.00    +0.000 C 
ATOM     13  C   UNL     1       0.968  11.704  20.718  0.00  0.00    +0.000 C 
ATOM     14  C   UNL     1      -0.408  11.184  21.139  0.00  0.00    +0.000 C 
ATOM     15  C   UNL     1      -0.909  10.040  20.263  0.00  0.00    +0.000 C 
ATOM     16  C   UNL     1      -0.816  10.366  18.769  0.00  0.00    +0.000 C 
ATOM     17  N   UNL     1      -1.380  12.260  21.220  0.00  0.00    +0.000 N 
ATOM     18  C   UNL     1      -1.860  12.441  22.495  0.00  0.00    +0.000 C 
ATOM     19  O   UNL     1      -2.674  13.285  22.820  0.00  0.00    +0.000 OA
ATOM     20  N   UNL     1      -1.271  11.539  23.309  0.00  0.00    +0.000 N 
ATOM     21  C   UNL     1      -0.392  10.761  22.623  0.00  0.00    +0.000 C 
ATOM     22  O   UNL     1       0.295   9.883  23.123  0.00  0.00    +0.000 OA
ATOM     23  H   UNL     1      -1.710  12.833  20.455  0.00  0.00    +0.000 HD
ATOM     24  H   UNL     1      -1.445  11.467  24.297  0.00  0.00    +0.000 HD
ENDBRANCH   5  11
BRANCH   1  31
ATOM     25  C   UNL     1       5.513   4.348  14.491  0.00  0.00    +0.000 C 
ATOM     26  C   UNL     1       5.679   4.670  15.947  0.00  0.00    +0.000 A 
ATOM     27  C   UNL     1       6.923   4.552  16.576  0.00  0.00    +0.000 A 
ATOM     28  C   UNL     1       7.084   4.914  17.920  0.00  0.00    +0.000 A 
ATOM     29  C   UNL     1       8.413   4.769  18.601  0.00  0.00    +0.000 C 
ATOM     30  C   UNL     1       5.986   5.418  18.631  0.00  0.00    +0.000 A 
ATOM     31  C   UNL     1       4.728   5.513  18.020  0.00  0.00    +0.000 A 
ATOM     32  C   UNL     1       4.581   5.136  16.680  0.00  0.00    +0.000 A 
ENDBRANCH   1  31
TORSDOF 2
ENDMDL
MODEL 4
REMARK VINA RESULT:      -8.4      3.409      8.996
REMARK  Name = 
REMARK  5 active torsions:
REMARK  status: ('A' for Active; 'I' for Inactive)
REMARK    1  A    between atoms: C_1  and  C_2
REMARK    2  A    between atoms: C_4  and  C_5
REMARK    3  A    between atoms: C_7  and  N_8
REMARK    4  A    between atoms: C_12  and  C_14
REMARK    5  A    between atoms: C_27  and  C_28
REMARK                            x       y       z     vdW  Elec       q    Type
REMARK                         _______ _______ _______ _____ _____    ______ ____
ROOT
ATOM      1  N   UNL     1       2.629   6.315  19.221  0.00  0.00    +0.000 N 
ATOM      2  N   UNL     1       2.511   7.600  18.817  0.00  0.00    +0.000 NA
ATOM      3  C   UNL     1       1.628   8.166  19.630  0.00  0.00    +0.000 A 
ATOM      4  N   UNL     1       1.136   9.453  19.487  0.00  0.00    +0.000 N 
ATOM      5  C   UNL     1       1.444  10.278  18.419  0.00  0.00    +0.000 C 
ATOM      6  O   UNL     1       2.164   9.982  17.465  0.00  0.00    +0.000 OA
ATOM      7  C   UNL     1       1.295   7.288  20.686  0.00  0.00    +0.000 A 
ATOM      8  C   UNL     1       1.987   6.116  20.434  0.00  0.00    +0.000 A 
ATOM      9  C   UNL     1       2.154   4.913  21.288  0.00  0.00    +0.000 C 
ATOM     10  H   UNL     1       0.511   9.781  20.209  0.00  0.00    +0.000 HD
ENDROOT
BRANCH   5  11
ATOM     11  C   UNL     1       0.823  11.682  18.499  0.00  0.00    +0.000 C 
ATOM     12  C   UNL     1       1.503  12.593  19.530  0.00  0.00    +0.000 C 
ATOM     13  C   UNL     1       1.125  12.283  20.981  0.00  0.00    +0.000 C 
ATOM     14  C   UNL     1      -0.385  12.179  21.202  0.00  0.00    +0.000 C 
ATOM     15  C   UNL     1      -1.077  11.269  20.191  0.00  0.00    +0.000 C 
ATOM     16  C   UNL     1      -0.697  11.609  18.746  0.00  0.00    +0.000 C 
ATOM     17  N   UNL     1      -1.007  13.490  21.251  0.00  0.00    +0.000 N 
ATOM     18  C   UNL     1      -1.578  13.757  22.472  0.00  0.00    +0.000 C 
ATOM     19  O   UNL     1      -2.148  14.792  22.764  0.00  0.00    +0.000 OA
ATOM     20  N   UNL     1      -1.387  12.692  23.279  0.00  0.00    +0.000 N 
ATOM     21  C   UNL     1      -0.688  11.714  22.642  0.00  0.00    +0.000 C 
ATOM     22  O   UNL     1      -0.357  10.653  23.150  0.00  0.00    +0.000 OA
ATOM     23  H   UNL     1      -1.053  14.164  20.498  0.00  0.00    +0.000 HD
ATOM     24  H   UNL     1      -1.703  12.637  24.232  0.00  0.00    +0.000 HD
ENDBRANCH   5  11
BRANCH   1  31
ATOM     25  C   UNL     1       3.583   1.633  17.903  0.00  0.00    +0.000 C 
ATOM     26  C   UNL     1       3.823   3.105  17.733  0.00  0.00    +0.000 A 
ATOM     27  C   UNL     1       4.644   3.590  16.709  0.00  0.00    +0.000 A 
ATOM     28  C   UNL     1       4.813   4.968  16.519  0.00  0.00    +0.000 A 
ATOM     29  C   UNL     1       5.708   5.488  15.432  0.00  0.00    +0.000 C 
ATOM     30  C   UNL     1       4.135   5.865  17.355  0.00  0.00    +0.000 A 
ATOM     31  C   UNL     1       3.334   5.390  18.403  0.00  0.00    +0.000 A 
ATOM     32  C   UNL     1       3.185   4.011  18.588  0.00  0.00    +0.000 A 
ENDBRANCH   1  31
TORSDOF 2
ENDMDL
MODEL 5
REMARK VINA RESULT:      -8.4      0.111      1.607
REMARK  Name = 
REMARK  5 active torsions:
REMARK  status: ('A' for Active; 'I' for Inactive)
REMARK    1  A    between atoms: C_1  and  C_2
REMARK    2  A    between atoms: C_4  and  C_5
REMARK    3  A    between atoms: C_7  and  N_8
REMARK    4  A    between atoms: C_12  and  C_14
REMARK    5  A    between atoms: C_27  and  C_28
REMARK                            x       y       z     vdW  Elec       q    Type
REMARK                         _______ _______ _______ _____ _____    ______ ____
ROOT
ATOM      1  N   UNL     1      -1.001  10.417  18.871  0.00  0.00    +0.000 N 
ATOM      2  N   UNL     1      -0.233   9.328  18.648  0.00  0.00    +0.000 NA
ATOM      3  C   UNL     1       0.844   9.470  19.411  0.00  0.00    +0.000 A 
ATOM      4  N   UNL     1       1.939   8.622  19.394  0.00  0.00    +0.000 N 
ATOM      5  C   UNL     1       2.080   7.568  18.509  0.00  0.00    +0.000 C 
ATOM      6  O   UNL     1       1.281   7.257  17.625  0.00  0.00    +0.000 OA
ATOM      7  C   UNL     1       0.695  10.580  20.274  0.00  0.00    +0.000 A 
ATOM      8  C   UNL     1      -0.522  11.150  19.946  0.00  0.00    +0.000 A 
ATOM      9  C   UNL     1      -1.274  12.234  20.630  0.00  0.00    +0.000 C 
ATOM     10  H   UNL     1       2.669   8.812  20.067  0.00  0.00    +0.000 HD
ENDROOT
BRANCH   5  11
ATOM     11  C   UNL     1       3.355   6.733  18.711  0.00  0.00    +0.000 C 
ATOM     12  C   UNL     1       3.705   5.850  17.505  0.00  0.00    +0.000 C 
ATOM     13  C   UNL     1       2.838   4.595  17.379  0.00  0.00    +0.000 C 
ATOM     14  C   UNL     1       2.742   3.794  18.679  0.00  0.00    +0.000 C 
ATOM     15  C   UNL     1       2.385   4.655  19.887  0.00  0.00    +0.000 C 
ATOM     16  C   UNL     1       3.278   5.896  20.003  0.00  0.00    +0.000 C 
ATOM     17  N   UNL     1       3.946   3.018  18.915  0.00  0.00    +0.000 N 
ATOM     18  C   UNL     1       3.709   1.665  18.913  0.00  0.00    +0.000 C 
ATOM     19  O   UNL     1       4.558   0.808  19.077  0.00  0.00    +0.000 OA
ATOM     20  N   UNL     1       2.394   1.458  18.691  0.00  0.00    +0.000 N 
ATOM     21  C   UNL     1       1.734   2.636  18.526  0.00  0.00    +0.000 C 
ATOM     22  O   UNL     1       0.540   2.735  18.286  0.00  0.00    +0.000 OA
ATOM     23  H   UNL     1       4.876   3.382  19.080  0.00  0.00    +0.000 HD
ATOM     24  H   UNL     1       1.963   0.551  18.634  0.00  0.00    +0.000 HD
ENDBRANCH   5  11
BRANCH   1  31
ATOM     25  C   UNL     1      -5.493  12.402  18.197  0.00  0.00    +0.000 C 
ATOM     26  C   UNL     1      -4.322  11.629  17.665  0.00  0.00    +0.000 A 
ATOM     27  C   UNL     1      -4.259  11.245  16.321  0.00  0.00    +0.000 A 
ATOM     28  C   UNL     1      -3.134  10.578  15.819  0.00  0.00    +0.000 A 
ATOM     29  C   UNL     1      -3.074  10.150  14.382  0.00  0.00    +0.000 C 
ATOM     30  C   UNL     1      -2.054  10.313  16.673  0.00  0.00    +0.000 A 
ATOM     31  C   UNL     1      -2.119  10.666  18.028  0.00  0.00    +0.000 A 
ATOM     32  C   UNL     1      -3.255  11.321  18.517  0.00  0.00    +0.000 A 
ENDBRANCH   1  31
TORSDOF 2
ENDMDL
MODEL 6
REMARK VINA RESULT:      -8.4      1.366      2.515
REMARK  Name = 
REMARK  5 active torsions:
REMARK  status: ('A' for Active; 'I' for Inactive)
REMARK    1  A    between atoms: C_1  and  C_2
REMARK    2  A    between atoms: C_4  and  C_5
REMARK    3  A    between atoms: C_7  and  N_8
REMARK    4  A    between atoms: C_12  and  C_14
REMARK    5  A    between atoms: C_27  and  C_28
REMARK                            x       y       z     vdW  Elec       q    Type
REMARK                         _______ _______ _______ _____ _____    ______ ____
ROOT
ATOM      1  N   UNL     1      -0.234   9.863  20.705  0.00  0.00    +0.000 N 
ATOM      2  N   UNL     1       0.474   9.072  19.869  0.00  0.00    +0.000 NA
ATOM      3  C   UNL     1       1.386   8.463  20.616  0.00  0.00    +0.000 A 
ATOM      4  N   UNL     1       2.392   7.648  20.124  0.00  0.00    +0.000 N 
ATOM      5  C   UNL     1       2.621   7.440  18.775  0.00  0.00    +0.000 C 
ATOM      6  O   UNL     1       1.990   7.952  17.850  0.00  0.00    +0.000 OA
ATOM      7  C   UNL     1       1.159   8.727  21.986  0.00  0.00    +0.000 A 
ATOM      8  C   UNL     1       0.080   9.593  22.028  0.00  0.00    +0.000 A 
ATOM      9  C   UNL     1      -0.703  10.073  23.195  0.00  0.00    +0.000 C 
ATOM     10  H   UNL     1       2.987   7.200  20.807  0.00  0.00    +0.000 HD
ENDROOT
BRANCH   5  11
ATOM     11  C   UNL     1       3.760   6.454  18.467  0.00  0.00    +0.000 C 
ATOM     12  C   UNL     1       3.493   5.577  17.236  0.00  0.00    +0.000 C 
ATOM     13  C   UNL     1       2.501   4.438  17.486  0.00  0.00    +0.000 C 
ATOM     14  C   UNL     1       2.833   3.611  18.730  0.00  0.00    +0.000 C 
ATOM     15  C   UNL     1       3.092   4.467  19.966  0.00  0.00    +0.000 C 
ATOM     16  C   UNL     1       4.101   5.589  19.697  0.00  0.00    +0.000 C 
ATOM     17  N   UNL     1       3.928   2.691  18.479  0.00  0.00    +0.000 N 
ATOM     18  C   UNL     1       3.547   1.376  18.594  0.00  0.00    +0.000 C 
ATOM     19  O   UNL     1       4.281   0.420  18.421  0.00  0.00    +0.000 OA
ATOM     20  N   UNL     1       2.237   1.333  18.917  0.00  0.00    +0.000 N 
ATOM     21  C   UNL     1       1.714   2.586  19.009  0.00  0.00    +0.000 C 
ATOM     22  O   UNL     1       0.545   2.833  19.262  0.00  0.00    +0.000 OA
ATOM     23  H   UNL     1       4.883   2.937  18.255  0.00  0.00    +0.000 HD
ATOM     24  H   UNL     1       1.712   0.485  19.051  0.00  0.00    +0.000 HD
ENDBRANCH   5  11
BRANCH   1  31
ATOM     25  C   UNL     1      -2.346  14.344  20.888  0.00  0.00    +0.000 C 
ATOM     26  C   UNL     1      -2.192  13.007  20.224  0.00  0.00    +0.000 A 
ATOM     27  C   UNL     1      -2.837  12.721  19.016  0.00  0.00    +0.000 A 
ATOM     28  C   UNL     1      -2.639  11.493  18.371  0.00  0.00    +0.000 A 
ATOM     29  C   UNL     1      -3.345  11.179  17.084  0.00  0.00    +0.000 C 
ATOM     30  C   UNL     1      -1.767  10.553  18.937  0.00  0.00    +0.000 A 
ATOM     31  C   UNL     1      -1.139  10.816  20.162  0.00  0.00    +0.000 A 
ATOM     32  C   UNL     1      -1.357  12.043  20.800  0.00  0.00    +0.000 A 
ENDBRANCH   1  31
TORSDOF 2
ENDMDL
MODEL 7
REMARK VINA RESULT:      -8.4      3.447      8.972
REMARK  Name = 
REMARK  5 active torsions:
REMARK  status: ('A' for Active; 'I' for Inactive)
REMARK    1  A    between atoms: C_1  and  C_2
REMARK    2  A    between atoms: C_4  and  C_5
REMARK    3  A    between atoms: C_7  and  N_8
REMARK    4  A    between atoms: C_12  and  C_14
REMARK    5  A    between atoms: C_27  and  C_28
REMARK                            x       y       z     vdW  Elec       q    Type
REMARK                         _______ _______ _______ _____ _____    ______ ____
ROOT
ATOM      1  N   UNL     1       2.591   6.401  19.165  0.00  0.00    +0.000 N 
ATOM      2  N   UNL     1       2.476   7.690  18.774  0.00  0.00    +0.000 NA
ATOM      3  C   UNL     1       1.629   8.261  19.621  0.00  0.00    +0.000 A 
ATOM      4  N   UNL     1       1.148   9.555  19.503  0.00  0.00    +0.000 N 
ATOM      5  C   UNL     1       1.430  10.383  18.431  0.00  0.00    +0.000 C 
ATOM      6  O   UNL     1       2.112  10.086  17.450  0.00  0.00    +0.000 OA
ATOM      7  C   UNL     1       1.321   7.380  20.682  0.00  0.00    +0.000 A 
ATOM      8  C   UNL     1       1.989   6.201  20.398  0.00  0.00    +0.000 A 
ATOM      9  C   UNL     1       2.171   4.990  21.239  0.00  0.00    +0.000 C 
ATOM     10  H   UNL     1       0.552   9.886  20.248  0.00  0.00    +0.000 HD
ENDROOT
BRANCH   5  11
ATOM     11  C   UNL     1       0.829  11.794  18.541  0.00  0.00    +0.000 C 
ATOM     12  C   UNL     1       1.513  12.668  19.601  0.00  0.00    +0.000 C 
ATOM     13  C   UNL     1       1.116  12.327  21.040  0.00  0.00    +0.000 C 
ATOM     14  C   UNL     1      -0.397  12.241  21.244  0.00  0.00    +0.000 C 
ATOM     15  C   UNL     1      -1.093  11.368  20.204  0.00  0.00    +0.000 C 
ATOM     16  C   UNL     1      -0.694  11.739  18.771  0.00  0.00    +0.000 C 
ATOM     17  N   UNL     1      -0.999  13.560  21.321  0.00  0.00    +0.000 N 
ATOM     18  C   UNL     1      -1.578  13.804  22.543  0.00  0.00    +0.000 C 
ATOM     19  O   UNL     1      -2.135  14.840  22.856  0.00  0.00    +0.000 OA
ATOM     20  N   UNL     1      -1.412  12.715  23.324  0.00  0.00    +0.000 N 
ATOM     21  C   UNL     1      -0.722  11.744  22.669  0.00  0.00    +0.000 C 
ATOM     22  O   UNL     1      -0.411  10.665  23.153  0.00  0.00    +0.000 OA
ATOM     23  H   UNL     1      -1.028  14.253  20.585  0.00  0.00    +0.000 HD
ATOM     24  H   UNL     1      -1.738  12.642  24.273  0.00  0.00    +0.000 HD
ENDBRANCH   5  11
BRANCH   1  31
ATOM     25  C   UNL     1       5.854   5.489  15.546  0.00  0.00    +0.000 C 
ATOM     26  C   UNL     1       4.851   4.993  16.547  0.00  0.00    +0.000 A 
ATOM     27  C   UNL     1       4.642   3.623  16.741  0.00  0.00    +0.000 A 
ATOM     28  C   UNL     1       3.750   3.167  17.721  0.00  0.00    +0.000 A 
ATOM     29  C   UNL     1       3.511   1.698  17.917  0.00  0.00    +0.000 C 
ATOM     30  C   UNL     1       3.078   4.098  18.525  0.00  0.00    +0.000 A 
ATOM     31  C   UNL     1       3.257   5.473  18.318  0.00  0.00    +0.000 A 
ATOM     32  C   UNL     1       4.142   5.913  17.328  0.00  0.00    +0.000 A 
ENDBRANCH   1  31
TORSDOF 2
ENDMDL
MODEL 8
REMARK VINA RESULT:      -8.4      3.421      9.465
REMARK  Name = 
REMARK  5 active torsions:
REMARK  status: ('A' for Active; 'I' for Inactive)
REMARK    1  A    between atoms: C_1  and  C_2
REMARK    2  A    between atoms: C_4  and  C_5
REMARK    3  A    between atoms: C_7  and  N_8
REMARK    4  A    between atoms: C_12  and  C_14
REMARK    5  A    between atoms: C_27  and  C_28
REMARK                            x       y       z     vdW  Elec       q    Type
REMARK                         _______ _______ _______ _____ _____    ______ ____
ROOT
ATOM      1  N   UNL     1       3.358   5.294  19.616  0.00  0.00    +0.000 N 
ATOM      2  N   UNL     1       2.847   6.535  19.779  0.00  0.00    +0.000 NA
ATOM      3  C   UNL     1       1.677   6.380  20.385  0.00  0.00    +0.000 A 
ATOM      4  N   UNL     1       0.776   7.402  20.634  0.00  0.00    +0.000 N 
ATOM      5  C   UNL     1       0.952   8.704  20.197  0.00  0.00    +0.000 C 
ATOM      6  O   UNL     1       1.900   9.117  19.529  0.00  0.00    +0.000 OA
ATOM      7  C   UNL     1       1.501   5.034  20.781  0.00  0.00    +0.000 A 
ATOM      8  C   UNL     1       2.616   4.357  20.320  0.00  0.00    +0.000 A 
ATOM      9  C   UNL     1       3.054   2.963  20.586  0.00  0.00    +0.000 C 
ATOM     10  H   UNL     1      -0.054   7.157  21.155  0.00  0.00    +0.000 HD
ENDROOT
BRANCH   5  11
ATOM     11  C   UNL     1      -0.153   9.678  20.637  0.00  0.00    +0.000 C 
ATOM     12  C   UNL     1      -0.967  10.247  19.467  0.00  0.00    +0.000 C 
ATOM     13  C   UNL     1      -0.242  11.340  18.677  0.00  0.00    +0.000 C 
ATOM     14  C   UNL     1       0.347  12.437  19.567  0.00  0.00    +0.000 C 
ATOM     15  C   UNL     1       1.167  11.889  20.730  0.00  0.00    +0.000 C 
ATOM     16  C   UNL     1       0.415  10.810  21.516  0.00  0.00    +0.000 C 
ATOM     17  N   UNL     1      -0.679  13.357  20.025  0.00  0.00    +0.000 N 
ATOM     18  C   UNL     1      -0.486  14.636  19.560  0.00  0.00    +0.000 C 
ATOM     19  O   UNL     1      -1.215  15.581  19.796  0.00  0.00    +0.000 OA
ATOM     20  N   UNL     1       0.631  14.654  18.801  0.00  0.00    +0.000 N 
ATOM     21  C   UNL     1       1.191  13.417  18.725  0.00  0.00    +0.000 C 
ATOM     22  O   UNL     1       2.195  13.148  18.082  0.00  0.00    +0.000 OA
ATOM     23  H   UNL     1      -1.461  13.137  20.627  0.00  0.00    +0.000 HD
ATOM     24  H   UNL     1       0.988  15.471  18.336  0.00  0.00    +0.000 HD
ENDBRANCH   5  11
BRANCH   1  31
ATOM     25  C   UNL     1       5.318   4.247  15.185  0.00  0.00    +0.000 C 
ATOM     26  C   UNL     1       5.495   4.605  16.632  0.00  0.00    +0.000 A 
ATOM     27  C   UNL     1       6.762   4.878  17.159  0.00  0.00    +0.000 A 
ATOM     28  C   UNL     1       6.912   5.273  18.495  0.00  0.00    +0.000 A 
ATOM     29  C   UNL     1       8.272   5.547  19.066  0.00  0.00    +0.000 C 
ATOM     30  C   UNL     1       5.774   5.414  19.302  0.00  0.00    +0.000 A 
ATOM     31  C   UNL     1       4.503   5.114  18.792  0.00  0.00    +0.000 A 
ATOM     32  C   UNL     1       4.371   4.709  17.459  0.00  0.00    +0.000 A 
ENDBRANCH   1  31
TORSDOF 2
ENDMDL
MODEL 9
REMARK VINA RESULT:      -8.4      3.445      9.126
REMARK  Name = 
REMARK  5 active torsions:
REMARK  status: ('A' for Active; 'I' for Inactive)
REMARK    1  A    between atoms: C_1  and  C_2
REMARK    2  A    between atoms: C_4  and  C_5
REMARK    3  A    between atoms: C_7  and  N_8
REMARK    4  A    between atoms: C_12  and  C_14
REMARK    5  A    between atoms: C_27  and  C_28
REMARK                            x       y       z     vdW  Elec       q    Type
REMARK                         _______ _______ _______ _____ _____    ______ ____
ROOT
ATOM      1  N   UNL     1       3.693   6.133  18.645  0.00  0.00    +0.000 N 
ATOM      2  N   UNL     1       3.285   7.405  18.433  0.00  0.00    +0.000 NA
ATOM      3  C   UNL     1       2.114   7.526  19.045  0.00  0.00    +0.000 A 
ATOM      4  N   UNL     1       1.301   8.646  18.976  0.00  0.00    +0.000 N 
ATOM      5  C   UNL     1       1.575   9.746  18.182  0.00  0.00    +0.000 C 
ATOM      6  O   UNL     1       2.544   9.870  17.433  0.00  0.00    +0.000 OA
ATOM      7  C   UNL     1       1.836   6.372  19.813  0.00  0.00    +0.000 A 
ATOM      8  C   UNL     1       2.888   5.504  19.582  0.00  0.00    +0.000 A 
ATOM      9  C   UNL     1       3.216   4.217  20.247  0.00  0.00    +0.000 C 
ATOM     10  H   UNL     1       0.460   8.629  19.536  0.00  0.00    +0.000 HD
ENDROOT
BRANCH   5  11
ATOM     11  C   UNL     1       0.556  10.890  18.307  0.00  0.00    +0.000 C 
ATOM     12  C   UNL     1       1.032  12.036  19.210  0.00  0.00    +0.000 C 
ATOM     13  C   UNL     1       0.948  11.725  20.707  0.00  0.00    +0.000 C 
ATOM     14  C   UNL     1      -0.414  11.174  21.133  0.00  0.00    +0.000 C 
ATOM     15  C   UNL     1      -0.898  10.027  20.251  0.00  0.00    +0.000 C 
ATOM     16  C   UNL     1      -0.822  10.367  18.759  0.00  0.00    +0.000 C 
ATOM     17  N   UNL     1      -1.407  12.229  21.230  0.00  0.00    +0.000 N 
ATOM     18  C   UNL     1      -1.882  12.390  22.509  0.00  0.00    +0.000 C 
ATOM     19  O   UNL     1      -2.711  13.215  22.846  0.00  0.00    +0.000 OA
ATOM     20  N   UNL     1      -1.270  11.494  23.312  0.00  0.00    +0.000 N 
ATOM     21  C   UNL     1      -0.379  10.739  22.613  0.00  0.00    +0.000 C 
ATOM     22  O   UNL     1       0.329   9.871  23.102  0.00  0.00    +0.000 OA
ATOM     23  H   UNL     1      -1.754  12.801  20.471  0.00  0.00    +0.000 HD
ATOM     24  H   UNL     1      -1.435  11.410  24.300  0.00  0.00    +0.000 HD
ENDBRANCH   5  11
BRANCH   1  31
ATOM     25  C   UNL     1       8.437   4.698  18.556  0.00  0.00    +0.000 C 
ATOM     26  C   UNL     1       7.133   4.918  17.846  0.00  0.00    +0.000 A 
ATOM     27  C   UNL     1       6.962   4.532  16.512  0.00  0.00    +0.000 A 
ATOM     28  C   UNL     1       5.723   4.685  15.875  0.00  0.00    +0.000 A 
ATOM     29  C   UNL     1       5.545   4.288  14.439  0.00  0.00    +0.000 C 
ATOM     30  C   UNL     1       4.642   5.212  16.594  0.00  0.00    +0.000 A 
ATOM     31  C   UNL     1       4.810   5.631  17.922  0.00  0.00    +0.000 A 
ATOM     32  C   UNL     1       6.056   5.483  18.540  0.00  0.00    +0.000 A 
ENDBRANCH   1  31
TORSDOF 2
ENDMDL
