MODEL 1
REMARK VINA RESULT:      -8.1      0.000      0.000
REMARK  Name = 
REMARK  3 active torsions:
REMARK  status: ('A' for Active; 'I' for Inactive)
REMARK    1  A    between atoms: C_2  and  C_3
REMARK    2  A    between atoms: C_3  and  N_4
REMARK    3  A    between atoms: N_18  and  C_19
REMARK                            x       y       z     vdW  Elec       q    Type
REMARK                         _______ _______ _______ _____ _____    ______ ____
ROOT
ATOM      1  N   UNL     1       3.822   4.223  19.050  0.00  0.00    +0.000 N 
ATOM      2  C   UNL     1       3.141   3.589  18.017  0.00  0.00    +0.000 A 
ATOM      3  N   UNL     1       3.525   3.470  16.778  0.00  0.00    +0.000 NA
ATOM      4  C   UNL     1       4.759   4.083  16.529  0.00  0.00    +0.000 A 
ATOM      5  C   UNL     1       5.469   4.742  17.491  0.00  0.00    +0.000 A 
ATOM      6  O   UNL     1       6.621   5.251  16.983  0.00  0.00    +0.000 OA
ATOM      7  C   UNL     1       6.624   4.908  15.655  0.00  0.00    +0.000 A 
ATOM      8  C   UNL     1       7.622   5.240  14.741  0.00  0.00    +0.000 A 
ATOM      9  C   UNL     1       7.434   4.810  13.423  0.00  0.00    +0.000 A 
ATOM     10  C   UNL     1       6.300   4.078  13.055  0.00  0.00    +0.000 A 
ATOM     11  C   UNL     1       5.312   3.751  13.995  0.00  0.00    +0.000 A 
ATOM     12  C   UNL     1       5.479   4.178  15.325  0.00  0.00    +0.000 A 
ATOM     13  C   UNL     1       5.035   4.880  18.842  0.00  0.00    +0.000 A 
ATOM     14  O   UNL     1       5.613   5.505  19.729  0.00  0.00    +0.000 OA
ENDROOT
BRANCH   1  15
ATOM     15  C   UNL     1       3.252   4.255  20.388  0.00  0.00    +0.000 C 
BRANCH  15  17
ATOM     16  O   UNL     1       0.953   4.893  20.418  0.00  0.00    +0.000 OA
ATOM     17  C   UNL     1       2.120   5.277  20.427  0.00  0.00    +0.000 C 
ATOM     18  N   UNL     1       2.547   6.593  20.364  0.00  0.00    +0.000 N 
ATOM     19  H   UNL     1       3.513   6.761  20.077  0.00  0.00    +0.000 HD
BRANCH  18  20
ATOM     20  C   UNL     1       1.721   7.746  20.412  0.00  0.00    +0.000 A 
ATOM     21  C   UNL     1       0.986   8.094  21.551  0.00  0.00    +0.000 A 
ATOM     22  C   UNL     1       0.137   9.206  21.548  0.00  0.00    +0.000 A 
ATOM     23  C   UNL     1       0.019   9.995  20.408  0.00  0.00    +0.000 A 
ATOM     24  C   UNL     1       0.776   9.691  19.278  0.00  0.00    +0.000 A 
ATOM     25  C   UNL     1       1.631   8.583  19.284  0.00  0.00    +0.000 A 
ATOM     26 BR   UNL     1       2.643   8.243  17.711  0.00  0.00    +0.000 Br
ENDBRANCH  18  20
ENDBRANCH  15  17
ENDBRANCH   1  15
TORSDOF 3
ENDMDL
MODEL 2
REMARK VINA RESULT:      -7.7      3.703      5.782
REMARK  Name = 
REMARK  3 active torsions:
REMARK  status: ('A' for Active; 'I' for Inactive)
REMARK    1  A    between atoms: C_2  and  C_3
REMARK    2  A    between atoms: C_3  and  N_4
REMARK    3  A    between atoms: N_18  and  C_19
REMARK                            x       y       z     vdW  Elec       q    Type
REMARK                         _______ _______ _______ _____ _____    ______ ____
ROOT
ATOM      1  N   UNL     1       1.468   9.232  19.619  0.00  0.00    +0.000 N 
ATOM      2  C   UNL     1       2.008   9.162  18.340  0.00  0.00    +0.000 A 
ATOM      3  N   UNL     1       2.574   8.132  17.780  0.00  0.00    +0.000 NA
ATOM      4  C   UNL     1       2.621   7.013  18.619  0.00  0.00    +0.000 A 
ATOM      5  C   UNL     1       2.131   7.018  19.893  0.00  0.00    +0.000 A 
ATOM      6  O   UNL     1       2.312   5.812  20.490  0.00  0.00    +0.000 OA
ATOM      7  C   UNL     1       2.948   5.029  19.560  0.00  0.00    +0.000 A 
ATOM      8  C   UNL     1       3.342   3.707  19.755  0.00  0.00    +0.000 A 
ATOM      9  C   UNL     1       3.995   3.083  18.686  0.00  0.00    +0.000 A 
ATOM     10  C   UNL     1       4.228   3.760  17.485  0.00  0.00    +0.000 A 
ATOM     11  C   UNL     1       3.817   5.090  17.311  0.00  0.00    +0.000 A 
ATOM     12  C   UNL     1       3.164   5.738  18.374  0.00  0.00    +0.000 A 
ATOM     13  C   UNL     1       1.525   8.155  20.505  0.00  0.00    +0.000 A 
ATOM     14  O   UNL     1       1.116   8.224  21.661  0.00  0.00    +0.000 OA
ENDROOT
BRANCH   1  15
ATOM     15  C   UNL     1       0.859  10.466  20.088  0.00  0.00    +0.000 C 
BRANCH  15  17
ATOM     16  O   UNL     1       0.184  12.062  18.448  0.00  0.00    +0.000 OA
ATOM     17  C   UNL     1      -0.079  11.003  19.011  0.00  0.00    +0.000 C 
ATOM     18  N   UNL     1      -1.235  10.256  18.847  0.00  0.00    +0.000 N 
ATOM     19  H   UNL     1      -1.464   9.579  19.576  0.00  0.00    +0.000 HD
BRANCH  18  20
ATOM     20  C   UNL     1      -2.265  10.502  17.902  0.00  0.00    +0.000 A 
ATOM     21  C   UNL     1      -2.313   9.857  16.661  0.00  0.00    +0.000 A 
ATOM     22  C   UNL     1      -3.311  10.162  15.730  0.00  0.00    +0.000 A 
ATOM     23  C   UNL     1      -4.284  11.111  16.030  0.00  0.00    +0.000 A 
ATOM     24  C   UNL     1      -4.280  11.732  17.277  0.00  0.00    +0.000 A 
ATOM     25  C   UNL     1      -3.286  11.419  18.212  0.00  0.00    +0.000 A 
ATOM     26 BR   UNL     1      -3.356  12.296  19.898  0.00  0.00    +0.000 Br
ENDBRANCH  18  20
ENDBRANCH  15  17
ENDBRANCH   1  15
TORSDOF 3
ENDMDL
MODEL 3
REMARK VINA RESULT:      -7.6      0.921      1.015
REMARK  Name = 
REMARK  3 active torsions:
REMARK  status: ('A' for Active; 'I' for Inactive)
REMARK    1  A    between atoms: C_2  and  C_3
REMARK    2  A    between atoms: C_3  and  N_4
REMARK    3  A    between atoms: N_18  and  C_19
REMARK                            x       y       z     vdW  Elec       q    Type
REMARK                         _______ _______ _______ _____ _____    ______ ____
ROOT
ATOM      1  N   UNL     1       4.608   4.747  18.292  0.00  0.00    +0.000 N 
ATOM      2  C   UNL     1       3.885   3.895  17.464  0.00  0.00    +0.000 A 
ATOM      3  N   UNL     1       4.144   3.597  16.223  0.00  0.00    +0.000 NA
ATOM      4  C   UNL     1       5.279   4.250  15.731  0.00  0.00    +0.000 A 
ATOM      5  C   UNL     1       6.022   5.117  16.481  0.00  0.00    +0.000 A 
ATOM      6  O   UNL     1       7.059   5.618  15.762  0.00  0.00    +0.000 OA
ATOM      7  C   UNL     1       6.953   5.055  14.516  0.00  0.00    +0.000 A 
ATOM      8  C   UNL     1       7.811   5.302  13.446  0.00  0.00    +0.000 A 
ATOM      9  C   UNL     1       7.525   4.640  12.247  0.00  0.00    +0.000 A 
ATOM     10  C   UNL     1       6.434   3.771  12.141  0.00  0.00    +0.000 A 
ATOM     11  C   UNL     1       5.588   3.534  13.235  0.00  0.00    +0.000 A 
ATOM     12  C   UNL     1       5.854   4.193  14.448  0.00  0.00    +0.000 A 
ATOM     13  C   UNL     1       5.724   5.449  17.835  0.00  0.00    +0.000 A 
ATOM     14  O   UNL     1       6.330   6.259  18.533  0.00  0.00    +0.000 OA
ENDROOT
BRANCH   1  15
ATOM     15  C   UNL     1       4.184   4.962  19.666  0.00  0.00    +0.000 C 
BRANCH  15  17
ATOM     16  O   UNL     1       1.845   5.132  19.228  0.00  0.00    +0.000 OA
ATOM     17  C   UNL     1       2.845   5.693  19.669  0.00  0.00    +0.000 C 
ATOM     18  N   UNL     1       2.922   7.009  20.096  0.00  0.00    +0.000 N 
ATOM     19  H   UNL     1       3.850   7.432  20.149  0.00  0.00    +0.000 HD
BRANCH  18  20
ATOM     20  C   UNL     1       1.836   7.912  20.229  0.00  0.00    +0.000 A 
ATOM     21  C   UNL     1       1.048   7.971  21.384  0.00  0.00    +0.000 A 
ATOM     22  C   UNL     1      -0.051   8.834  21.463  0.00  0.00    +0.000 A 
ATOM     23  C   UNL     1      -0.372   9.660  20.390  0.00  0.00    +0.000 A 
ATOM     24  C   UNL     1       0.427   9.649  19.248  0.00  0.00    +0.000 A 
ATOM     25  C   UNL     1       1.531   8.792  19.173  0.00  0.00    +0.000 A 
ATOM     26 BR   UNL     1       2.581   8.845  17.590  0.00  0.00    +0.000 Br
ENDBRANCH  18  20
ENDBRANCH  15  17
ENDBRANCH   1  15
TORSDOF 3
ENDMDL
MODEL 4
REMARK VINA RESULT:      -7.4      1.267      1.804
REMARK  Name = 
REMARK  3 active torsions:
REMARK  status: ('A' for Active; 'I' for Inactive)
REMARK    1  A    between atoms: C_2  and  C_3
REMARK    2  A    between atoms: C_3  and  N_4
REMARK    3  A    between atoms: N_18  and  C_19
REMARK                            x       y       z     vdW  Elec       q    Type
REMARK                         _______ _______ _______ _____ _____    ______ ____
ROOT
ATOM      1  N   UNL     1       3.853   4.495  19.418  0.00  0.00    +0.000 N 
ATOM      2  C   UNL     1       5.066   5.171  19.475  0.00  0.00    +0.000 A 
ATOM      3  N   UNL     1       5.905   5.367  18.498  0.00  0.00    +0.000 NA
ATOM      4  C   UNL     1       5.481   4.795  17.293  0.00  0.00    +0.000 A 
ATOM      5  C   UNL     1       4.313   4.098  17.171  0.00  0.00    +0.000 A 
ATOM      6  O   UNL     1       4.148   3.643  15.903  0.00  0.00    +0.000 OA
ATOM      7  C   UNL     1       5.257   4.060  15.211  0.00  0.00    +0.000 A 
ATOM      8  C   UNL     1       5.510   3.800  13.866  0.00  0.00    +0.000 A 
ATOM      9  C   UNL     1       6.710   4.299  13.346  0.00  0.00    +0.000 A 
ATOM     10  C   UNL     1       7.598   5.027  14.145  0.00  0.00    +0.000 A 
ATOM     11  C   UNL     1       7.317   5.280  15.496  0.00  0.00    +0.000 A 
ATOM     12  C   UNL     1       6.120   4.783  16.040  0.00  0.00    +0.000 A 
ATOM     13  C   UNL     1       3.406   3.876  18.249  0.00  0.00    +0.000 A 
ATOM     14  O   UNL     1       2.371   3.215  18.201  0.00  0.00    +0.000 OA
ENDROOT
BRANCH   1  15
ATOM     15  C   UNL     1       3.026   4.376  20.608  0.00  0.00    +0.000 C 
BRANCH  15  17
ATOM     16  O   UNL     1       0.743   5.050  20.457  0.00  0.00    +0.000 OA
ATOM     17  C   UNL     1       1.911   5.416  20.551  0.00  0.00    +0.000 C 
ATOM     18  N   UNL     1       2.364   6.725  20.506  0.00  0.00    +0.000 N 
ATOM     19  H   UNL     1       3.351   6.874  20.292  0.00  0.00    +0.000 HD
BRANCH  18  20
ATOM     20  C   UNL     1       1.555   7.891  20.479  0.00  0.00    +0.000 A 
ATOM     21  C   UNL     1       0.780   8.290  21.574  0.00  0.00    +0.000 A 
ATOM     22  C   UNL     1      -0.049   9.414  21.497  0.00  0.00    +0.000 A 
ATOM     23  C   UNL     1      -0.109  10.163  20.326  0.00  0.00    +0.000 A 
ATOM     24  C   UNL     1       0.688   9.807  19.239  0.00  0.00    +0.000 A 
ATOM     25  C   UNL     1       1.525   8.688  19.320  0.00  0.00    +0.000 A 
ATOM     26 BR   UNL     1       2.594   8.276  17.803  0.00  0.00    +0.000 Br
ENDBRANCH  18  20
ENDBRANCH  15  17
ENDBRANCH   1  15
TORSDOF 3
ENDMDL
MODEL 5
REMARK VINA RESULT:      -7.3      3.733      5.867
REMARK  Name = 
REMARK  3 active torsions:
REMARK  status: ('A' for Active; 'I' for Inactive)
REMARK    1  A    between atoms: C_2  and  C_3
REMARK    2  A    between atoms: C_3  and  N_4
REMARK    3  A    between atoms: N_18  and  C_19
REMARK                            x       y       z     vdW  Elec       q    Type
REMARK                         _______ _______ _______ _____ _____    ______ ____
ROOT
ATOM      1  N   UNL     1       1.591   8.931  19.259  0.00  0.00    +0.000 N 
ATOM      2  C   UNL     1       1.200   8.455  20.505  0.00  0.00    +0.000 A 
ATOM      3  N   UNL     1       1.391   7.260  20.986  0.00  0.00    +0.000 NA
ATOM      4  C   UNL     1       2.056   6.413  20.093  0.00  0.00    +0.000 A 
ATOM      5  C   UNL     1       2.448   6.807  18.846  0.00  0.00    +0.000 A 
ATOM      6  O   UNL     1       3.060   5.792  18.184  0.00  0.00    +0.000 OA
ATOM      7  C   UNL     1       3.039   4.723  19.042  0.00  0.00    +0.000 A 
ATOM      8  C   UNL     1       3.553   3.458  18.764  0.00  0.00    +0.000 A 
ATOM      9  C   UNL     1       3.419   2.492  19.768  0.00  0.00    +0.000 A 
ATOM     10  C   UNL     1       2.806   2.795  20.988  0.00  0.00    +0.000 A 
ATOM     11  C   UNL     1       2.301   4.078  21.246  0.00  0.00    +0.000 A 
ATOM     12  C   UNL     1       2.420   5.063  20.248  0.00  0.00    +0.000 A 
ATOM     13  C   UNL     1       2.223   8.114  18.320  0.00  0.00    +0.000 A 
ATOM     14  O   UNL     1       2.510   8.500  17.190  0.00  0.00    +0.000 OA
ENDROOT
BRANCH   1  15
ATOM     15  C   UNL     1       1.307  10.306  18.881  0.00  0.00    +0.000 C 
BRANCH  15  17
ATOM     16  O   UNL     1      -1.078  10.251  18.825  0.00  0.00    +0.000 OA
ATOM     17  C   UNL     1      -0.079  10.690  19.390  0.00  0.00    +0.000 C 
ATOM     18  N   UNL     1      -0.064  11.616  20.420  0.00  0.00    +0.000 N 
ATOM     19  H   UNL     1       0.810  12.116  20.590  0.00  0.00    +0.000 HD
BRANCH  18  20
ATOM     20  C   UNL     1      -1.198  12.129  21.103  0.00  0.00    +0.000 A 
ATOM     21  C   UNL     1      -1.978  13.169  20.585  0.00  0.00    +0.000 A 
ATOM     22  C   UNL     1      -3.056  13.690  21.309  0.00  0.00    +0.000 A 
ATOM     23  C   UNL     1      -3.378  13.170  22.559  0.00  0.00    +0.000 A 
ATOM     24  C   UNL     1      -2.641  12.105  23.073  0.00  0.00    +0.000 A 
ATOM     25  C   UNL     1      -1.567  11.579  22.344  0.00  0.00    +0.000 A 
ATOM     26 BR   UNL     1      -0.620  10.115  23.104  0.00  0.00    +0.000 Br
ENDBRANCH  18  20
ENDBRANCH  15  17
ENDBRANCH   1  15
TORSDOF 3
ENDMDL
MODEL 6
REMARK VINA RESULT:      -7.3      1.512      2.011
REMARK  Name = 
REMARK  3 active torsions:
REMARK  status: ('A' for Active; 'I' for Inactive)
REMARK    1  A    between atoms: C_2  and  C_3
REMARK    2  A    between atoms: C_3  and  N_4
REMARK    3  A    between atoms: N_18  and  C_19
REMARK                            x       y       z     vdW  Elec       q    Type
REMARK                         _______ _______ _______ _____ _____    ______ ____
ROOT
ATOM      1  N   UNL     1       4.666   4.890  18.244  0.00  0.00    +0.000 N 
ATOM      2  C   UNL     1       5.643   5.856  18.031  0.00  0.00    +0.000 A 
ATOM      3  N   UNL     1       6.344   6.041  16.949  0.00  0.00    +0.000 NA
ATOM      4  C   UNL     1       6.036   5.126  15.937  0.00  0.00    +0.000 A 
ATOM      5  C   UNL     1       5.104   4.139  16.085  0.00  0.00    +0.000 A 
ATOM      6  O   UNL     1       5.009   3.386  14.959  0.00  0.00    +0.000 OA
ATOM      7  C   UNL     1       5.921   3.914  14.081  0.00  0.00    +0.000 A 
ATOM      8  C   UNL     1       6.169   3.437  12.796  0.00  0.00    +0.000 A 
ATOM      9  C   UNL     1       7.154   4.104  12.058  0.00  0.00    +0.000 A 
ATOM     10  C   UNL     1       7.843   5.198  12.593  0.00  0.00    +0.000 A 
ATOM     11  C   UNL     1       7.571   5.662  13.888  0.00  0.00    +0.000 A 
ATOM     12  C   UNL     1       6.589   5.003  14.649  0.00  0.00    +0.000 A 
ATOM     13  C   UNL     1       4.351   3.932  17.278  0.00  0.00    +0.000 A 
ATOM     14  O   UNL     1       3.541   3.030  17.477  0.00  0.00    +0.000 OA
ENDROOT
BRANCH   1  15
ATOM     15  C   UNL     1       3.966   4.827  19.517  0.00  0.00    +0.000 C 
BRANCH  15  17
ATOM     16  O   UNL     1       1.778   5.350  18.723  0.00  0.00    +0.000 OA
ATOM     17  C   UNL     1       2.712   5.692  19.444  0.00  0.00    +0.000 C 
ATOM     18  N   UNL     1       2.804   6.878  20.153  0.00  0.00    +0.000 N 
ATOM     19  H   UNL     1       3.733   7.172  20.459  0.00  0.00    +0.000 HD
BRANCH  18  20
ATOM     20  C   UNL     1       1.784   7.857  20.287  0.00  0.00    +0.000 A 
ATOM     21  C   UNL     1       1.000   7.968  21.441  0.00  0.00    +0.000 A 
ATOM     22  C   UNL     1      -0.034   8.907  21.520  0.00  0.00    +0.000 A 
ATOM     23  C   UNL     1      -0.293   9.757  20.449  0.00  0.00    +0.000 A 
ATOM     24  C   UNL     1       0.504   9.692  19.309  0.00  0.00    +0.000 A 
ATOM     25  C   UNL     1       1.545   8.758  19.233  0.00  0.00    +0.000 A 
ATOM     26 BR   UNL     1       2.600   8.740  17.651  0.00  0.00    +0.000 Br
ENDBRANCH  18  20
ENDBRANCH  15  17
ENDBRANCH   1  15
TORSDOF 3
ENDMDL
MODEL 7
REMARK VINA RESULT:      -7.2      4.359      6.849
REMARK  Name = 
REMARK  3 active torsions:
REMARK  status: ('A' for Active; 'I' for Inactive)
REMARK    1  A    between atoms: C_2  and  C_3
REMARK    2  A    between atoms: C_3  and  N_4
REMARK    3  A    between atoms: N_18  and  C_19
REMARK                            x       y       z     vdW  Elec       q    Type
REMARK                         _______ _______ _______ _____ _____    ______ ____
ROOT
ATOM      1  N   UNL     1       1.149  10.771  19.350  0.00  0.00    +0.000 N 
ATOM      2  C   UNL     1       1.717  10.467  18.117  0.00  0.00    +0.000 A 
ATOM      3  N   UNL     1       2.177   9.313  17.726  0.00  0.00    +0.000 NA
ATOM      4  C   UNL     1       2.069   8.322  18.708  0.00  0.00    +0.000 A 
ATOM      5  C   UNL     1       1.543   8.556  19.947  0.00  0.00    +0.000 A 
ATOM      6  O   UNL     1       1.565   7.431  20.706  0.00  0.00    +0.000 OA
ATOM      7  C   UNL     1       2.135   6.463  19.919  0.00  0.00    +0.000 A 
ATOM      8  C   UNL     1       2.367   5.145  20.306  0.00  0.00    +0.000 A 
ATOM      9  C   UNL     1       2.976   4.311  19.361  0.00  0.00    +0.000 A 
ATOM     10  C   UNL     1       3.323   4.787  18.093  0.00  0.00    +0.000 A 
ATOM     11  C   UNL     1       3.074   6.117  17.725  0.00  0.00    +0.000 A 
ATOM     12  C   UNL     1       2.468   6.974  18.661  0.00  0.00    +0.000 A 
ATOM     13  C   UNL     1       1.054   9.826  20.373  0.00  0.00    +0.000 A 
ATOM     14  O   UNL     1       0.620  10.098  21.490  0.00  0.00    +0.000 OA
ENDROOT
BRANCH   1  15
ATOM     15  C   UNL     1       0.672  12.117  19.622  0.00  0.00    +0.000 C 
BRANCH  15  17
ATOM     16  O   UNL     1      -0.589  13.274  17.959  0.00  0.00    +0.000 OA
ATOM     17  C   UNL     1      -0.586  12.379  18.801  0.00  0.00    +0.000 C 
ATOM     18  N   UNL     1      -1.676  11.611  19.179  0.00  0.00    +0.000 N 
ATOM     19  H   UNL     1      -1.620  11.127  20.077  0.00  0.00    +0.000 HD
BRANCH  18  20
ATOM     20  C   UNL     1      -2.960  11.622  18.575  0.00  0.00    +0.000 A 
ATOM     21  C   UNL     1      -3.197  11.071  17.310  0.00  0.00    +0.000 A 
ATOM     22  C   UNL     1      -4.462  11.148  16.718  0.00  0.00    +0.000 A 
ATOM     23  C   UNL     1      -5.514  11.765  17.387  0.00  0.00    +0.000 A 
ATOM     24  C   UNL     1      -5.309  12.280  18.666  0.00  0.00    +0.000 A 
ATOM     25  C   UNL     1      -4.045  12.196  19.262  0.00  0.00    +0.000 A 
ATOM     26 BR   UNL     1      -3.849  12.906  21.015  0.00  0.00    +0.000 Br
ENDBRANCH  18  20
ENDBRANCH  15  17
ENDBRANCH   1  15
TORSDOF 3
ENDMDL
MODEL 8
REMARK VINA RESULT:      -7.1      4.083      6.796
REMARK  Name = 
REMARK  3 active torsions:
REMARK  status: ('A' for Active; 'I' for Inactive)
REMARK    1  A    between atoms: C_2  and  C_3
REMARK    2  A    between atoms: C_3  and  N_4
REMARK    3  A    between atoms: N_18  and  C_19
REMARK                            x       y       z     vdW  Elec       q    Type
REMARK                         _______ _______ _______ _____ _____    ______ ____
ROOT
ATOM      1  N   UNL     1       1.092  10.789  19.604  0.00  0.00    +0.000 N 
ATOM      2  C   UNL     1       1.559  10.404  18.352  0.00  0.00    +0.000 A 
ATOM      3  N   UNL     1       1.942   9.214  17.987  0.00  0.00    +0.000 NA
ATOM      4  C   UNL     1       1.858   8.274  19.020  0.00  0.00    +0.000 A 
ATOM      5  C   UNL     1       1.431   8.587  20.278  0.00  0.00    +0.000 A 
ATOM      6  O   UNL     1       1.457   7.497  21.087  0.00  0.00    +0.000 OA
ATOM      7  C   UNL     1       1.928   6.470  20.311  0.00  0.00    +0.000 A 
ATOM      8  C   UNL     1       2.130   5.161  20.744  0.00  0.00    +0.000 A 
ATOM      9  C   UNL     1       2.635   4.259  19.802  0.00  0.00    +0.000 A 
ATOM     10  C   UNL     1       2.914   4.660  18.491  0.00  0.00    +0.000 A 
ATOM     11  C   UNL     1       2.697   5.983  18.078  0.00  0.00    +0.000 A 
ATOM     12  C   UNL     1       2.195   6.908  19.010  0.00  0.00    +0.000 A 
ATOM     13  C   UNL     1       1.028   9.896  20.675  0.00  0.00    +0.000 A 
ATOM     14  O   UNL     1       0.684  10.238  21.805  0.00  0.00    +0.000 OA
ENDROOT
BRANCH   1  15
ATOM     15  C   UNL     1       0.694  12.167  19.843  0.00  0.00    +0.000 C 
BRANCH  15  17
ATOM     16  O   UNL     1      -0.624  13.287  18.200  0.00  0.00    +0.000 OA
ATOM     17  C   UNL     1      -0.607  12.450  19.098  0.00  0.00    +0.000 C 
ATOM     18  N   UNL     1      -1.704  11.773  19.605  0.00  0.00    +0.000 N 
ATOM     19  H   UNL     1      -1.608  11.345  20.527  0.00  0.00    +0.000 HD
BRANCH  18  20
ATOM     20  C   UNL     1      -3.028  11.820  19.095  0.00  0.00    +0.000 A 
ATOM     21  C   UNL     1      -4.028  12.605  19.680  0.00  0.00    +0.000 A 
ATOM     22  C   UNL     1      -5.337  12.587  19.187  0.00  0.00    +0.000 A 
ATOM     23  C   UNL     1      -5.664  11.792  18.093  0.00  0.00    +0.000 A 
ATOM     24  C   UNL     1      -4.673  11.038  17.469  0.00  0.00    +0.000 A 
ATOM     25  C   UNL     1      -3.361  11.062  17.957  0.00  0.00    +0.000 A 
ATOM     26 BR   UNL     1      -2.061  10.019  17.043  0.00  0.00    +0.000 Br
ENDBRANCH  18  20
ENDBRANCH  15  17
ENDBRANCH   1  15
TORSDOF 3
ENDMDL
MODEL 9
REMARK VINA RESULT:      -7.1      3.126      8.455
REMARK  Name = 
REMARK  3 active torsions:
REMARK  status: ('A' for Active; 'I' for Inactive)
REMARK    1  A    between atoms: C_2  and  C_3
REMARK    2  A    between atoms: C_3  and  N_4
REMARK    3  A    between atoms: N_18  and  C_19
REMARK                            x       y       z     vdW  Elec       q    Type
REMARK                         _______ _______ _______ _____ _____    ______ ____
ROOT
ATOM      1  N   UNL     1       2.044   8.527  18.945  0.00  0.00    +0.000 N 
ATOM      2  C   UNL     1       1.810   7.963  20.194  0.00  0.00    +0.000 A 
ATOM      3  N   UNL     1       1.059   8.441  21.145  0.00  0.00    +0.000 NA
ATOM      4  C   UNL     1       0.467   9.663  20.809  0.00  0.00    +0.000 A 
ATOM      5  C   UNL     1       0.671  10.285  19.610  0.00  0.00    +0.000 A 
ATOM      6  O   UNL     1      -0.010  11.457  19.547  0.00  0.00    +0.000 OA
ATOM      7  C   UNL     1      -0.654  11.579  20.752  0.00  0.00    +0.000 A 
ATOM      8  C   UNL     1      -1.464  12.648  21.127  0.00  0.00    +0.000 A 
ATOM      9  C   UNL     1      -2.019  12.595  22.410  0.00  0.00    +0.000 A 
ATOM     10  C   UNL     1      -1.772  11.513  23.262  0.00  0.00    +0.000 A 
ATOM     11  C   UNL     1      -0.957  10.445  22.858  0.00  0.00    +0.000 A 
ATOM     12  C   UNL     1      -0.384  10.481  21.575  0.00  0.00    +0.000 A 
ATOM     13  C   UNL     1       1.506   9.762  18.579  0.00  0.00    +0.000 A 
ATOM     14  O   UNL     1       1.762  10.306  17.507  0.00  0.00    +0.000 OA
ENDROOT
BRANCH   1  15
ATOM     15  C   UNL     1       2.907   7.851  17.990  0.00  0.00    +0.000 C 
BRANCH  15  17
ATOM     16  O   UNL     1       4.087   6.210  19.256  0.00  0.00    +0.000 OA
ATOM     17  C   UNL     1       3.169   6.427  18.470  0.00  0.00    +0.000 C 
ATOM     18  N   UNL     1       2.370   5.472  17.861  0.00  0.00    +0.000 N 
ATOM     19  H   UNL     1       1.862   5.751  17.021  0.00  0.00    +0.000 HD
BRANCH  18  20
ATOM     20  C   UNL     1       2.374   4.079  18.133  0.00  0.00    +0.000 A 
ATOM     21  C   UNL     1       1.382   3.464  18.906  0.00  0.00    +0.000 A 
ATOM     22  C   UNL     1       1.445   2.099  19.202  0.00  0.00    +0.000 A 
ATOM     23  C   UNL     1       2.496   1.324  18.721  0.00  0.00    +0.000 A 
ATOM     24  C   UNL     1       3.469   1.908  17.913  0.00  0.00    +0.000 A 
ATOM     25  C   UNL     1       3.402   3.273  17.610  0.00  0.00    +0.000 A 
ATOM     26 BR   UNL     1       4.757   3.994  16.488  0.00  0.00    +0.000 Br
ENDBRANCH  18  20
ENDBRANCH  15  17
ENDBRANCH   1  15
TORSDOF 3
ENDMDL
