MODEL 1
REMARK VINA RESULT:      -8.4      0.000      0.000
REMARK  Name = 
REMARK  5 active torsions:
REMARK  status: ('A' for Active; 'I' for Inactive)
REMARK    1  A    between atoms: C_2  and  C_14
REMARK    2  A    between atoms: N_3  and  C_4
REMARK    3  A    between atoms: C_6  and  O_7
REMARK    4  A    between atoms: C_8  and  N_9
REMARK    5  A    between atoms: C_18  and  N_19
REMARK                            x       y       z     vdW  Elec       q    Type
REMARK                         _______ _______ _______ _____ _____    ______ ____
ROOT
ATOM      1  O   UNL     1       3.999   4.362  17.064  0.00  0.00    +0.000 OA
ATOM      2  C   UNL     1       3.990   5.425  17.668  0.00  0.00    +0.000 C 
ATOM      3  N   UNL     1       4.877   6.459  17.424  0.00  0.00    +0.000 N 
ATOM      4  H   UNL     1       4.962   7.159  18.152  0.00  0.00    +0.000 HD
ENDROOT
BRANCH   2   5
ATOM      5  C   UNL     1       3.025   5.643  18.776  0.00  0.00    +0.000 A 
ATOM      6  C   UNL     1       2.591   4.530  19.497  0.00  0.00    +0.000 A 
ATOM      7  C   UNL     1       1.725   4.705  20.568  0.00  0.00    +0.000 A 
ATOM      8  C   UNL     1       1.300   5.990  20.922  0.00  0.00    +0.000 A 
ATOM      9  C   UNL     1       1.709   7.123  20.204  0.00  0.00    +0.000 A 
ATOM     10  C   UNL     1       2.559   6.925  19.105  0.00  0.00    +0.000 A 
BRANCH   9  11
ATOM     11  N   UNL     1       1.316   8.434  20.587  0.00  0.00    +0.000 N 
ATOM     12  C   UNL     1       1.283   8.875  21.962  0.00  0.00    +0.000 C 
ATOM     13  C   UNL     1       0.386  10.095  21.943  0.00  0.00    +0.000 C 
ATOM     14  C   UNL     1       0.624  10.687  20.569  0.00  0.00    +0.000 C 
ATOM     15  C   UNL     1       0.957   9.481  19.722  0.00  0.00    +0.000 C 
ATOM     16  O   UNL     1       0.938   9.508  18.501  0.00  0.00    +0.000 OA
ENDBRANCH   9  11
ENDBRANCH   2   5
BRANCH   3  17
ATOM     17  C   UNL     1       6.011   6.295  16.465  0.00  0.00    +0.000 C 
ATOM     18  C   UNL     1       7.412   6.311  17.114  0.00  0.00    +0.000 C 
ATOM     19  C   UNL     1       7.400   4.773  17.092  0.00  0.00    +0.000 C 
ATOM     20  C   UNL     1       6.242   4.809  16.053  0.00  0.00    +0.000 C 
BRANCH  20  21
ATOM     21  N   UNL     1       6.719   4.660  14.698  0.00  0.00    +0.000 N 
ATOM     22  C   UNL     1       6.148   3.797  13.800  0.00  0.00    +0.000 A 
ATOM     23  C   UNL     1       6.750   4.050  12.590  0.00  0.00    +0.000 A 
ATOM     24  C   UNL     1       7.685   5.063  12.863  0.00  0.00    +0.000 A 
ATOM     25  N   UNL     1       7.687   5.418  14.150  0.00  0.00    +0.000 NA
ENDBRANCH  20  21
BRANCH  19  26
ATOM     26  O   UNL     1       7.063   4.137  18.351  0.00  0.00    +0.000 OA
ATOM     27  H   UNL     1       6.435   4.745  18.781  0.00  0.00    +0.000 HD
ENDBRANCH  19  26
ENDBRANCH   3  17
TORSDOF 5
ENDMDL
MODEL 2
REMARK VINA RESULT:      -8.4      1.771      8.477
REMARK  Name = 
REMARK  5 active torsions:
REMARK  status: ('A' for Active; 'I' for Inactive)
REMARK    1  A    between atoms: C_2  and  C_14
REMARK    2  A    between atoms: N_3  and  C_4
REMARK    3  A    between atoms: C_6  and  O_7
REMARK    4  A    between atoms: C_8  and  N_9
REMARK    5  A    between atoms: C_18  and  N_19
REMARK                            x       y       z     vdW  Elec       q    Type
REMARK                         _______ _______ _______ _____ _____    ______ ____
ROOT
ATOM      1  O   UNL     1       1.712   7.032  20.828  0.00  0.00    +0.000 OA
ATOM      2  C   UNL     1       2.030   7.185  19.658  0.00  0.00    +0.000 C 
ATOM      3  N   UNL     1       1.993   8.402  19.001  0.00  0.00    +0.000 N 
ATOM      4  H   UNL     1       2.003   8.366  17.988  0.00  0.00    +0.000 HD
ENDROOT
BRANCH   2   5
ATOM      5  C   UNL     1       2.431   6.013  18.838  0.00  0.00    +0.000 A 
ATOM      6  C   UNL     1       1.519   4.967  18.696  0.00  0.00    +0.000 A 
ATOM      7  C   UNL     1       1.846   3.879  17.898  0.00  0.00    +0.000 A 
ATOM      8  C   UNL     1       3.079   3.840  17.238  0.00  0.00    +0.000 A 
ATOM      9  C   UNL     1       4.019   4.872  17.376  0.00  0.00    +0.000 A 
ATOM     10  C   UNL     1       3.685   5.949  18.211  0.00  0.00    +0.000 A 
BRANCH   9  11
ATOM     11  N   UNL     1       5.253   4.859  16.671  0.00  0.00    +0.000 N 
ATOM     12  C   UNL     1       5.358   5.163  15.263  0.00  0.00    +0.000 C 
ATOM     13  C   UNL     1       6.692   4.577  14.851  0.00  0.00    +0.000 C 
ATOM     14  C   UNL     1       7.535   4.704  16.104  0.00  0.00    +0.000 C 
ATOM     15  C   UNL     1       6.521   4.603  17.219  0.00  0.00    +0.000 C 
ATOM     16  O   UNL     1       6.836   4.382  18.377  0.00  0.00    +0.000 OA
ENDBRANCH   9  11
ENDBRANCH   2   5
BRANCH   3  17
ATOM     17  C   UNL     1       1.433   9.620  19.659  0.00  0.00    +0.000 C 
ATOM     18  C   UNL     1       1.265  10.839  18.726  0.00  0.00    +0.000 C 
ATOM     19  C   UNL     1      -0.217  10.461  18.558  0.00  0.00    +0.000 C 
ATOM     20  C   UNL     1      -0.117   9.559  19.822  0.00  0.00    +0.000 C 
BRANCH  20  21
ATOM     21  N   UNL     1      -0.592  10.228  21.011  0.00  0.00    +0.000 N 
ATOM     22  C   UNL     1      -0.424   9.715  22.270  0.00  0.00    +0.000 A 
ATOM     23  C   UNL     1      -0.846  10.691  23.140  0.00  0.00    +0.000 A 
ATOM     24  C   UNL     1      -1.273  11.745  22.313  0.00  0.00    +0.000 A 
ATOM     25  N   UNL     1      -1.145  11.456  21.017  0.00  0.00    +0.000 NA
ENDBRANCH  20  21
BRANCH  19  26
ATOM     26  O   UNL     1      -0.542   9.754  17.335  0.00  0.00    +0.000 OA
ATOM     27  H   UNL     1      -1.001  10.409  16.779  0.00  0.00    +0.000 HD
ENDBRANCH  19  26
ENDBRANCH   3  17
TORSDOF 5
ENDMDL
MODEL 3
REMARK VINA RESULT:      -8.3      3.611      8.161
REMARK  Name = 
REMARK  5 active torsions:
REMARK  status: ('A' for Active; 'I' for Inactive)
REMARK    1  A    between atoms: C_2  and  C_14
REMARK    2  A    between atoms: N_3  and  C_4
REMARK    3  A    between atoms: C_6  and  O_7
REMARK    4  A    between atoms: C_8  and  N_9
REMARK    5  A    between atoms: C_18  and  N_19
REMARK                            x       y       z     vdW  Elec       q    Type
REMARK                         _______ _______ _______ _____ _____    ______ ____
ROOT
ATOM      1  O   UNL     1       2.297  10.148  17.362  0.00  0.00    +0.000 OA
ATOM      2  C   UNL     1       1.903   9.279  18.127  0.00  0.00    +0.000 C 
ATOM      3  N   UNL     1       0.916   9.478  19.076  0.00  0.00    +0.000 N 
ATOM      4  H   UNL     1       0.869   8.796  19.825  0.00  0.00    +0.000 HD
ENDROOT
BRANCH   2   5
ATOM      5  C   UNL     1       2.531   7.934  18.112  0.00  0.00    +0.000 A 
ATOM      6  C   UNL     1       3.691   7.759  17.356  0.00  0.00    +0.000 A 
ATOM      7  C   UNL     1       4.328   6.526  17.359  0.00  0.00    +0.000 A 
ATOM      8  C   UNL     1       3.812   5.472  18.121  0.00  0.00    +0.000 A 
ATOM      9  C   UNL     1       2.641   5.618  18.878  0.00  0.00    +0.000 A 
ATOM     10  C   UNL     1       1.992   6.861  18.838  0.00  0.00    +0.000 A 
BRANCH   9  11
ATOM     11  N   UNL     1       2.137   4.565  19.689  0.00  0.00    +0.000 N 
ATOM     12  C   UNL     1       2.251   4.560  21.130  0.00  0.00    +0.000 C 
ATOM     13  C   UNL     1       2.042   3.111  21.516  0.00  0.00    +0.000 C 
ATOM     14  C   UNL     1       1.095   2.595  20.452  0.00  0.00    +0.000 C 
ATOM     15  C   UNL     1       1.438   3.432  19.242  0.00  0.00    +0.000 C 
ATOM     16  O   UNL     1       1.090   3.130  18.112  0.00  0.00    +0.000 OA
ENDBRANCH   9  11
ENDBRANCH   2   5
BRANCH   3  17
ATOM     17  C   UNL     1       0.335  10.833  19.317  0.00  0.00    +0.000 C 
ATOM     18  C   UNL     1      -0.801  10.872  20.362  0.00  0.00    +0.000 C 
ATOM     19  C   UNL     1       0.230  11.318  21.413  0.00  0.00    +0.000 C 
ATOM     20  C   UNL     1       1.211  11.704  20.269  0.00  0.00    +0.000 C 
BRANCH  20  21
ATOM     21  N   UNL     1       1.163  13.113  19.960  0.00  0.00    +0.000 N 
ATOM     22  C   UNL     1       1.208  14.087  20.922  0.00  0.00    +0.000 A 
ATOM     23  C   UNL     1       1.309  15.283  20.252  0.00  0.00    +0.000 A 
ATOM     24  C   UNL     1       1.293  14.931  18.891  0.00  0.00    +0.000 A 
ATOM     25  N   UNL     1       1.177  13.614  18.710  0.00  0.00    +0.000 NA
ENDBRANCH  20  21
BRANCH  19  26
ATOM     26  O   UNL     1       0.710  10.271  22.295  0.00  0.00    +0.000 OA
ATOM     27  H   UNL     1       1.666  10.432  22.381  0.00  0.00    +0.000 HD
ENDBRANCH  19  26
ENDBRANCH   3  17
TORSDOF 5
ENDMDL
MODEL 4
REMARK VINA RESULT:      -8.3      2.551      8.511
REMARK  Name = 
REMARK  5 active torsions:
REMARK  status: ('A' for Active; 'I' for Inactive)
REMARK    1  A    between atoms: C_2  and  C_14
REMARK    2  A    between atoms: N_3  and  C_4
REMARK    3  A    between atoms: C_6  and  O_7
REMARK    4  A    between atoms: C_8  and  N_9
REMARK    5  A    between atoms: C_18  and  N_19
REMARK                            x       y       z     vdW  Elec       q    Type
REMARK                         _______ _______ _______ _____ _____    ______ ____
ROOT
ATOM      1  O   UNL     1       2.128   9.667  17.398  0.00  0.00    +0.000 OA
ATOM      2  C   UNL     1       1.898   8.998  18.396  0.00  0.00    +0.000 C 
ATOM      3  N   UNL     1       1.064   9.406  19.422  0.00  0.00    +0.000 N 
ATOM      4  H   UNL     1       1.166   8.918  20.304  0.00  0.00    +0.000 HD
ENDROOT
BRANCH   2   5
ATOM      5  C   UNL     1       2.577   7.691  18.587  0.00  0.00    +0.000 A 
ATOM      6  C   UNL     1       2.236   6.932  19.707  0.00  0.00    +0.000 A 
ATOM      7  C   UNL     1       2.818   5.685  19.889  0.00  0.00    +0.000 A 
ATOM      8  C   UNL     1       3.733   5.195  18.952  0.00  0.00    +0.000 A 
ATOM      9  C   UNL     1       4.104   5.945  17.826  0.00  0.00    +0.000 A 
ATOM     10  C   UNL     1       3.530   7.216  17.674  0.00  0.00    +0.000 A 
BRANCH   9  11
ATOM     11  N   UNL     1       4.999   5.434  16.847  0.00  0.00    +0.000 N 
ATOM     12  C   UNL     1       4.725   4.241  16.079  0.00  0.00    +0.000 C 
ATOM     13  C   UNL     1       6.080   3.815  15.553  0.00  0.00    +0.000 C 
ATOM     14  C   UNL     1       6.821   5.126  15.386  0.00  0.00    +0.000 C 
ATOM     15  C   UNL     1       6.219   6.007  16.455  0.00  0.00    +0.000 C 
ATOM     16  O   UNL     1       6.743   7.046  16.824  0.00  0.00    +0.000 OA
ENDBRANCH   9  11
ENDBRANCH   2   5
BRANCH   3  17
ATOM     17  C   UNL     1       0.469  10.776  19.437  0.00  0.00    +0.000 C 
ATOM     18  C   UNL     1      -0.823  10.909  20.273  0.00  0.00    +0.000 C 
ATOM     19  C   UNL     1       0.026  11.454  21.433  0.00  0.00    +0.000 C 
ATOM     20  C   UNL     1       1.187  11.735  20.435  0.00  0.00    +0.000 C 
BRANCH  20  21
ATOM     21  N   UNL     1       1.206  13.109  19.993  0.00  0.00    +0.000 N 
ATOM     22  C   UNL     1       1.342  14.165  20.854  0.00  0.00    +0.000 A 
ATOM     23  C   UNL     1       1.486  15.284  20.069  0.00  0.00    +0.000 A 
ATOM     24  C   UNL     1       1.400  14.806  18.750  0.00  0.00    +0.000 A 
ATOM     25  N   UNL     1       1.203  13.487  18.700  0.00  0.00    +0.000 NA
ENDBRANCH  20  21
BRANCH  19  26
ATOM     26  O   UNL     1       0.342  10.496  22.475  0.00  0.00    +0.000 OA
ATOM     27  H   UNL     1       0.252  10.991  23.309  0.00  0.00    +0.000 HD
ENDBRANCH  19  26
ENDBRANCH   3  17
TORSDOF 5
ENDMDL
MODEL 5
REMARK VINA RESULT:      -8.3      1.019      1.334
REMARK  Name = 
REMARK  5 active torsions:
REMARK  status: ('A' for Active; 'I' for Inactive)
REMARK    1  A    between atoms: C_2  and  C_14
REMARK    2  A    between atoms: N_3  and  C_4
REMARK    3  A    between atoms: C_6  and  O_7
REMARK    4  A    between atoms: C_8  and  N_9
REMARK    5  A    between atoms: C_18  and  N_19
REMARK                            x       y       z     vdW  Elec       q    Type
REMARK                         _______ _______ _______ _____ _____    ______ ____
ROOT
ATOM      1  O   UNL     1       3.776   4.896  17.102  0.00  0.00    +0.000 OA
ATOM      2  C   UNL     1       3.925   5.934  17.731  0.00  0.00    +0.000 C 
ATOM      3  N   UNL     1       4.992   6.798  17.553  0.00  0.00    +0.000 N 
ATOM      4  H   UNL     1       5.164   7.459  18.300  0.00  0.00    +0.000 HD
ENDROOT
BRANCH   2   5
ATOM      5  C   UNL     1       2.962   6.300  18.801  0.00  0.00    +0.000 A 
ATOM      6  C   UNL     1       2.609   5.322  19.730  0.00  0.00    +0.000 A 
ATOM      7  C   UNL     1       1.747   5.646  20.769  0.00  0.00    +0.000 A 
ATOM      8  C   UNL     1       1.245   6.947  20.883  0.00  0.00    +0.000 A 
ATOM      9  C   UNL     1       1.574   7.944  19.953  0.00  0.00    +0.000 A 
ATOM     10  C   UNL     1       2.420   7.592  18.892  0.00  0.00    +0.000 A 
BRANCH   9  11
ATOM     11  N   UNL     1       1.103   9.279  20.090  0.00  0.00    +0.000 N 
ATOM     12  C   UNL     1       0.562  10.039  18.987  0.00  0.00    +0.000 C 
ATOM     13  C   UNL     1       0.647  11.479  19.446  0.00  0.00    +0.000 C 
ATOM     14  C   UNL     1       0.472  11.381  20.948  0.00  0.00    +0.000 C 
ATOM     15  C   UNL     1       1.048  10.024  21.279  0.00  0.00    +0.000 C 
ATOM     16  O   UNL     1       1.344   9.694  22.417  0.00  0.00    +0.000 OA
ENDBRANCH   9  11
ENDBRANCH   2   5
BRANCH   3  17
ATOM     17  C   UNL     1       6.123   6.451  16.641  0.00  0.00    +0.000 C 
ATOM     18  C   UNL     1       7.477   6.223  17.349  0.00  0.00    +0.000 C 
ATOM     19  C   UNL     1       7.205   4.710  17.303  0.00  0.00    +0.000 C 
ATOM     20  C   UNL     1       6.118   4.951  16.216  0.00  0.00    +0.000 C 
BRANCH  20  21
ATOM     21  N   UNL     1       6.623   4.734  14.880  0.00  0.00    +0.000 N 
ATOM     22  C   UNL     1       6.079   3.817  14.020  0.00  0.00    +0.000 A 
ATOM     23  C   UNL     1       6.701   4.010  12.810  0.00  0.00    +0.000 A 
ATOM     24  C   UNL     1       7.621   5.047  13.045  0.00  0.00    +0.000 A 
ATOM     25  N   UNL     1       7.594   5.472  14.310  0.00  0.00    +0.000 NA
ENDBRANCH  20  21
BRANCH  19  26
ATOM     26  O   UNL     1       6.709   4.130  18.536  0.00  0.00    +0.000 OA
ATOM     27  H   UNL     1       7.222   3.311  18.654  0.00  0.00    +0.000 HD
ENDBRANCH  19  26
ENDBRANCH   3  17
TORSDOF 5
ENDMDL
MODEL 6
REMARK VINA RESULT:      -8.2      1.515      1.819
REMARK  Name = 
REMARK  5 active torsions:
REMARK  status: ('A' for Active; 'I' for Inactive)
REMARK    1  A    between atoms: C_2  and  C_14
REMARK    2  A    between atoms: N_3  and  C_4
REMARK    3  A    between atoms: C_6  and  O_7
REMARK    4  A    between atoms: C_8  and  N_9
REMARK    5  A    between atoms: C_18  and  N_19
REMARK                            x       y       z     vdW  Elec       q    Type
REMARK                         _______ _______ _______ _____ _____    ______ ____
ROOT
ATOM      1  O   UNL     1       3.311   7.763  16.756  0.00  0.00    +0.000 OA
ATOM      2  C   UNL     1       3.637   7.278  17.830  0.00  0.00    +0.000 C 
ATOM      3  N   UNL     1       4.869   6.697  18.072  0.00  0.00    +0.000 N 
ATOM      4  H   UNL     1       4.929   6.090  18.881  0.00  0.00    +0.000 HD
ENDROOT
BRANCH   2   5
ATOM      5  C   UNL     1       2.666   7.237  18.953  0.00  0.00    +0.000 A 
ATOM      6  C   UNL     1       2.521   6.039  19.653  0.00  0.00    +0.000 A 
ATOM      7  C   UNL     1       1.656   5.982  20.737  0.00  0.00    +0.000 A 
ATOM      8  C   UNL     1       0.942   7.121  21.125  0.00  0.00    +0.000 A 
ATOM      9  C   UNL     1       1.058   8.332  20.428  0.00  0.00    +0.000 A 
ATOM     10  C   UNL     1       1.913   8.364  19.316  0.00  0.00    +0.000 A 
BRANCH   9  11
ATOM     11  N   UNL     1       0.370   9.504  20.845  0.00  0.00    +0.000 N 
ATOM     12  C   UNL     1      -0.512  10.249  19.976  0.00  0.00    +0.000 C 
ATOM     13  C   UNL     1      -0.625  11.609  20.633  0.00  0.00    +0.000 C 
ATOM     14  C   UNL     1      -0.485  11.299  22.110  0.00  0.00    +0.000 C 
ATOM     15  C   UNL     1       0.400  10.074  22.128  0.00  0.00    +0.000 C 
ATOM     16  O   UNL     1       0.969   9.688  23.137  0.00  0.00    +0.000 OA
ENDBRANCH   9  11
ENDBRANCH   2   5
BRANCH   3  17
ATOM     17  C   UNL     1       5.865   6.509  16.973  0.00  0.00    +0.000 C 
ATOM     18  C   UNL     1       7.327   6.806  17.370  0.00  0.00    +0.000 C 
ATOM     19  C   UNL     1       7.538   5.298  17.583  0.00  0.00    +0.000 C 
ATOM     20  C   UNL     1       6.250   5.013  16.758  0.00  0.00    +0.000 C 
BRANCH  20  21
ATOM     21  N   UNL     1       6.543   4.692  15.381  0.00  0.00    +0.000 N 
ATOM     22  C   UNL     1       5.820   3.778  14.661  0.00  0.00    +0.000 A 
ATOM     23  C   UNL     1       6.276   3.863  13.367  0.00  0.00    +0.000 A 
ATOM     24  C   UNL     1       7.289   4.836  13.410  0.00  0.00    +0.000 A 
ATOM     25  N   UNL     1       7.472   5.324  14.638  0.00  0.00    +0.000 NA
ENDBRANCH  20  21
BRANCH  19  26
ATOM     26  O   UNL     1       7.484   4.852  18.962  0.00  0.00    +0.000 OA
ATOM     27  H   UNL     1       7.751   5.627  19.489  0.00  0.00    +0.000 HD
ENDBRANCH  19  26
ENDBRANCH   3  17
TORSDOF 5
ENDMDL
MODEL 7
REMARK VINA RESULT:      -8.2      2.400      8.194
REMARK  Name = 
REMARK  5 active torsions:
REMARK  status: ('A' for Active; 'I' for Inactive)
REMARK    1  A    between atoms: C_2  and  C_14
REMARK    2  A    between atoms: N_3  and  C_4
REMARK    3  A    between atoms: C_6  and  O_7
REMARK    4  A    between atoms: C_8  and  N_9
REMARK    5  A    between atoms: C_18  and  N_19
REMARK                            x       y       z     vdW  Elec       q    Type
REMARK                         _______ _______ _______ _____ _____    ______ ____
ROOT
ATOM      1  O   UNL     1       1.429   8.090  21.761  0.00  0.00    +0.000 OA
ATOM      2  C   UNL     1       1.572   7.784  20.585  0.00  0.00    +0.000 C 
ATOM      3  N   UNL     1       1.181   8.586  19.527  0.00  0.00    +0.000 N 
ATOM      4  H   UNL     1       1.086   8.128  18.628  0.00  0.00    +0.000 HD
ENDROOT
BRANCH   2   5
ATOM      5  C   UNL     1       2.140   6.460  20.225  0.00  0.00    +0.000 A 
ATOM      6  C   UNL     1       1.463   5.317  20.650  0.00  0.00    +0.000 A 
ATOM      7  C   UNL     1       1.943   4.065  20.290  0.00  0.00    +0.000 A 
ATOM      8  C   UNL     1       3.093   3.956  19.501  0.00  0.00    +0.000 A 
ATOM      9  C   UNL     1       3.800   5.090  19.073  0.00  0.00    +0.000 A 
ATOM     10  C   UNL     1       3.319   6.346  19.472  0.00  0.00    +0.000 A 
BRANCH   9  11
ATOM     11  N   UNL     1       4.942   4.986  18.233  0.00  0.00    +0.000 N 
ATOM     12  C   UNL     1       4.852   4.821  16.800  0.00  0.00    +0.000 C 
ATOM     13  C   UNL     1       6.212   4.288  16.399  0.00  0.00    +0.000 C 
ATOM     14  C   UNL     1       7.149   4.915  17.411  0.00  0.00    +0.000 C 
ATOM     15  C   UNL     1       6.284   5.072  18.639  0.00  0.00    +0.000 C 
ATOM     16  O   UNL     1       6.747   5.281  19.749  0.00  0.00    +0.000 OA
ENDBRANCH   9  11
ENDBRANCH   2   5
BRANCH   3  17
ATOM     17  C   UNL     1       0.430   9.857  19.755  0.00  0.00    +0.000 C 
ATOM     18  C   UNL     1       1.317  11.111  19.915  0.00  0.00    +0.000 C 
ATOM     19  C   UNL     1       1.067  11.433  18.432  0.00  0.00    +0.000 C 
ATOM     20  C   UNL     1      -0.148  10.461  18.439  0.00  0.00    +0.000 C 
BRANCH  20  21
ATOM     21  N   UNL     1      -1.401  11.153  18.631  0.00  0.00    +0.000 N 
ATOM     22  C   UNL     1      -2.502  10.927  17.847  0.00  0.00    +0.000 A 
ATOM     23  C   UNL     1      -3.533  11.629  18.425  0.00  0.00    +0.000 A 
ATOM     24  C   UNL     1      -2.952  12.265  19.535  0.00  0.00    +0.000 A 
ATOM     25  N   UNL     1      -1.649  11.999  19.648  0.00  0.00    +0.000 NA
ENDBRANCH  20  21
BRANCH  19  26
ATOM     26  O   UNL     1       2.136  11.059  17.527  0.00  0.00    +0.000 OA
ATOM     27  H   UNL     1       1.700  10.908  16.669  0.00  0.00    +0.000 HD
ENDBRANCH  19  26
ENDBRANCH   3  17
TORSDOF 5
ENDMDL
MODEL 8
REMARK VINA RESULT:      -8.1      2.427      8.541
REMARK  Name = 
REMARK  5 active torsions:
REMARK  status: ('A' for Active; 'I' for Inactive)
REMARK    1  A    between atoms: C_2  and  C_14
REMARK    2  A    between atoms: N_3  and  C_4
REMARK    3  A    between atoms: C_6  and  O_7
REMARK    4  A    between atoms: C_8  and  N_9
REMARK    5  A    between atoms: C_18  and  N_19
REMARK                            x       y       z     vdW  Elec       q    Type
REMARK                         _______ _______ _______ _____ _____    ______ ____
ROOT
ATOM      1  O   UNL     1       2.029   9.455  17.357  0.00  0.00    +0.000 OA
ATOM      2  C   UNL     1       1.901   8.843  18.408  0.00  0.00    +0.000 C 
ATOM      3  N   UNL     1       1.168   9.306  19.487  0.00  0.00    +0.000 N 
ATOM      4  H   UNL     1       1.359   8.869  20.381  0.00  0.00    +0.000 HD
ENDROOT
BRANCH   2   5
ATOM      5  C   UNL     1       2.605   7.550  18.606  0.00  0.00    +0.000 A 
ATOM      6  C   UNL     1       2.183   6.726  19.649  0.00  0.00    +0.000 A 
ATOM      7  C   UNL     1       2.789   5.490  19.831  0.00  0.00    +0.000 A 
ATOM      8  C   UNL     1       3.810   5.077  18.968  0.00  0.00    +0.000 A 
ATOM      9  C   UNL     1       4.262   5.893  17.921  0.00  0.00    +0.000 A 
ATOM     10  C   UNL     1       3.660   7.152  17.771  0.00  0.00    +0.000 A 
BRANCH   9  11
ATOM     11  N   UNL     1       5.267   5.460  17.014  0.00  0.00    +0.000 N 
ATOM     12  C   UNL     1       5.197   5.698  15.591  0.00  0.00    +0.000 C 
ATOM     13  C   UNL     1       6.161   4.694  14.995  0.00  0.00    +0.000 C 
ATOM     14  C   UNL     1       7.220   4.542  16.068  0.00  0.00    +0.000 C 
ATOM     15  C   UNL     1       6.460   4.799  17.348  0.00  0.00    +0.000 C 
ATOM     16  O   UNL     1       6.898   4.495  18.446  0.00  0.00    +0.000 OA
ENDBRANCH   9  11
ENDBRANCH   2   5
BRANCH   3  17
ATOM     17  C   UNL     1       0.567  10.674  19.483  0.00  0.00    +0.000 C 
ATOM     18  C   UNL     1      -0.771  10.793  20.245  0.00  0.00    +0.000 C 
ATOM     19  C   UNL     1       0.008  11.328  21.458  0.00  0.00    +0.000 C 
ATOM     20  C   UNL     1       1.223  11.624  20.532  0.00  0.00    +0.000 C 
BRANCH  20  21
ATOM     21  N   UNL     1       1.262  13.003  20.106  0.00  0.00    +0.000 N 
ATOM     22  C   UNL     1       1.219  13.376  18.789  0.00  0.00    +0.000 A 
ATOM     23  C   UNL     1       1.107  14.746  18.781  0.00  0.00    +0.000 A 
ATOM     24  C   UNL     1       1.116  15.110  20.139  0.00  0.00    +0.000 A 
ATOM     25  N   UNL     1       1.236  14.055  20.947  0.00  0.00    +0.000 NA
ENDBRANCH  20  21
BRANCH  19  26
ATOM     26  O   UNL     1       0.268  10.359  22.506  0.00  0.00    +0.000 OA
ATOM     27  H   UNL     1      -0.287   9.591  22.282  0.00  0.00    +0.000 HD
ENDBRANCH  19  26
ENDBRANCH   3  17
TORSDOF 5
ENDMDL
MODEL 9
REMARK VINA RESULT:      -8.1      3.525      8.174
REMARK  Name = 
REMARK  5 active torsions:
REMARK  status: ('A' for Active; 'I' for Inactive)
REMARK    1  A    between atoms: C_2  and  C_14
REMARK    2  A    between atoms: N_3  and  C_4
REMARK    3  A    between atoms: C_6  and  O_7
REMARK    4  A    between atoms: C_8  and  N_9
REMARK    5  A    between atoms: C_18  and  N_19
REMARK                            x       y       z     vdW  Elec       q    Type
REMARK                         _______ _______ _______ _____ _____    ______ ____
ROOT
ATOM      1  O   UNL     1       2.294  10.111  17.330  0.00  0.00    +0.000 OA
ATOM      2  C   UNL     1       1.941   9.191  18.055  0.00  0.00    +0.000 C 
ATOM      3  N   UNL     1       0.963   9.306  19.027  0.00  0.00    +0.000 N 
ATOM      4  H   UNL     1       0.950   8.586  19.739  0.00  0.00    +0.000 HD
ENDROOT
BRANCH   2   5
ATOM      5  C   UNL     1       2.614   7.870  17.961  0.00  0.00    +0.000 A 
ATOM      6  C   UNL     1       3.880   7.818  17.377  0.00  0.00    +0.000 A 
ATOM      7  C   UNL     1       4.555   6.606  17.317  0.00  0.00    +0.000 A 
ATOM      8  C   UNL     1       3.969   5.451  17.845  0.00  0.00    +0.000 A 
ATOM      9  C   UNL     1       2.692   5.475  18.424  0.00  0.00    +0.000 A 
ATOM     10  C   UNL     1       2.011   6.701  18.448  0.00  0.00    +0.000 A 
BRANCH   9  11
ATOM     11  N   UNL     1       2.111   4.313  19.003  0.00  0.00    +0.000 N 
ATOM     12  C   UNL     1       1.663   3.185  18.220  0.00  0.00    +0.000 C 
ATOM     13  C   UNL     1       0.718   2.441  19.141  0.00  0.00    +0.000 C 
ATOM     14  C   UNL     1       1.286   2.710  20.519  0.00  0.00    +0.000 C 
ATOM     15  C   UNL     1       1.930   4.069  20.374  0.00  0.00    +0.000 C 
ATOM     16  O   UNL     1       2.251   4.752  21.333  0.00  0.00    +0.000 OA
ENDBRANCH   9  11
ENDBRANCH   2   5
BRANCH   3  17
ATOM     17  C   UNL     1       0.341  10.627  19.346  0.00  0.00    +0.000 C 
ATOM     18  C   UNL     1      -0.712  10.588  20.475  0.00  0.00    +0.000 C 
ATOM     19  C   UNL     1       0.375  11.058  21.456  0.00  0.00    +0.000 C 
ATOM     20  C   UNL     1       1.247  11.516  20.251  0.00  0.00    +0.000 C 
BRANCH  20  21
ATOM     21  N   UNL     1       1.110  12.929  19.983  0.00  0.00    +0.000 N 
ATOM     22  C   UNL     1       1.422  13.893  20.904  0.00  0.00    +0.000 A 
ATOM     23  C   UNL     1       1.328  15.096  20.246  0.00  0.00    +0.000 A 
ATOM     24  C   UNL     1       0.931  14.757  18.941  0.00  0.00    +0.000 A 
ATOM     25  N   UNL     1       0.771  13.441  18.785  0.00  0.00    +0.000 NA
ENDBRANCH  20  21
BRANCH  19  26
ATOM     26  O   UNL     1       0.968  10.016  22.271  0.00  0.00    +0.000 OA
ATOM     27  H   UNL     1       0.508   9.199  22.010  0.00  0.00    +0.000 HD
ENDBRANCH  19  26
ENDBRANCH   3  17
TORSDOF 5
ENDMDL
