MODEL 1
REMARK VINA RESULT:      -8.1      0.000      0.000
REMARK  Name = 
REMARK  8 active torsions:
REMARK  status: ('A' for Active; 'I' for Inactive)
REMARK    1  A    between atoms: C_1  and  N_2
REMARK    2  A    between atoms: C_6  and  C_7
REMARK    3  A    between atoms: C_7  and  C_8
REMARK    4  A    between atoms: C_8  and  C_9
REMARK    5  A    between atoms: C_9  and  C_10
REMARK    6  A    between atoms: C_14  and  N_15
REMARK    7  A    between atoms: C_20  and  N_21
REMARK    8  A    between atoms: C_23  and  C_24
REMARK                            x       y       z     vdW  Elec       q    Type
REMARK                         _______ _______ _______ _____ _____    ______ ____
ROOT
ATOM      1  N   UNL     1       6.072   5.375  15.495  0.00  0.00    +0.000 N 
ATOM      2  C   UNL     1       4.895   6.246  15.756  0.00  0.00    +0.000 C 
ATOM      3  C   UNL     1       4.147   5.467  16.797  0.00  0.00    +0.000 A 
ATOM      4  C   UNL     1       4.468   4.121  16.611  0.00  0.00    +0.000 A 
ATOM      5  C   UNL     1       4.115   3.135  17.525  0.00  0.00    +0.000 A 
ATOM      6  C   UNL     1       3.380   3.514  18.649  0.00  0.00    +0.000 A 
ATOM      7  C   UNL     1       3.093   4.880  18.855  0.00  0.00    +0.000 A 
ATOM      8  C   UNL     1       3.451   5.882  17.925  0.00  0.00    +0.000 A 
ATOM      9  C   UNL     1       5.579   4.042  15.638  0.00  0.00    +0.000 C 
ATOM     10  O   UNL     1       6.075   3.009  15.242  0.00  0.00    +0.000 OA
ENDROOT
BRANCH   1  15
ATOM     11  C   UNL     1       7.738   7.619  17.774  0.00  0.00    +0.000 A 
ATOM     12  C   UNL     1       7.722   6.783  18.897  0.00  0.00    +0.000 A 
ATOM     13  C   UNL     1       7.640   5.405  18.741  0.00  0.00    +0.000 A 
ATOM     14  C   UNL     1       7.456   4.864  17.474  0.00  0.00    +0.000 A 
ATOM     15  C   UNL     1       7.165   5.721  16.401  0.00  0.00    +0.000 A 
ATOM     16  C   UNL     1       7.498   7.074  16.509  0.00  0.00    +0.000 A 
BRANCH  11  17
ATOM     17  C   UNL     1       7.969   9.096  17.939  0.00  0.00    +0.000 C 
BRANCH  17  18
ATOM     18  C   UNL     1       9.174   9.373  18.844  0.00  0.00    +0.000 C 
BRANCH  18  19
ATOM     19  C   UNL     1       9.168  10.758  19.512  0.00  0.00    +0.000 C 
BRANCH  19  25
ATOM     20  C   UNL     1      12.093  11.804  19.878  0.00  0.00    +0.000 C 
ATOM     21  N   UNL     1      11.149  12.219  18.874  0.00  0.00    +0.000 N 
ATOM     22  C   UNL     1      11.379  13.143  17.902  0.00  0.00    +0.000 A 
ATOM     23  N   UNL     1      10.305  13.285  17.165  0.00  0.00    +0.000 NA
ATOM     24  N   UNL     1       9.343  12.445  17.673  0.00  0.00    +0.000 NA
ATOM     25  C   UNL     1       9.859  11.790  18.694  0.00  0.00    +0.000 A 
ENDBRANCH  19  25
ENDBRANCH  18  19
ENDBRANCH  17  18
ENDBRANCH  11  17
ENDBRANCH   1  15
BRANCH   8  26
ATOM     26  C   UNL     1       3.167   7.323  18.255  0.00  0.00    +0.000 C 
ATOM     27  F   UNL     1       4.214   8.163  18.031  0.00  0.00    +0.000 F 
ATOM     28  F   UNL     1       2.136   7.819  17.518  0.00  0.00    +0.000 F 
ATOM     29  F   UNL     1       2.815   7.505  19.558  0.00  0.00    +0.000 F 
ENDBRANCH   8  26
BRANCH   6  30
ATOM     30  N   UNL     1       3.194   2.605  19.699  0.00  0.00    +0.000 N 
ATOM     31  H   UNL     1       3.906   1.882  19.752  0.00  0.00    +0.000 HD
ATOM     32  H   UNL     1       2.256   2.225  19.770  0.00  0.00    +0.000 HD
ENDBRANCH   6  30
TORSDOF 7
ENDMDL
MODEL 2
REMARK VINA RESULT:      -8.1      1.279      1.697
REMARK  Name = 
REMARK  8 active torsions:
REMARK  status: ('A' for Active; 'I' for Inactive)
REMARK    1  A    between atoms: C_1  and  N_2
REMARK    2  A    between atoms: C_6  and  C_7
REMARK    3  A    between atoms: C_7  and  C_8
REMARK    4  A    between atoms: C_8  and  C_9
REMARK    5  A    between atoms: C_9  and  C_10
REMARK    6  A    between atoms: C_14  and  N_15
REMARK    7  A    between atoms: C_20  and  N_21
REMARK    8  A    between atoms: C_23  and  C_24
REMARK                            x       y       z     vdW  Elec       q    Type
REMARK                         _______ _______ _______ _____ _____    ______ ____
ROOT
ATOM      1  N   UNL     1       5.707   5.820  15.788  0.00  0.00    +0.000 N 
ATOM      2  C   UNL     1       4.584   6.267  16.655  0.00  0.00    +0.000 C 
ATOM      3  C   UNL     1       4.095   4.974  17.235  0.00  0.00    +0.000 A 
ATOM      4  C   UNL     1       4.412   3.968  16.320  0.00  0.00    +0.000 A 
ATOM      5  C   UNL     1       4.289   2.616  16.623  0.00  0.00    +0.000 A 
ATOM      6  C   UNL     1       3.795   2.267  17.880  0.00  0.00    +0.000 A 
ATOM      7  C   UNL     1       3.514   3.284  18.816  0.00  0.00    +0.000 A 
ATOM      8  C   UNL     1       3.638   4.657  18.509  0.00  0.00    +0.000 A 
ATOM      9  C   UNL     1       5.298   4.548  15.287  0.00  0.00    +0.000 C 
ATOM     10  O   UNL     1       5.731   3.938  14.333  0.00  0.00    +0.000 OA
ENDROOT
BRANCH   1  15
ATOM     11  C   UNL     1       7.967   7.191  18.242  0.00  0.00    +0.000 A 
ATOM     12  C   UNL     1       7.997   6.085  19.100  0.00  0.00    +0.000 A 
ATOM     13  C   UNL     1       7.708   4.815  18.614  0.00  0.00    +0.000 A 
ATOM     14  C   UNL     1       7.275   4.661  17.301  0.00  0.00    +0.000 A 
ATOM     15  C   UNL     1       6.954   5.802  16.550  0.00  0.00    +0.000 A 
ATOM     16  C   UNL     1       7.479   7.037  16.941  0.00  0.00    +0.000 A 
BRANCH  11  17
ATOM     17  C   UNL     1       8.417   8.538  18.737  0.00  0.00    +0.000 C 
BRANCH  17  18
ATOM     18  C   UNL     1       8.361   9.587  17.622  0.00  0.00    +0.000 C 
BRANCH  18  19
ATOM     19  C   UNL     1       8.503  11.041  18.103  0.00  0.00    +0.000 C 
BRANCH  19  25
ATOM     20  C   UNL     1       9.432  11.483  21.057  0.00  0.00    +0.000 C 
ATOM     21  N   UNL     1      10.256  11.533  19.879  0.00  0.00    +0.000 N 
ATOM     22  C   UNL     1      11.594  11.778  19.855  0.00  0.00    +0.000 A 
ATOM     23  N   UNL     1      12.025  11.759  18.618  0.00  0.00    +0.000 NA
ATOM     24  N   UNL     1      10.943  11.509  17.809  0.00  0.00    +0.000 NA
ATOM     25  C   UNL     1       9.878  11.355  18.572  0.00  0.00    +0.000 A 
ENDBRANCH  19  25
ENDBRANCH  18  19
ENDBRANCH  17  18
ENDBRANCH  11  17
ENDBRANCH   1  15
BRANCH   8  26
ATOM     26  C   UNL     1       3.384   5.677  19.587  0.00  0.00    +0.000 C 
ATOM     27  F   UNL     1       2.505   6.654  19.235  0.00  0.00    +0.000 F 
ATOM     28  F   UNL     1       2.869   5.109  20.712  0.00  0.00    +0.000 F 
ATOM     29  F   UNL     1       4.519   6.319  19.981  0.00  0.00    +0.000 F 
ENDBRANCH   8  26
BRANCH   6  30
ATOM     30  N   UNL     1       3.861   0.935  18.309  0.00  0.00    +0.000 N 
ATOM     31  H   UNL     1       4.681   0.721  18.869  0.00  0.00    +0.000 HD
ATOM     32  H   UNL     1       3.705   0.246  17.581  0.00  0.00    +0.000 HD
ENDBRANCH   6  30
TORSDOF 7
ENDMDL
MODEL 3
REMARK VINA RESULT:      -8.0      4.726      7.298
REMARK  Name = 
REMARK  8 active torsions:
REMARK  status: ('A' for Active; 'I' for Inactive)
REMARK    1  A    between atoms: C_1  and  N_2
REMARK    2  A    between atoms: C_6  and  C_7
REMARK    3  A    between atoms: C_7  and  C_8
REMARK    4  A    between atoms: C_8  and  C_9
REMARK    5  A    between atoms: C_9  and  C_10
REMARK    6  A    between atoms: C_14  and  N_15
REMARK    7  A    between atoms: C_20  and  N_21
REMARK    8  A    between atoms: C_23  and  C_24
REMARK                            x       y       z     vdW  Elec       q    Type
REMARK                         _______ _______ _______ _____ _____    ______ ____
ROOT
ATOM      1  N   UNL     1       2.714   7.039  19.553  0.00  0.00    +0.000 N 
ATOM      2  C   UNL     1       2.338   7.903  20.704  0.00  0.00    +0.000 C 
ATOM      3  C   UNL     1       1.348   8.844  20.087  0.00  0.00    +0.000 A 
ATOM      4  C   UNL     1       1.664   8.939  18.730  0.00  0.00    +0.000 A 
ATOM      5  C   UNL     1       0.830   9.566  17.810  0.00  0.00    +0.000 A 
ATOM      6  C   UNL     1      -0.346  10.150  18.281  0.00  0.00    +0.000 A 
ATOM      7  C   UNL     1      -0.682  10.017  19.645  0.00  0.00    +0.000 A 
ATOM      8  C   UNL     1       0.165   9.381  20.579  0.00  0.00    +0.000 A 
ATOM      9  C   UNL     1       2.675   7.905  18.419  0.00  0.00    +0.000 C 
ATOM     10  O   UNL     1       3.177   7.741  17.328  0.00  0.00    +0.000 OA
ENDROOT
BRANCH   1  15
ATOM     11  C   UNL     1       1.969   3.630  18.641  0.00  0.00    +0.000 A 
ATOM     12  C   UNL     1       1.664   3.161  19.924  0.00  0.00    +0.000 A 
ATOM     13  C   UNL     1       1.235   4.043  20.908  0.00  0.00    +0.000 A 
ATOM     14  C   UNL     1       1.220   5.410  20.650  0.00  0.00    +0.000 A 
ATOM     15  C   UNL     1       1.816   5.889  19.473  0.00  0.00    +0.000 A 
ATOM     16  C   UNL     1       2.004   5.008  18.405  0.00  0.00    +0.000 A 
BRANCH  11  17
ATOM     17  C   UNL     1       2.295   2.657  17.542  0.00  0.00    +0.000 C 
BRANCH  17  18
ATOM     18  C   UNL     1       3.807   2.442  17.419  0.00  0.00    +0.000 C 
BRANCH  18  19
ATOM     19  C   UNL     1       4.557   3.572  16.695  0.00  0.00    +0.000 C 
BRANCH  19  25
ATOM     20  C   UNL     1       7.220   4.859  15.675  0.00  0.00    +0.000 C 
ATOM     21  N   UNL     1       6.796   4.727  17.044  0.00  0.00    +0.000 N 
ATOM     22  C   UNL     1       7.490   5.153  18.134  0.00  0.00    +0.000 A 
ATOM     23  N   UNL     1       6.819   4.867  19.223  0.00  0.00    +0.000 NA
ATOM     24  N   UNL     1       5.665   4.229  18.840  0.00  0.00    +0.000 NA
ATOM     25  C   UNL     1       5.643   4.160  17.524  0.00  0.00    +0.000 A 
ENDBRANCH  19  25
ENDBRANCH  18  19
ENDBRANCH  17  18
ENDBRANCH  11  17
ENDBRANCH   1  15
BRANCH   8  26
ATOM     26  C   UNL     1      -0.301   9.222  22.002  0.00  0.00    +0.000 C 
ATOM     27  F   UNL     1       0.702   9.233  22.922  0.00  0.00    +0.000 F 
ATOM     28  F   UNL     1      -1.149  10.219  22.374  0.00  0.00    +0.000 F 
ATOM     29  F   UNL     1      -0.980   8.059  22.206  0.00  0.00    +0.000 F 
ENDBRANCH   8  26
BRANCH   6  30
ATOM     30  N   UNL     1      -1.316  10.593  17.373  0.00  0.00    +0.000 N 
ATOM     31  H   UNL     1      -2.054   9.918  17.193  0.00  0.00    +0.000 HD
ATOM     32  H   UNL     1      -0.945  10.992  16.516  0.00  0.00    +0.000 HD
ENDBRANCH   6  30
TORSDOF 7
ENDMDL
MODEL 4
REMARK VINA RESULT:      -8.0      4.853      7.285
REMARK  Name = 
REMARK  8 active torsions:
REMARK  status: ('A' for Active; 'I' for Inactive)
REMARK    1  A    between atoms: C_1  and  N_2
REMARK    2  A    between atoms: C_6  and  C_7
REMARK    3  A    between atoms: C_7  and  C_8
REMARK    4  A    between atoms: C_8  and  C_9
REMARK    5  A    between atoms: C_9  and  C_10
REMARK    6  A    between atoms: C_14  and  N_15
REMARK    7  A    between atoms: C_20  and  N_21
REMARK    8  A    between atoms: C_23  and  C_24
REMARK                            x       y       z     vdW  Elec       q    Type
REMARK                         _______ _______ _______ _____ _____    ______ ____
ROOT
ATOM      1  N   UNL     1       2.713   7.005  19.549  0.00  0.00    +0.000 N 
ATOM      2  C   UNL     1       2.332   7.853  20.710  0.00  0.00    +0.000 C 
ATOM      3  C   UNL     1       1.351   8.809  20.099  0.00  0.00    +0.000 A 
ATOM      4  C   UNL     1       1.678   8.923  18.746  0.00  0.00    +0.000 A 
ATOM      5  C   UNL     1       0.855   9.567  17.830  0.00  0.00    +0.000 A 
ATOM      6  C   UNL     1      -0.322  10.150  18.300  0.00  0.00    +0.000 A 
ATOM      7  C   UNL     1      -0.670   9.998  19.659  0.00  0.00    +0.000 A 
ATOM      8  C   UNL     1       0.167   9.344  20.591  0.00  0.00    +0.000 A 
ATOM      9  C   UNL     1       2.687   7.889  18.427  0.00  0.00    +0.000 C 
ATOM     10  O   UNL     1       3.197   7.739  17.338  0.00  0.00    +0.000 OA
ENDROOT
BRANCH   1  15
ATOM     11  C   UNL     1       1.969   3.604  18.609  0.00  0.00    +0.000 A 
ATOM     12  C   UNL     1       1.632   3.132  19.883  0.00  0.00    +0.000 A 
ATOM     13  C   UNL     1       1.184   4.014  20.859  0.00  0.00    +0.000 A 
ATOM     14  C   UNL     1       1.183   5.382  20.605  0.00  0.00    +0.000 A 
ATOM     15  C   UNL     1       1.810   5.861  19.444  0.00  0.00    +0.000 A 
ATOM     16  C   UNL     1       2.018   4.982  18.378  0.00  0.00    +0.000 A 
BRANCH  11  17
ATOM     17  C   UNL     1       2.315   2.632  17.515  0.00  0.00    +0.000 C 
BRANCH  17  18
ATOM     18  C   UNL     1       3.809   2.682  17.178  0.00  0.00    +0.000 C 
BRANCH  18  19
ATOM     19  C   UNL     1       4.284   4.013  16.571  0.00  0.00    +0.000 C 
BRANCH  19  25
ATOM     20  C   UNL     1       5.561   4.997  19.252  0.00  0.00    +0.000 C 
ATOM     21  N   UNL     1       6.253   4.700  18.026  0.00  0.00    +0.000 N 
ATOM     22  C   UNL     1       7.597   4.793  17.831  0.00  0.00    +0.000 A 
ATOM     23  N   UNL     1       7.888   4.456  16.598  0.00  0.00    +0.000 NA
ATOM     24  N   UNL     1       6.708   4.148  15.966  0.00  0.00    +0.000 NA
ATOM     25  C   UNL     1       5.723   4.278  16.833  0.00  0.00    +0.000 A 
ENDBRANCH  19  25
ENDBRANCH  18  19
ENDBRANCH  17  18
ENDBRANCH  11  17
ENDBRANCH   1  15
BRANCH   8  26
ATOM     26  C   UNL     1      -0.311   9.165  22.007  0.00  0.00    +0.000 C 
ATOM     27  F   UNL     1       0.687   9.121  22.931  0.00  0.00    +0.000 F 
ATOM     28  F   UNL     1      -1.129  10.180  22.400  0.00  0.00    +0.000 F 
ATOM     29  F   UNL     1      -1.029   8.020  22.179  0.00  0.00    +0.000 F 
ENDBRANCH   8  26
BRANCH   6  30
ATOM     30  N   UNL     1      -1.283  10.612  17.391  0.00  0.00    +0.000 N 
ATOM     31  H   UNL     1      -1.000  10.541  16.418  0.00  0.00    +0.000 HD
ATOM     32  H   UNL     1      -1.672  11.522  17.611  0.00  0.00    +0.000 HD
ENDBRANCH   6  30
TORSDOF 7
ENDMDL
MODEL 5
REMARK VINA RESULT:      -7.9      1.144      1.610
REMARK  Name = 
REMARK  8 active torsions:
REMARK  status: ('A' for Active; 'I' for Inactive)
REMARK    1  A    between atoms: C_1  and  N_2
REMARK    2  A    between atoms: C_6  and  C_7
REMARK    3  A    between atoms: C_7  and  C_8
REMARK    4  A    between atoms: C_8  and  C_9
REMARK    5  A    between atoms: C_9  and  C_10
REMARK    6  A    between atoms: C_14  and  N_15
REMARK    7  A    between atoms: C_20  and  N_21
REMARK    8  A    between atoms: C_23  and  C_24
REMARK                            x       y       z     vdW  Elec       q    Type
REMARK                         _______ _______ _______ _____ _____    ______ ____
ROOT
ATOM      1  N   UNL     1       6.011   5.247  15.550  0.00  0.00    +0.000 N 
ATOM      2  C   UNL     1       4.841   6.135  15.786  0.00  0.00    +0.000 C 
ATOM      3  C   UNL     1       4.117   5.423  16.889  0.00  0.00    +0.000 A 
ATOM      4  C   UNL     1       4.432   4.067  16.778  0.00  0.00    +0.000 A 
ATOM      5  C   UNL     1       4.100   3.140  17.760  0.00  0.00    +0.000 A 
ATOM      6  C   UNL     1       3.393   3.588  18.875  0.00  0.00    +0.000 A 
ATOM      7  C   UNL     1       3.111   4.965  19.004  0.00  0.00    +0.000 A 
ATOM      8  C   UNL     1       3.448   5.907  18.007  0.00  0.00    +0.000 A 
ATOM      9  C   UNL     1       5.520   3.927  15.786  0.00  0.00    +0.000 C 
ATOM     10  O   UNL     1       6.005   2.870  15.443  0.00  0.00    +0.000 OA
ENDROOT
BRANCH   1  15
ATOM     11  C   UNL     1       7.683   7.584  17.729  0.00  0.00    +0.000 A 
ATOM     12  C   UNL     1       7.740   6.767  18.864  0.00  0.00    +0.000 A 
ATOM     13  C   UNL     1       7.701   5.384  18.732  0.00  0.00    +0.000 A 
ATOM     14  C   UNL     1       7.487   4.816  17.480  0.00  0.00    +0.000 A 
ATOM     15  C   UNL     1       7.125   5.646  16.407  0.00  0.00    +0.000 A 
ATOM     16  C   UNL     1       7.414   7.011  16.482  0.00  0.00    +0.000 A 
BRANCH  11  17
ATOM     17  C   UNL     1       7.868   9.071  17.862  0.00  0.00    +0.000 C 
BRANCH  17  18
ATOM     18  C   UNL     1       8.954   9.407  18.890  0.00  0.00    +0.000 C 
BRANCH  18  19
ATOM     19  C   UNL     1       9.617  10.780  18.695  0.00  0.00    +0.000 C 
BRANCH  19  25
ATOM     20  C   UNL     1      10.907  13.602  19.098  0.00  0.00    +0.000 C 
ATOM     21  N   UNL     1      10.189  12.834  20.081  0.00  0.00    +0.000 N 
ATOM     22  C   UNL     1       9.945  13.217  21.364  0.00  0.00    +0.000 A 
ATOM     23  N   UNL     1       9.274  12.278  21.985  0.00  0.00    +0.000 NA
ATOM     24  N   UNL     1       9.085  11.250  21.094  0.00  0.00    +0.000 NA
ATOM     25  C   UNL     1       9.623  11.593  19.940  0.00  0.00    +0.000 A 
ENDBRANCH  19  25
ENDBRANCH  18  19
ENDBRANCH  17  18
ENDBRANCH  11  17
ENDBRANCH   1  15
BRANCH   8  26
ATOM     26  C   UNL     1       3.173   7.367  18.253  0.00  0.00    +0.000 C 
ATOM     27  F   UNL     1       2.157   7.877  17.506  0.00  0.00    +0.000 F 
ATOM     28  F   UNL     1       2.831   7.608  19.548  0.00  0.00    +0.000 F 
ATOM     29  F   UNL     1       4.255   8.155  18.001  0.00  0.00    +0.000 F 
ENDBRANCH   8  26
BRANCH   6  30
ATOM     30  N   UNL     1       3.231   2.746  19.983  0.00  0.00    +0.000 N 
ATOM     31  H   UNL     1       3.435   1.769  19.794  0.00  0.00    +0.000 HD
ATOM     32  H   UNL     1       2.355   2.865  20.482  0.00  0.00    +0.000 HD
ENDBRANCH   6  30
TORSDOF 7
ENDMDL
MODEL 6
REMARK VINA RESULT:      -7.9      0.935      1.264
REMARK  Name = 
REMARK  8 active torsions:
REMARK  status: ('A' for Active; 'I' for Inactive)
REMARK    1  A    between atoms: C_1  and  N_2
REMARK    2  A    between atoms: C_6  and  C_7
REMARK    3  A    between atoms: C_7  and  C_8
REMARK    4  A    between atoms: C_8  and  C_9
REMARK    5  A    between atoms: C_9  and  C_10
REMARK    6  A    between atoms: C_14  and  N_15
REMARK    7  A    between atoms: C_20  and  N_21
REMARK    8  A    between atoms: C_23  and  C_24
REMARK                            x       y       z     vdW  Elec       q    Type
REMARK                         _______ _______ _______ _____ _____    ______ ____
ROOT
ATOM      1  N   UNL     1       6.012   5.277  15.570  0.00  0.00    +0.000 N 
ATOM      2  C   UNL     1       4.838   6.160  15.804  0.00  0.00    +0.000 C 
ATOM      3  C   UNL     1       4.118   5.447  16.909  0.00  0.00    +0.000 A 
ATOM      4  C   UNL     1       4.439   4.092  16.800  0.00  0.00    +0.000 A 
ATOM      5  C   UNL     1       4.111   3.165  17.782  0.00  0.00    +0.000 A 
ATOM      6  C   UNL     1       3.402   3.612  18.897  0.00  0.00    +0.000 A 
ATOM      7  C   UNL     1       3.115   4.988  19.024  0.00  0.00    +0.000 A 
ATOM      8  C   UNL     1       3.447   5.930  18.025  0.00  0.00    +0.000 A 
ATOM      9  C   UNL     1       5.527   3.955  15.807  0.00  0.00    +0.000 C 
ATOM     10  O   UNL     1       6.016   2.900  15.466  0.00  0.00    +0.000 OA
ENDROOT
BRANCH   1  15
ATOM     11  C   UNL     1       7.694   7.641  17.712  0.00  0.00    +0.000 A 
ATOM     12  C   UNL     1       7.736   6.845  18.863  0.00  0.00    +0.000 A 
ATOM     13  C   UNL     1       7.684   5.461  18.759  0.00  0.00    +0.000 A 
ATOM     14  C   UNL     1       7.472   4.870  17.518  0.00  0.00    +0.000 A 
ATOM     15  C   UNL     1       7.125   5.681  16.426  0.00  0.00    +0.000 A 
ATOM     16  C   UNL     1       7.427   7.045  16.475  0.00  0.00    +0.000 A 
BRANCH  11  17
ATOM     17  C   UNL     1       7.894   9.127  17.817  0.00  0.00    +0.000 C 
BRANCH  17  18
ATOM     18  C   UNL     1       8.909   9.477  18.910  0.00  0.00    +0.000 C 
BRANCH  18  19
ATOM     19  C   UNL     1       9.863  10.629  18.552  0.00  0.00    +0.000 C 
BRANCH  19  25
ATOM     20  C   UNL     1       9.686  12.359  21.152  0.00  0.00    +0.000 C 
ATOM     21  N   UNL     1       9.175  12.703  19.852  0.00  0.00    +0.000 N 
ATOM     22  C   UNL     1       8.526  13.856  19.534  0.00  0.00    +0.000 A 
ATOM     23  N   UNL     1       8.191  13.839  18.267  0.00  0.00    +0.000 NA
ATOM     24  N   UNL     1       8.617  12.642  17.745  0.00  0.00    +0.000 NA
ATOM     25  C   UNL     1       9.226  11.964  18.698  0.00  0.00    +0.000 A 
ENDBRANCH  19  25
ENDBRANCH  18  19
ENDBRANCH  17  18
ENDBRANCH  11  17
ENDBRANCH   1  15
BRANCH   8  26
ATOM     26  C   UNL     1       3.166   7.389  18.270  0.00  0.00    +0.000 C 
ATOM     27  F   UNL     1       2.730   7.669  19.528  0.00  0.00    +0.000 F 
ATOM     28  F   UNL     1       4.275   8.157  18.088  0.00  0.00    +0.000 F 
ATOM     29  F   UNL     1       2.222   7.891  17.427  0.00  0.00    +0.000 F 
ENDBRANCH   8  26
BRANCH   6  30
ATOM     30  N   UNL     1       3.244   2.771  20.007  0.00  0.00    +0.000 N 
ATOM     31  H   UNL     1       3.188   3.262  20.894  0.00  0.00    +0.000 HD
ATOM     32  H   UNL     1       3.890   1.989  20.041  0.00  0.00    +0.000 HD
ENDBRANCH   6  30
TORSDOF 7
ENDMDL
MODEL 7
REMARK VINA RESULT:      -7.9      4.585      7.326
REMARK  Name = 
REMARK  8 active torsions:
REMARK  status: ('A' for Active; 'I' for Inactive)
REMARK    1  A    between atoms: C_1  and  N_2
REMARK    2  A    between atoms: C_6  and  C_7
REMARK    3  A    between atoms: C_7  and  C_8
REMARK    4  A    between atoms: C_8  and  C_9
REMARK    5  A    between atoms: C_9  and  C_10
REMARK    6  A    between atoms: C_14  and  N_15
REMARK    7  A    between atoms: C_20  and  N_21
REMARK    8  A    between atoms: C_23  and  C_24
REMARK                            x       y       z     vdW  Elec       q    Type
REMARK                         _______ _______ _______ _____ _____    ______ ____
ROOT
ATOM      1  N   UNL     1       4.138   4.466  19.193  0.00  0.00    +0.000 N 
ATOM      2  C   UNL     1       5.461   5.136  19.306  0.00  0.00    +0.000 C 
ATOM      3  C   UNL     1       6.018   4.978  17.923  0.00  0.00    +0.000 A 
ATOM      4  C   UNL     1       5.437   3.832  17.376  0.00  0.00    +0.000 A 
ATOM      5  C   UNL     1       5.568   3.495  16.033  0.00  0.00    +0.000 A 
ATOM      6  C   UNL     1       6.343   4.324  15.221  0.00  0.00    +0.000 A 
ATOM      7  C   UNL     1       6.895   5.502  15.767  0.00  0.00    +0.000 A 
ATOM      8  C   UNL     1       6.762   5.844  17.131  0.00  0.00    +0.000 A 
ATOM      9  C   UNL     1       4.350   3.391  18.278  0.00  0.00    +0.000 C 
ATOM     10  O   UNL     1       3.665   2.407  18.098  0.00  0.00    +0.000 OA
ENDROOT
BRANCH   1  15
ATOM     11  C   UNL     1       2.047   7.348  19.768  0.00  0.00    +0.000 A 
ATOM     12  C   UNL     1       2.523   8.132  18.710  0.00  0.00    +0.000 A 
ATOM     13  C   UNL     1       3.103   7.531  17.600  0.00  0.00    +0.000 A 
ATOM     14  C   UNL     1       3.317   6.156  17.593  0.00  0.00    +0.000 A 
ATOM     15  C   UNL     1       3.120   5.429  18.777  0.00  0.00    +0.000 A 
ATOM     16  C   UNL     1       2.314   5.975  19.779  0.00  0.00    +0.000 A 
BRANCH  11  17
ATOM     17  C   UNL     1       1.293   7.990  20.900  0.00  0.00    +0.000 C 
BRANCH  17  18
ATOM     18  C   UNL     1       1.139   9.498  20.682  0.00  0.00    +0.000 C 
BRANCH  18  19
ATOM     19  C   UNL     1      -0.310   9.970  20.475  0.00  0.00    +0.000 C 
BRANCH  19  25
ATOM     20  C   UNL     1      -2.351  12.286  19.968  0.00  0.00    +0.000 C 
ATOM     21  N   UNL     1      -1.610  12.041  21.176  0.00  0.00    +0.000 N 
ATOM     22  C   UNL     1      -1.681  12.782  22.316  0.00  0.00    +0.000 A 
ATOM     23  N   UNL     1      -0.869  12.285  23.217  0.00  0.00    +0.000 NA
ATOM     24  N   UNL     1      -0.241  11.202  22.652  0.00  0.00    +0.000 NA
ATOM     25  C   UNL     1      -0.701  11.044  21.427  0.00  0.00    +0.000 A 
ENDBRANCH  19  25
ENDBRANCH  18  19
ENDBRANCH  17  18
ENDBRANCH  11  17
ENDBRANCH   1  15
BRANCH   8  26
ATOM     26  C   UNL     1       7.324   7.153  17.617  0.00  0.00    +0.000 C 
ATOM     27  F   UNL     1       8.043   7.059  18.769  0.00  0.00    +0.000 F 
ATOM     28  F   UNL     1       8.164   7.716  16.706  0.00  0.00    +0.000 F 
ATOM     29  F   UNL     1       6.357   8.083  17.856  0.00  0.00    +0.000 F 
ENDBRANCH   8  26
BRANCH   6  30
ATOM     30  N   UNL     1       6.323   4.153  13.831  0.00  0.00    +0.000 N 
ATOM     31  H   UNL     1       5.944   3.260  13.528  0.00  0.00    +0.000 HD
ATOM     32  H   UNL     1       7.196   4.376  13.363  0.00  0.00    +0.000 HD
ENDBRANCH   6  30
TORSDOF 7
ENDMDL
MODEL 8
REMARK VINA RESULT:      -7.8      4.137      9.407
REMARK  Name = 
REMARK  8 active torsions:
REMARK  status: ('A' for Active; 'I' for Inactive)
REMARK    1  A    between atoms: C_1  and  N_2
REMARK    2  A    between atoms: C_6  and  C_7
REMARK    3  A    between atoms: C_7  and  C_8
REMARK    4  A    between atoms: C_8  and  C_9
REMARK    5  A    between atoms: C_9  and  C_10
REMARK    6  A    between atoms: C_14  and  N_15
REMARK    7  A    between atoms: C_20  and  N_21
REMARK    8  A    between atoms: C_23  and  C_24
REMARK                            x       y       z     vdW  Elec       q    Type
REMARK                         _______ _______ _______ _____ _____    ______ ____
ROOT
ATOM      1  N   UNL     1      11.542  12.952  19.177  0.00  0.00    +0.000 N 
ATOM      2  C   UNL     1      11.158  12.588  20.567  0.00  0.00    +0.000 C 
ATOM      3  C   UNL     1      10.153  13.648  20.907  0.00  0.00    +0.000 A 
ATOM      4  C   UNL     1      10.463  14.770  20.136  0.00  0.00    +0.000 A 
ATOM      5  C   UNL     1       9.617  15.870  20.043  0.00  0.00    +0.000 A 
ATOM      6  C   UNL     1       8.435  15.854  20.782  0.00  0.00    +0.000 A 
ATOM      7  C   UNL     1       8.105  14.702  21.528  0.00  0.00    +0.000 A 
ATOM      8  C   UNL     1       8.964  13.585  21.624  0.00  0.00    +0.000 A 
ATOM      9  C   UNL     1      11.488  14.378  19.144  0.00  0.00    +0.000 C 
ATOM     10  O   UNL     1      11.988  15.133  18.338  0.00  0.00    +0.000 OA
ENDROOT
BRANCH   1  15
ATOM     11  C   UNL     1       9.049  10.494  18.313  0.00  0.00    +0.000 A 
ATOM     12  C   UNL     1       8.068  11.382  17.854  0.00  0.00    +0.000 A 
ATOM     13  C   UNL     1       8.429  12.639  17.386  0.00  0.00    +0.000 A 
ATOM     14  C   UNL     1       9.751  13.059  17.482  0.00  0.00    +0.000 A 
ATOM     15  C   UNL     1      10.660  12.285  18.221  0.00  0.00    +0.000 A 
ATOM     16  C   UNL     1      10.366  10.940  18.457  0.00  0.00    +0.000 A 
BRANCH  11  17
ATOM     17  C   UNL     1       8.673   9.086  18.684  0.00  0.00    +0.000 C 
BRANCH  17  18
ATOM     18  C   UNL     1       7.865   8.412  17.571  0.00  0.00    +0.000 C 
BRANCH  18  19
ATOM     19  C   UNL     1       7.460   6.958  17.863  0.00  0.00    +0.000 C 
BRANCH  19  25
ATOM     20  C   UNL     1       4.463   6.235  17.336  0.00  0.00    +0.000 C 
ATOM     21  N   UNL     1       5.577   5.976  16.463  0.00  0.00    +0.000 N 
ATOM     22  C   UNL     1       5.509   5.373  15.246  0.00  0.00    +0.000 A 
ATOM     23  N   UNL     1       6.709   5.289  14.726  0.00  0.00    +0.000 NA
ATOM     24  N   UNL     1       7.587   5.840  15.629  0.00  0.00    +0.000 NA
ATOM     25  C   UNL     1       6.902   6.270  16.669  0.00  0.00    +0.000 A 
ENDBRANCH  19  25
ENDBRANCH  18  19
ENDBRANCH  17  18
ENDBRANCH  11  17
ENDBRANCH   1  15
BRANCH   8  26
ATOM     26  C   UNL     1       8.505  12.369  22.384  0.00  0.00    +0.000 C 
ATOM     27  F   UNL     1       9.135  12.187  23.576  0.00  0.00    +0.000 F 
ATOM     28  F   UNL     1       7.177  12.424  22.677  0.00  0.00    +0.000 F 
ATOM     29  F   UNL     1       8.685  11.214  21.686  0.00  0.00    +0.000 F 
ENDBRANCH   8  26
BRANCH   6  30
ATOM     30  N   UNL     1       7.456  16.829  20.552  0.00  0.00    +0.000 N 
ATOM     31  H   UNL     1       7.634  17.713  21.020  0.00  0.00    +0.000 HD
ATOM     32  H   UNL     1       6.501  16.511  20.685  0.00  0.00    +0.000 HD
ENDBRANCH   6  30
TORSDOF 7
ENDMDL
MODEL 9
REMARK VINA RESULT:      -7.8      1.130      1.701
REMARK  Name = 
REMARK  8 active torsions:
REMARK  status: ('A' for Active; 'I' for Inactive)
REMARK    1  A    between atoms: C_1  and  N_2
REMARK    2  A    between atoms: C_6  and  C_7
REMARK    3  A    between atoms: C_7  and  C_8
REMARK    4  A    between atoms: C_8  and  C_9
REMARK    5  A    between atoms: C_9  and  C_10
REMARK    6  A    between atoms: C_14  and  N_15
REMARK    7  A    between atoms: C_20  and  N_21
REMARK    8  A    between atoms: C_23  and  C_24
REMARK                            x       y       z     vdW  Elec       q    Type
REMARK                         _______ _______ _______ _____ _____    ______ ____
ROOT
ATOM      1  N   UNL     1       5.550   5.753  15.733  0.00  0.00    +0.000 N 
ATOM      2  C   UNL     1       4.401   6.154  16.587  0.00  0.00    +0.000 C 
ATOM      3  C   UNL     1       4.048   4.867  17.272  0.00  0.00    +0.000 A 
ATOM      4  C   UNL     1       4.448   3.830  16.426  0.00  0.00    +0.000 A 
ATOM      5  C   UNL     1       4.462   2.500  16.830  0.00  0.00    +0.000 A 
ATOM      6  C   UNL     1       4.020   2.199  18.119  0.00  0.00    +0.000 A 
ATOM      7  C   UNL     1       3.654   3.253  18.984  0.00  0.00    +0.000 A 
ATOM      8  C   UNL     1       3.640   4.604  18.574  0.00  0.00    +0.000 A 
ATOM      9  C   UNL     1       5.259   4.413  15.335  0.00  0.00    +0.000 C 
ATOM     10  O   UNL     1       5.737   3.777  14.420  0.00  0.00    +0.000 OA
ENDROOT
BRANCH   1  15
ATOM     11  C   UNL     1       7.817   7.647  17.801  0.00  0.00    +0.000 A 
ATOM     12  C   UNL     1       7.863   6.759  18.882  0.00  0.00    +0.000 A 
ATOM     13  C   UNL     1       7.581   5.412  18.693  0.00  0.00    +0.000 A 
ATOM     14  C   UNL     1       7.139   4.968  17.451  0.00  0.00    +0.000 A 
ATOM     15  C   UNL     1       6.803   5.912  16.468  0.00  0.00    +0.000 A 
ATOM     16  C   UNL     1       7.320   7.206  16.571  0.00  0.00    +0.000 A 
BRANCH  11  17
ATOM     17  C   UNL     1       8.260   9.073  17.981  0.00  0.00    +0.000 C 
BRANCH  17  18
ATOM     18  C   UNL     1       9.089   9.243  19.257  0.00  0.00    +0.000 C 
BRANCH  18  19
ATOM     19  C   UNL     1       9.269  10.700  19.716  0.00  0.00    +0.000 C 
BRANCH  19  25
ATOM     20  C   UNL     1       8.375  12.811  17.587  0.00  0.00    +0.000 C 
ATOM     21  N   UNL     1       9.724  12.409  17.888  0.00  0.00    +0.000 N 
ATOM     22  C   UNL     1      10.848  12.891  17.293  0.00  0.00    +0.000 A 
ATOM     23  N   UNL     1      11.904  12.303  17.799  0.00  0.00    +0.000 NA
ATOM     24  N   UNL     1      11.462  11.404  18.739  0.00  0.00    +0.000 NA
ATOM     25  C   UNL     1      10.148  11.480  18.805  0.00  0.00    +0.000 A 
ENDBRANCH  19  25
ENDBRANCH  18  19
ENDBRANCH  17  18
ENDBRANCH  11  17
ENDBRANCH   1  15
BRANCH   8  26
ATOM     26  C   UNL     1       3.303   5.673  19.580  0.00  0.00    +0.000 C 
ATOM     27  F   UNL     1       2.299   6.506  19.193  0.00  0.00    +0.000 F 
ATOM     28  F   UNL     1       2.902   5.144  20.768  0.00  0.00    +0.000 F 
ATOM     29  F   UNL     1       4.364   6.476  19.869  0.00  0.00    +0.000 F 
ENDBRANCH   8  26
BRANCH   6  30
ATOM     30  N   UNL     1       4.222   0.916  18.643  0.00  0.00    +0.000 N 
ATOM     31  H   UNL     1       4.508   0.908  19.618  0.00  0.00    +0.000 HD
ATOM     32  H   UNL     1       4.798   0.309  18.070  0.00  0.00    +0.000 HD
ENDBRANCH   6  30
TORSDOF 7
ENDMDL
