MODEL 1
REMARK VINA RESULT:      -9.1      0.000      0.000
REMARK  Name = 
REMARK  6 active torsions:
REMARK  status: ('A' for Active; 'I' for Inactive)
REMARK    1  A    between atoms: C_1  and  N_2
REMARK    2  A    between atoms: C_6  and  C_7
REMARK    3  A    between atoms: C_7  and  C_8
REMARK    4  A    between atoms: C_8  and  C_9
REMARK    5  A    between atoms: C_13  and  N_14
REMARK    6  A    between atoms: C_17  and  C_18
REMARK                            x       y       z     vdW  Elec       q    Type
REMARK                         _______ _______ _______ _____ _____    ______ ____
ROOT
ATOM      1  C   UNL     1       4.521   4.913  17.078  0.00  0.00    +0.000 A 
ATOM      2  C   UNL     1       3.689   3.775  17.005  0.00  0.00    +0.000 A 
ATOM      3  C   UNL     1       2.376   3.785  17.479  0.00  0.00    +0.000 A 
ATOM      4  C   UNL     1       1.863   4.937  18.062  0.00  0.00    +0.000 A 
ATOM      5  C   UNL     1       2.635   6.097  18.118  0.00  0.00    +0.000 A 
ATOM      6  C   UNL     1       3.929   6.089  17.588  0.00  0.00    +0.000 A 
ENDROOT
BRANCH   5   7
ATOM      7  N   UNL     1       2.118   7.246  18.769  0.00  0.00    +0.000 N 
ATOM      8  C   UNL     1       2.249   8.547  18.124  0.00  0.00    +0.000 C 
ATOM      9  C   UNL     1       1.082   9.459  18.513  0.00  0.00    +0.000 C 
ATOM     10  C   UNL     1       0.896   9.464  20.003  0.00  0.00    +0.000 C 
ATOM     11  C   UNL     1       1.293   8.415  20.744  0.00  0.00    +0.000 C 
ATOM     12  C   UNL     1       1.815   7.170  20.128  0.00  0.00    +0.000 C 
ATOM     13  O   UNL     1       1.939   6.183  20.847  0.00  0.00    +0.000 OA
BRANCH  10  14
ATOM     14  C   UNL     1       0.230  10.643  20.623  0.00  0.00    +0.000 C 
ATOM     15  F   UNL     1       1.078  11.685  20.805  0.00  0.00    +0.000 F 
ATOM     16  F   UNL     1      -0.790  11.098  19.855  0.00  0.00    +0.000 F 
ATOM     17  F   UNL     1      -0.292  10.338  21.837  0.00  0.00    +0.000 F 
ENDBRANCH  10  14
ENDBRANCH   5   7
BRANCH   1  18
ATOM     18  C   UNL     1       6.086   4.849  16.695  0.00  0.00    +0.000 C 
ATOM     19  C   UNL     1       6.869   6.192  16.630  0.00  0.00    +0.000 C 
ATOM     20  O   UNL     1       7.806   5.767  17.642  0.00  0.00    +0.000 OA
ATOM     21  C   UNL     1       7.049   4.567  17.887  0.00  0.00    +0.000 C 
BRANCH  18  22
ATOM     22  C   UNL     1       6.351   3.899  15.511  0.00  0.00    +0.000 C 
BRANCH  22  28
ATOM     23  C   UNL     1       5.763   3.320  12.491  0.00  0.00    +0.000 C 
ATOM     24  N   UNL     1       6.701   4.275  13.015  0.00  0.00    +0.000 N 
ATOM     25  C   UNL     1       7.510   5.079  12.270  0.00  0.00    +0.000 A 
ATOM     26  N   UNL     1       8.253   5.809  13.066  0.00  0.00    +0.000 NA
ATOM     27  N   UNL     1       7.937   5.472  14.360  0.00  0.00    +0.000 NA
ATOM     28  C   UNL     1       6.984   4.560  14.331  0.00  0.00    +0.000 A 
ENDBRANCH  22  28
ENDBRANCH  18  22
ENDBRANCH   1  18
TORSDOF 5
ENDMDL
MODEL 2
REMARK VINA RESULT:      -8.8      2.718      4.176
REMARK  Name = 
REMARK  6 active torsions:
REMARK  status: ('A' for Active; 'I' for Inactive)
REMARK    1  A    between atoms: C_1  and  N_2
REMARK    2  A    between atoms: C_6  and  C_7
REMARK    3  A    between atoms: C_7  and  C_8
REMARK    4  A    between atoms: C_8  and  C_9
REMARK    5  A    between atoms: C_13  and  N_14
REMARK    6  A    between atoms: C_17  and  C_18
REMARK                            x       y       z     vdW  Elec       q    Type
REMARK                         _______ _______ _______ _____ _____    ______ ____
ROOT
ATOM      1  C   UNL     1       3.089   5.840  18.619  0.00  0.00    +0.000 A 
ATOM      2  C   UNL     1       3.676   6.460  17.495  0.00  0.00    +0.000 A 
ATOM      3  C   UNL     1       3.475   7.810  17.204  0.00  0.00    +0.000 A 
ATOM      4  C   UNL     1       2.661   8.579  18.026  0.00  0.00    +0.000 A 
ATOM      5  C   UNL     1       2.095   8.019  19.172  0.00  0.00    +0.000 A 
ATOM      6  C   UNL     1       2.349   6.679  19.481  0.00  0.00    +0.000 A 
ENDROOT
BRANCH   5   7
ATOM      7  N   UNL     1       1.218   8.800  19.967  0.00  0.00    +0.000 N 
ATOM      8  C   UNL     1       0.983   8.413  21.353  0.00  0.00    +0.000 C 
ATOM      9  C   UNL     1       0.688   9.645  22.212  0.00  0.00    +0.000 C 
ATOM     10  C   UNL     1      -0.366  10.496  21.563  0.00  0.00    +0.000 C 
ATOM     11  C   UNL     1      -0.546  10.464  20.232  0.00  0.00    +0.000 C 
ATOM     12  C   UNL     1       0.352   9.692  19.337  0.00  0.00    +0.000 C 
ATOM     13  O   UNL     1       0.268   9.893  18.129  0.00  0.00    +0.000 OA
BRANCH  10  14
ATOM     14  C   UNL     1      -1.174  11.396  22.432  0.00  0.00    +0.000 C 
ATOM     15  F   UNL     1      -2.280  11.869  21.807  0.00  0.00    +0.000 F 
ATOM     16  F   UNL     1      -1.600  10.757  23.550  0.00  0.00    +0.000 F 
ATOM     17  F   UNL     1      -0.456  12.472  22.838  0.00  0.00    +0.000 F 
ENDBRANCH  10  14
ENDBRANCH   5   7
BRANCH   1  18
ATOM     18  C   UNL     1       3.174   4.247  18.855  0.00  0.00    +0.000 C 
ATOM     19  C   UNL     1       2.792   3.703  20.262  0.00  0.00    +0.000 C 
ATOM     20  O   UNL     1       1.741   2.873  19.723  0.00  0.00    +0.000 OA
ATOM     21  C   UNL     1       1.916   3.443  18.413  0.00  0.00    +0.000 C 
BRANCH  18  22
ATOM     22  C   UNL     1       4.468   3.647  18.272  0.00  0.00    +0.000 C 
BRANCH  22  28
ATOM     23  C   UNL     1       6.813   4.462  16.364  0.00  0.00    +0.000 C 
ATOM     24  N   UNL     1       6.719   4.733  17.773  0.00  0.00    +0.000 N 
ATOM     25  C   UNL     1       7.658   5.380  18.517  0.00  0.00    +0.000 A 
ATOM     26  N   UNL     1       7.263   5.434  19.767  0.00  0.00    +0.000 NA
ATOM     27  N   UNL     1       6.047   4.801  19.849  0.00  0.00    +0.000 NA
ATOM     28  C   UNL     1       5.707   4.395  18.641  0.00  0.00    +0.000 A 
ENDBRANCH  22  28
ENDBRANCH  18  22
ENDBRANCH   1  18
TORSDOF 5
ENDMDL
MODEL 3
REMARK VINA RESULT:      -8.6      1.197      1.529
REMARK  Name = 
REMARK  6 active torsions:
REMARK  status: ('A' for Active; 'I' for Inactive)
REMARK    1  A    between atoms: C_1  and  N_2
REMARK    2  A    between atoms: C_6  and  C_7
REMARK    3  A    between atoms: C_7  and  C_8
REMARK    4  A    between atoms: C_8  and  C_9
REMARK    5  A    between atoms: C_13  and  N_14
REMARK    6  A    between atoms: C_17  and  C_18
REMARK                            x       y       z     vdW  Elec       q    Type
REMARK                         _______ _______ _______ _____ _____    ______ ____
ROOT
ATOM      1  C   UNL     1       4.925   5.504  17.581  0.00  0.00    +0.000 A 
ATOM      2  C   UNL     1       4.212   4.323  17.281  0.00  0.00    +0.000 A 
ATOM      3  C   UNL     1       2.853   4.186  17.566  0.00  0.00    +0.000 A 
ATOM      4  C   UNL     1       2.168   5.227  18.180  0.00  0.00    +0.000 A 
ATOM      5  C   UNL     1       2.822   6.428  18.456  0.00  0.00    +0.000 A 
ATOM      6  C   UNL     1       4.171   6.572  18.115  0.00  0.00    +0.000 A 
ENDROOT
BRANCH   5   7
ATOM      7  N   UNL     1       2.125   7.458  19.137  0.00  0.00    +0.000 N 
ATOM      8  C   UNL     1       1.454   7.150  20.395  0.00  0.00    +0.000 C 
ATOM      9  C   UNL     1       1.432   8.379  21.307  0.00  0.00    +0.000 C 
ATOM     10  C   UNL     1       0.932   9.579  20.555  0.00  0.00    +0.000 C 
ATOM     11  C   UNL     1       1.064   9.652  19.219  0.00  0.00    +0.000 C 
ATOM     12  C   UNL     1       1.806   8.626  18.446  0.00  0.00    +0.000 C 
ATOM     13  O   UNL     1       2.080   8.877  17.276  0.00  0.00    +0.000 OA
BRANCH  10  14
ATOM     14  C   UNL     1       0.323  10.692  21.335  0.00  0.00    +0.000 C 
ATOM     15  F   UNL     1       1.054  11.833  21.273  0.00  0.00    +0.000 F 
ATOM     16  F   UNL     1      -0.917  10.997  20.880  0.00  0.00    +0.000 F 
ATOM     17  F   UNL     1       0.198  10.371  22.646  0.00  0.00    +0.000 F 
ENDBRANCH  10  14
ENDBRANCH   5   7
BRANCH   1  18
ATOM     18  C   UNL     1       6.526   5.597  17.417  0.00  0.00    +0.000 C 
ATOM     19  C   UNL     1       7.143   6.996  17.124  0.00  0.00    +0.000 C 
ATOM     20  O   UNL     1       7.958   6.954  18.315  0.00  0.00    +0.000 OA
ATOM     21  C   UNL     1       7.323   5.737  18.748  0.00  0.00    +0.000 C 
BRANCH  18  22
ATOM     22  C   UNL     1       7.082   4.461  16.537  0.00  0.00    +0.000 C 
BRANCH  22  28
ATOM     23  C   UNL     1       5.404   3.515  14.068  0.00  0.00    +0.000 C 
ATOM     24  N   UNL     1       6.534   4.404  14.048  0.00  0.00    +0.000 N 
ATOM     25  C   UNL     1       7.075   4.969  12.933  0.00  0.00    +0.000 A 
ATOM     26  N   UNL     1       8.106   5.704  13.274  0.00  0.00    +0.000 NA
ATOM     27  N   UNL     1       8.255   5.613  14.637  0.00  0.00    +0.000 NA
ATOM     28  C   UNL     1       7.292   4.844  15.108  0.00  0.00    +0.000 A 
ENDBRANCH  22  28
ENDBRANCH  18  22
ENDBRANCH   1  18
TORSDOF 5
ENDMDL
MODEL 4
REMARK VINA RESULT:      -8.6      1.744      2.976
REMARK  Name = 
REMARK  6 active torsions:
REMARK  status: ('A' for Active; 'I' for Inactive)
REMARK    1  A    between atoms: C_1  and  N_2
REMARK    2  A    between atoms: C_6  and  C_7
REMARK    3  A    between atoms: C_7  and  C_8
REMARK    4  A    between atoms: C_8  and  C_9
REMARK    5  A    between atoms: C_13  and  N_14
REMARK    6  A    between atoms: C_17  and  C_18
REMARK                            x       y       z     vdW  Elec       q    Type
REMARK                         _______ _______ _______ _____ _____    ______ ____
ROOT
ATOM      1  C   UNL     1       4.286   4.568  16.851  0.00  0.00    +0.000 A 
ATOM      2  C   UNL     1       3.509   3.407  17.050  0.00  0.00    +0.000 A 
ATOM      3  C   UNL     1       2.323   3.426  17.788  0.00  0.00    +0.000 A 
ATOM      4  C   UNL     1       1.891   4.612  18.366  0.00  0.00    +0.000 A 
ATOM      5  C   UNL     1       2.604   5.793  18.160  0.00  0.00    +0.000 A 
ATOM      6  C   UNL     1       3.760   5.770  17.372  0.00  0.00    +0.000 A 
ENDROOT
BRANCH   5   7
ATOM      7  N   UNL     1       2.182   6.982  18.806  0.00  0.00    +0.000 N 
ATOM      8  C   UNL     1       2.412   8.265  18.151  0.00  0.00    +0.000 C 
ATOM      9  C   UNL     1       1.323   9.269  18.539  0.00  0.00    +0.000 C 
ATOM     10  C   UNL     1       1.144   9.296  20.030  0.00  0.00    +0.000 C 
ATOM     11  C   UNL     1       1.461   8.225  20.777  0.00  0.00    +0.000 C 
ATOM     12  C   UNL     1       1.881   6.939  20.166  0.00  0.00    +0.000 C 
ATOM     13  O   UNL     1       1.930   5.950  20.891  0.00  0.00    +0.000 OA
BRANCH  10  14
ATOM     14  C   UNL     1       0.575  10.528  20.646  0.00  0.00    +0.000 C 
ATOM     15  F   UNL     1       0.483  10.441  21.995  0.00  0.00    +0.000 F 
ATOM     16  F   UNL     1       1.338  11.616  20.375  0.00  0.00    +0.000 F 
ATOM     17  F   UNL     1      -0.669  10.788  20.178  0.00  0.00    +0.000 F 
ENDBRANCH  10  14
ENDBRANCH   5   7
BRANCH   1  18
ATOM     18  C   UNL     1       5.739   4.510  16.154  0.00  0.00    +0.000 C 
ATOM     19  C   UNL     1       5.965   3.448  15.039  0.00  0.00    +0.000 C 
ATOM     20  O   UNL     1       6.297   4.456  14.061  0.00  0.00    +0.000 OA
ATOM     21  C   UNL     1       5.951   5.510  14.978  0.00  0.00    +0.000 C 
BRANCH  18  22
ATOM     22  C   UNL     1       6.877   4.599  17.189  0.00  0.00    +0.000 C 
BRANCH  22  28
ATOM     23  C   UNL     1       8.093   5.686  19.862  0.00  0.00    +0.000 C 
ATOM     24  N   UNL     1       7.874   6.433  18.652  0.00  0.00    +0.000 N 
ATOM     25  C   UNL     1       8.146   7.756  18.480  0.00  0.00    +0.000 A 
ATOM     26  N   UNL     1       7.804   8.117  17.266  0.00  0.00    +0.000 NA
ATOM     27  N   UNL     1       7.286   7.014  16.631  0.00  0.00    +0.000 NA
ATOM     28  C   UNL     1       7.347   5.991  17.461  0.00  0.00    +0.000 A 
ENDBRANCH  22  28
ENDBRANCH  18  22
ENDBRANCH   1  18
TORSDOF 5
ENDMDL
MODEL 5
REMARK VINA RESULT:      -8.6      0.946      1.463
REMARK  Name = 
REMARK  6 active torsions:
REMARK  status: ('A' for Active; 'I' for Inactive)
REMARK    1  A    between atoms: C_1  and  N_2
REMARK    2  A    between atoms: C_6  and  C_7
REMARK    3  A    between atoms: C_7  and  C_8
REMARK    4  A    between atoms: C_8  and  C_9
REMARK    5  A    between atoms: C_13  and  N_14
REMARK    6  A    between atoms: C_17  and  C_18
REMARK                            x       y       z     vdW  Elec       q    Type
REMARK                         _______ _______ _______ _____ _____    ______ ____
ROOT
ATOM      1  C   UNL     1       4.583   4.906  17.142  0.00  0.00    +0.000 A 
ATOM      2  C   UNL     1       3.800   3.740  17.001  0.00  0.00    +0.000 A 
ATOM      3  C   UNL     1       2.489   3.666  17.476  0.00  0.00    +0.000 A 
ATOM      4  C   UNL     1       1.929   4.758  18.127  0.00  0.00    +0.000 A 
ATOM      5  C   UNL     1       2.651   5.945  18.251  0.00  0.00    +0.000 A 
ATOM      6  C   UNL     1       3.943   6.023  17.722  0.00  0.00    +0.000 A 
ENDROOT
BRANCH   5   7
ATOM      7  N   UNL     1       2.088   7.030  18.971  0.00  0.00    +0.000 N 
ATOM      8  C   UNL     1       1.364   6.761  20.208  0.00  0.00    +0.000 C 
ATOM      9  C   UNL     1       1.492   7.944  21.172  0.00  0.00    +0.000 C 
ATOM     10  C   UNL     1       1.167   9.230  20.468  0.00  0.00    +0.000 C 
ATOM     11  C   UNL     1       1.327   9.341  19.138  0.00  0.00    +0.000 C 
ATOM     12  C   UNL     1       1.937   8.258  18.328  0.00  0.00    +0.000 C 
ATOM     13  O   UNL     1       2.258   8.518  17.172  0.00  0.00    +0.000 OA
BRANCH  10  14
ATOM     14  C   UNL     1       0.701  10.381  21.290  0.00  0.00    +0.000 C 
ATOM     15  F   UNL     1       0.737  10.121  22.620  0.00  0.00    +0.000 F 
ATOM     16  F   UNL     1       1.467  11.481  21.086  0.00  0.00    +0.000 F 
ATOM     17  F   UNL     1      -0.575  10.724  20.987  0.00  0.00    +0.000 F 
ENDBRANCH  10  14
ENDBRANCH   5   7
BRANCH   1  18
ATOM     18  C   UNL     1       6.148   4.932  16.756  0.00  0.00    +0.000 C 
ATOM     19  C   UNL     1       6.837   6.321  16.622  0.00  0.00    +0.000 C 
ATOM     20  O   UNL     1       7.802   6.010  17.650  0.00  0.00    +0.000 OA
ATOM     21  C   UNL     1       7.130   4.774  17.955  0.00  0.00    +0.000 C 
BRANCH  18  22
ATOM     22  C   UNL     1       6.476   3.947  15.617  0.00  0.00    +0.000 C 
BRANCH  22  28
ATOM     23  C   UNL     1       5.762   3.332  12.631  0.00  0.00    +0.000 C 
ATOM     24  N   UNL     1       6.722   4.293  13.103  0.00  0.00    +0.000 N 
ATOM     25  C   UNL     1       7.500   5.086  12.316  0.00  0.00    +0.000 A 
ATOM     26  N   UNL     1       8.276   5.825  13.071  0.00  0.00    +0.000 NA
ATOM     27  N   UNL     1       8.014   5.504  14.382  0.00  0.00    +0.000 NA
ATOM     28  C   UNL     1       7.060   4.593  14.403  0.00  0.00    +0.000 A 
ENDBRANCH  22  28
ENDBRANCH  18  22
ENDBRANCH   1  18
TORSDOF 5
ENDMDL
MODEL 6
REMARK VINA RESULT:      -8.6      1.514      1.991
REMARK  Name = 
REMARK  6 active torsions:
REMARK  status: ('A' for Active; 'I' for Inactive)
REMARK    1  A    between atoms: C_1  and  N_2
REMARK    2  A    between atoms: C_6  and  C_7
REMARK    3  A    between atoms: C_7  and  C_8
REMARK    4  A    between atoms: C_8  and  C_9
REMARK    5  A    between atoms: C_13  and  N_14
REMARK    6  A    between atoms: C_17  and  C_18
REMARK                            x       y       z     vdW  Elec       q    Type
REMARK                         _______ _______ _______ _____ _____    ______ ____
ROOT
ATOM      1  C   UNL     1       5.370   5.419  18.574  0.00  0.00    +0.000 A 
ATOM      2  C   UNL     1       4.914   4.144  18.970  0.00  0.00    +0.000 A 
ATOM      3  C   UNL     1       3.638   3.945  19.502  0.00  0.00    +0.000 A 
ATOM      4  C   UNL     1       2.785   5.028  19.671  0.00  0.00    +0.000 A 
ATOM      5  C   UNL     1       3.178   6.300  19.254  0.00  0.00    +0.000 A 
ATOM      6  C   UNL     1       4.437   6.475  18.672  0.00  0.00    +0.000 A 
ENDROOT
BRANCH   5   7
ATOM      7  N   UNL     1       2.320   7.404  19.488  0.00  0.00    +0.000 N 
ATOM      8  C   UNL     1       1.456   7.395  20.664  0.00  0.00    +0.000 C 
ATOM      9  C   UNL     1       1.210   8.823  21.160  0.00  0.00    +0.000 C 
ATOM     10  C   UNL     1       0.787   9.706  20.021  0.00  0.00    +0.000 C 
ATOM     11  C   UNL     1       1.146   9.414  18.759  0.00  0.00    +0.000 C 
ATOM     12  C   UNL     1       2.065   8.293  18.444  0.00  0.00    +0.000 C 
ATOM     13  O   UNL     1       2.526   8.231  17.308  0.00  0.00    +0.000 OA
BRANCH  10  14
ATOM     14  C   UNL     1      -0.007  10.926  20.337  0.00  0.00    +0.000 C 
ATOM     15  F   UNL     1       0.702  12.069  20.165  0.00  0.00    +0.000 F 
ATOM     16  F   UNL     1      -1.104  11.024  19.547  0.00  0.00    +0.000 F 
ATOM     17  F   UNL     1      -0.442  10.918  21.621  0.00  0.00    +0.000 F 
ENDBRANCH  10  14
ENDBRANCH   5   7
BRANCH   1  18
ATOM     18  C   UNL     1       6.898   5.677  18.130  0.00  0.00    +0.000 C 
ATOM     19  C   UNL     1       7.274   7.101  17.624  0.00  0.00    +0.000 C 
ATOM     20  O   UNL     1       8.268   7.271  18.656  0.00  0.00    +0.000 OA
ATOM     21  C   UNL     1       7.874   6.040  19.288  0.00  0.00    +0.000 C 
BRANCH  18  22
ATOM     22  C   UNL     1       7.446   4.529  17.261  0.00  0.00    +0.000 C 
BRANCH  22  28
ATOM     23  C   UNL     1       5.111   3.015  15.825  0.00  0.00    +0.000 C 
ATOM     24  N   UNL     1       6.036   3.937  15.222  0.00  0.00    +0.000 N 
ATOM     25  C   UNL     1       6.056   4.289  13.907  0.00  0.00    +0.000 A 
ATOM     26  N   UNL     1       7.040   5.130  13.695  0.00  0.00    +0.000 NA
ATOM     27  N   UNL     1       7.688   5.326  14.891  0.00  0.00    +0.000 NA
ATOM     28  C   UNL     1       7.069   4.622  15.819  0.00  0.00    +0.000 A 
ENDBRANCH  22  28
ENDBRANCH  18  22
ENDBRANCH   1  18
TORSDOF 5
ENDMDL
MODEL 7
REMARK VINA RESULT:      -8.6      1.358      1.857
REMARK  Name = 
REMARK  6 active torsions:
REMARK  status: ('A' for Active; 'I' for Inactive)
REMARK    1  A    between atoms: C_1  and  N_2
REMARK    2  A    between atoms: C_6  and  C_7
REMARK    3  A    between atoms: C_7  and  C_8
REMARK    4  A    between atoms: C_8  and  C_9
REMARK    5  A    between atoms: C_13  and  N_14
REMARK    6  A    between atoms: C_17  and  C_18
REMARK                            x       y       z     vdW  Elec       q    Type
REMARK                         _______ _______ _______ _____ _____    ______ ____
ROOT
ATOM      1  C   UNL     1       5.279   5.534  18.409  0.00  0.00    +0.000 A 
ATOM      2  C   UNL     1       4.733   4.306  18.839  0.00  0.00    +0.000 A 
ATOM      3  C   UNL     1       3.411   4.194  19.272  0.00  0.00    +0.000 A 
ATOM      4  C   UNL     1       2.598   5.320  19.304  0.00  0.00    +0.000 A 
ATOM      5  C   UNL     1       3.083   6.546  18.848  0.00  0.00    +0.000 A 
ATOM      6  C   UNL     1       4.393   6.632  18.365  0.00  0.00    +0.000 A 
ENDROOT
BRANCH   5   7
ATOM      7  N   UNL     1       2.261   7.698  18.943  0.00  0.00    +0.000 N 
ATOM      8  C   UNL     1       2.307   8.692  17.877  0.00  0.00    +0.000 C 
ATOM      9  C   UNL     1       0.951   9.390  17.736  0.00  0.00    +0.000 C 
ATOM     10  C   UNL     1       0.463   9.861  19.076  0.00  0.00    +0.000 C 
ATOM     11  C   UNL     1       0.865   9.251  20.203  0.00  0.00    +0.000 C 
ATOM     12  C   UNL     1       1.700   8.025  20.177  0.00  0.00    +0.000 C 
ATOM     13  O   UNL     1       1.834   7.400  21.225  0.00  0.00    +0.000 OA
BRANCH  10  14
ATOM     14  C   UNL     1      -0.502  10.996  19.111  0.00  0.00    +0.000 C 
ATOM     15  F   UNL     1      -1.646  10.728  18.436  0.00  0.00    +0.000 F 
ATOM     16  F   UNL     1      -0.860  11.304  20.382  0.00  0.00    +0.000 F 
ATOM     17  F   UNL     1       0.029  12.117  18.565  0.00  0.00    +0.000 F 
ENDBRANCH  10  14
ENDBRANCH   5   7
BRANCH   1  18
ATOM     18  C   UNL     1       6.850   5.699  18.080  0.00  0.00    +0.000 C 
ATOM     19  C   UNL     1       7.348   7.100  17.622  0.00  0.00    +0.000 C 
ATOM     20  O   UNL     1       8.273   7.201  18.726  0.00  0.00    +0.000 OA
ATOM     21  C   UNL     1       7.758   5.991  19.312  0.00  0.00    +0.000 C 
BRANCH  18  22
ATOM     22  C   UNL     1       7.388   4.526  17.240  0.00  0.00    +0.000 C 
BRANCH  22  28
ATOM     23  C   UNL     1       5.085   3.041  15.725  0.00  0.00    +0.000 C 
ATOM     24  N   UNL     1       6.044   3.947  15.153  0.00  0.00    +0.000 N 
ATOM     25  C   UNL     1       6.116   4.295  13.838  0.00  0.00    +0.000 A 
ATOM     26  N   UNL     1       7.120   5.120  13.660  0.00  0.00    +0.000 NA
ATOM     27  N   UNL     1       7.727   5.311  14.877  0.00  0.00    +0.000 NA
ATOM     28  C   UNL     1       7.065   4.619  15.785  0.00  0.00    +0.000 A 
ENDBRANCH  22  28
ENDBRANCH  18  22
ENDBRANCH   1  18
TORSDOF 5
ENDMDL
MODEL 8
REMARK VINA RESULT:      -8.3      1.969      3.139
REMARK  Name = 
REMARK  6 active torsions:
REMARK  status: ('A' for Active; 'I' for Inactive)
REMARK    1  A    between atoms: C_1  and  N_2
REMARK    2  A    between atoms: C_6  and  C_7
REMARK    3  A    between atoms: C_7  and  C_8
REMARK    4  A    between atoms: C_8  and  C_9
REMARK    5  A    between atoms: C_13  and  N_14
REMARK    6  A    between atoms: C_17  and  C_18
REMARK                            x       y       z     vdW  Elec       q    Type
REMARK                         _______ _______ _______ _____ _____    ______ ____
ROOT
ATOM      1  C   UNL     1       4.586   4.649  17.465  0.00  0.00    +0.000 A 
ATOM      2  C   UNL     1       4.345   3.652  18.434  0.00  0.00    +0.000 A 
ATOM      3  C   UNL     1       3.461   3.850  19.497  0.00  0.00    +0.000 A 
ATOM      4  C   UNL     1       2.805   5.066  19.630  0.00  0.00    +0.000 A 
ATOM      5  C   UNL     1       2.981   6.065  18.672  0.00  0.00    +0.000 A 
ATOM      6  C   UNL     1       3.826   5.833  17.583  0.00  0.00    +0.000 A 
ENDROOT
BRANCH   5   7
ATOM      7  N   UNL     1       2.351   7.322  18.855  0.00  0.00    +0.000 N 
ATOM      8  C   UNL     1       2.620   8.396  17.905  0.00  0.00    +0.000 C 
ATOM      9  C   UNL     1       1.406   9.320  17.780  0.00  0.00    +0.000 C 
ATOM     10  C   UNL     1       0.919   9.731  19.140  0.00  0.00    +0.000 C 
ATOM     11  C   UNL     1       1.149   8.954  20.212  0.00  0.00    +0.000 C 
ATOM     12  C   UNL     1       1.776   7.614  20.091  0.00  0.00    +0.000 C 
ATOM     13  O   UNL     1       1.743   6.875  21.070  0.00  0.00    +0.000 OA
BRANCH  10  14
ATOM     14  C   UNL     1       0.149  11.001  19.255  0.00  0.00    +0.000 C 
ATOM     15  F   UNL     1      -0.919  11.040  18.422  0.00  0.00    +0.000 F 
ATOM     16  F   UNL     1      -0.328  11.181  20.512  0.00  0.00    +0.000 F 
ATOM     17  F   UNL     1       0.920  12.078  18.965  0.00  0.00    +0.000 F 
ENDBRANCH  10  14
ENDBRANCH   5   7
BRANCH   1  18
ATOM     18  C   UNL     1       5.736   4.488  16.345  0.00  0.00    +0.000 C 
ATOM     19  C   UNL     1       5.572   3.345  15.301  0.00  0.00    +0.000 C 
ATOM     20  O   UNL     1       5.585   4.271  14.194  0.00  0.00    +0.000 OA
ATOM     21  C   UNL     1       5.572   5.397  15.091  0.00  0.00    +0.000 C 
BRANCH  18  22
ATOM     22  C   UNL     1       7.148   4.600  16.950  0.00  0.00    +0.000 C 
BRANCH  22  28
ATOM     23  C   UNL     1       7.919   5.573  19.825  0.00  0.00    +0.000 C 
ATOM     24  N   UNL     1       7.858   6.377  18.634  0.00  0.00    +0.000 N 
ATOM     25  C   UNL     1       8.111   7.714  18.569  0.00  0.00    +0.000 A 
ATOM     26  N   UNL     1       7.941   8.131  17.338  0.00  0.00    +0.000 NA
ATOM     27  N   UNL     1       7.558   7.051  16.579  0.00  0.00    +0.000 NA
ATOM     28  C   UNL     1       7.528   5.987  17.357  0.00  0.00    +0.000 A 
ENDBRANCH  22  28
ENDBRANCH  18  22
ENDBRANCH   1  18
TORSDOF 5
ENDMDL
MODEL 9
REMARK VINA RESULT:      -8.3      2.028      3.184
REMARK  Name = 
REMARK  6 active torsions:
REMARK  status: ('A' for Active; 'I' for Inactive)
REMARK    1  A    between atoms: C_1  and  N_2
REMARK    2  A    between atoms: C_6  and  C_7
REMARK    3  A    between atoms: C_7  and  C_8
REMARK    4  A    between atoms: C_8  and  C_9
REMARK    5  A    between atoms: C_13  and  N_14
REMARK    6  A    between atoms: C_17  and  C_18
REMARK                            x       y       z     vdW  Elec       q    Type
REMARK                         _______ _______ _______ _____ _____    ______ ____
ROOT
ATOM      1  C   UNL     1       4.412   4.772  16.737  0.00  0.00    +0.000 A 
ATOM      2  C   UNL     1       3.918   3.556  17.257  0.00  0.00    +0.000 A 
ATOM      3  C   UNL     1       2.902   3.518  18.214  0.00  0.00    +0.000 A 
ATOM      4  C   UNL     1       2.362   4.704  18.693  0.00  0.00    +0.000 A 
ATOM      5  C   UNL     1       2.790   5.927  18.177  0.00  0.00    +0.000 A 
ATOM      6  C   UNL     1       3.770   5.949  17.179  0.00  0.00    +0.000 A 
ENDROOT
BRANCH   5   7
ATOM      7  N   UNL     1       2.273   7.131  18.720  0.00  0.00    +0.000 N 
ATOM      8  C   UNL     1       2.472   8.380  17.995  0.00  0.00    +0.000 C 
ATOM      9  C   UNL     1       1.313   9.345  18.258  0.00  0.00    +0.000 C 
ATOM     10  C   UNL     1       1.051   9.458  19.733  0.00  0.00    +0.000 C 
ATOM     11  C   UNL     1       1.380   8.454  20.564  0.00  0.00    +0.000 C 
ATOM     12  C   UNL     1       1.898   7.157  20.063  0.00  0.00    +0.000 C 
ATOM     13  O   UNL     1       1.958   6.220  20.853  0.00  0.00    +0.000 OA
BRANCH  10  14
ATOM     14  C   UNL     1       0.386  10.693  20.235  0.00  0.00    +0.000 C 
ATOM     15  F   UNL     1      -0.220  10.508  21.433  0.00  0.00    +0.000 F 
ATOM     16  F   UNL     1       1.274  11.704  20.397  0.00  0.00    +0.000 F 
ATOM     17  F   UNL     1      -0.563  11.132  19.372  0.00  0.00    +0.000 F 
ENDBRANCH  10  14
ENDBRANCH   5   7
BRANCH   1  18
ATOM     18  C   UNL     1       5.702   4.823  15.770  0.00  0.00    +0.000 C 
ATOM     19  C   UNL     1       6.415   3.478  15.445  0.00  0.00    +0.000 C 
ATOM     20  O   UNL     1       6.202   3.637  14.026  0.00  0.00    +0.000 OA
ATOM     21  C   UNL     1       5.388   4.804  14.244  0.00  0.00    +0.000 C 
BRANCH  18  22
ATOM     22  C   UNL     1       6.655   5.974  16.142  0.00  0.00    +0.000 C 
BRANCH  22  28
ATOM     23  C   UNL     1       7.914   8.282  17.843  0.00  0.00    +0.000 C 
ATOM     24  N   UNL     1       7.787   6.903  18.229  0.00  0.00    +0.000 N 
ATOM     25  C   UNL     1       8.217   6.368  19.406  0.00  0.00    +0.000 A 
ATOM     26  N   UNL     1       7.962   5.081  19.419  0.00  0.00    +0.000 NA
ATOM     27  N   UNL     1       7.364   4.760  18.225  0.00  0.00    +0.000 NA
ATOM     28  C   UNL     1       7.238   5.864  17.513  0.00  0.00    +0.000 A 
ENDBRANCH  22  28
ENDBRANCH  18  22
ENDBRANCH   1  18
TORSDOF 5
ENDMDL
