MODEL 1
REMARK VINA RESULT:      -9.0      0.000      0.000
REMARK  Name = 
REMARK  3 active torsions:
REMARK  status: ('A' for Active; 'I' for Inactive)
REMARK    1  A    between atoms: C_2  and  C_16
REMARK    2  A    between atoms: N_3  and  C_4
REMARK    3  A    between atoms: C_4  and  C_5
REMARK                            x       y       z     vdW  Elec       q    Type
REMARK                         _______ _______ _______ _____ _____    ______ ____
ROOT
ATOM      1  O   UNL     1       7.786   4.251  18.101  0.00  0.00    +0.000 OA
ATOM      2  C   UNL     1       6.582   4.330  17.820  0.00  0.00    +0.000 C 
ATOM      3  N   UNL     1       5.678   4.055  18.815  0.00  0.00    +0.000 N 
ATOM      4  H   UNL     1       6.148   3.686  19.634  0.00  0.00    +0.000 HD
ENDROOT
BRANCH   2   5
ATOM      5  C   UNL     1       6.079   4.824  16.465  0.00  0.00    +0.000 C 
ATOM      6  C   UNL     1       7.034   5.742  15.690  0.00  0.00    +0.000 C 
ATOM      7  C   UNL     1       7.017   5.080  14.368  0.00  0.00    +0.000 A 
ATOM      8  C   UNL     1       7.631   5.454  13.188  0.00  0.00    +0.000 A 
ATOM      9  C   UNL     1       7.419   4.662  12.055  0.00  0.00    +0.000 A 
ATOM     10  C   UNL     1       6.598   3.523  12.115  0.00  0.00    +0.000 A 
ATOM     11  C   UNL     1       5.997   3.151  13.314  0.00  0.00    +0.000 A 
ATOM     12  C   UNL     1       6.232   3.944  14.419  0.00  0.00    +0.000 A 
ATOM     13  O   UNL     1       5.724   3.687  15.653  0.00  0.00    +0.000 OA
ENDBRANCH   2   5
BRANCH   3  14
ATOM     14  C   UNL     1       4.217   3.850  18.760  0.00  0.00    +0.000 C 
ATOM     15  C   UNL     1       3.718   2.717  19.693  0.00  0.00    +0.000 C 
ATOM     16  C   UNL     1       2.408   2.218  19.109  0.00  0.00    +0.000 C 
ATOM     17  C   UNL     1       2.515   2.489  17.618  0.00  0.00    +0.000 C 
ATOM     18  C   UNL     1       3.873   3.161  17.409  0.00  0.00    +0.000 C 
BRANCH  14  19
ATOM     19  C   UNL     1       3.492   5.207  18.859  0.00  0.00    +0.000 A 
ATOM     20  C   UNL     1       2.791   5.561  20.032  0.00  0.00    +0.000 A 
ATOM     21  C   UNL     1       2.163   6.806  20.161  0.00  0.00    +0.000 A 
ATOM     22  C   UNL     1       2.224   7.713  19.110  0.00  0.00    +0.000 A 
ATOM     23  F   UNL     1       1.641   8.912  19.235  0.00  0.00    +0.000 F 
ATOM     24  C   UNL     1       2.877   7.387  17.934  0.00  0.00    +0.000 A 
ATOM     25  C   UNL     1       3.498   6.143  17.809  0.00  0.00    +0.000 A 
ENDBRANCH  14  19
ENDBRANCH   3  14
TORSDOF 3
ENDMDL
MODEL 2
REMARK VINA RESULT:      -8.8      1.499      1.910
REMARK  Name = 
REMARK  3 active torsions:
REMARK  status: ('A' for Active; 'I' for Inactive)
REMARK    1  A    between atoms: C_2  and  C_16
REMARK    2  A    between atoms: N_3  and  C_4
REMARK    3  A    between atoms: C_4  and  C_5
REMARK                            x       y       z     vdW  Elec       q    Type
REMARK                         _______ _______ _______ _____ _____    ______ ____
ROOT
ATOM      1  O   UNL     1       6.540   5.139  19.613  0.00  0.00    +0.000 OA
ATOM      2  C   UNL     1       5.404   5.298  19.146  0.00  0.00    +0.000 C 
ATOM      3  N   UNL     1       4.349   5.283  20.024  0.00  0.00    +0.000 N 
ATOM      4  H   UNL     1       4.656   5.004  20.948  0.00  0.00    +0.000 HD
ENDROOT
BRANCH   2   5
ATOM      5  C   UNL     1       5.150   5.618  17.674  0.00  0.00    +0.000 C 
ATOM      6  C   UNL     1       6.270   6.379  16.952  0.00  0.00    +0.000 C 
ATOM      7  C   UNL     1       6.418   5.539  15.743  0.00  0.00    +0.000 A 
ATOM      8  C   UNL     1       7.231   5.719  14.641  0.00  0.00    +0.000 A 
ATOM      9  C   UNL     1       7.149   4.786  13.602  0.00  0.00    +0.000 A 
ATOM     10  C   UNL     1       6.259   3.701  13.677  0.00  0.00    +0.000 A 
ATOM     11  C   UNL     1       5.456   3.526  14.800  0.00  0.00    +0.000 A 
ATOM     12  C   UNL     1       5.565   4.455  15.814  0.00  0.00    +0.000 A 
ATOM     13  O   UNL     1       4.855   4.394  16.972  0.00  0.00    +0.000 OA
ENDBRANCH   2   5
BRANCH   3  14
ATOM     14  C   UNL     1       2.894   5.227  19.781  0.00  0.00    +0.000 C 
ATOM     15  C   UNL     1       2.118   4.430  20.862  0.00  0.00    +0.000 C 
ATOM     16  C   UNL     1       0.839   3.939  20.206  0.00  0.00    +0.000 C 
ATOM     17  C   UNL     1       1.179   3.807  18.731  0.00  0.00    +0.000 C 
ATOM     18  C   UNL     1       2.636   4.256  18.594  0.00  0.00    +0.000 C 
BRANCH  14  19
ATOM     19  C   UNL     1       2.363   6.633  19.436  0.00  0.00    +0.000 A 
ATOM     20  C   UNL     1       1.810   7.456  20.440  0.00  0.00    +0.000 A 
ATOM     21  C   UNL     1       1.364   8.754  20.158  0.00  0.00    +0.000 A 
ATOM     22  C   UNL     1       1.460   9.241  18.860  0.00  0.00    +0.000 A 
ATOM     23  F   UNL     1       1.052  10.487  18.589  0.00  0.00    +0.000 F 
ATOM     24  C   UNL     1       1.970   8.451  17.845  0.00  0.00    +0.000 A 
ATOM     25  C   UNL     1       2.410   7.157  18.131  0.00  0.00    +0.000 A 
ENDBRANCH  14  19
ENDBRANCH   3  14
TORSDOF 3
ENDMDL
MODEL 3
REMARK VINA RESULT:      -8.6      1.090      1.536
REMARK  Name = 
REMARK  3 active torsions:
REMARK  status: ('A' for Active; 'I' for Inactive)
REMARK    1  A    between atoms: C_2  and  C_16
REMARK    2  A    between atoms: N_3  and  C_4
REMARK    3  A    between atoms: C_4  and  C_5
REMARK                            x       y       z     vdW  Elec       q    Type
REMARK                         _______ _______ _______ _____ _____    ______ ____
ROOT
ATOM      1  O   UNL     1       6.824   4.478  18.823  0.00  0.00    +0.000 OA
ATOM      2  C   UNL     1       5.690   4.738  18.398  0.00  0.00    +0.000 C 
ATOM      3  N   UNL     1       4.650   4.691  19.292  0.00  0.00    +0.000 N 
ATOM      4  H   UNL     1       4.957   4.307  20.178  0.00  0.00    +0.000 HD
ENDROOT
BRANCH   2   5
ATOM      5  C   UNL     1       5.430   5.212  16.968  0.00  0.00    +0.000 C 
ATOM      6  C   UNL     1       6.576   5.981  16.299  0.00  0.00    +0.000 C 
ATOM      7  C   UNL     1       6.661   5.256  15.013  0.00  0.00    +0.000 A 
ATOM      8  C   UNL     1       7.464   5.501  13.915  0.00  0.00    +0.000 A 
ATOM      9  C   UNL     1       7.316   4.678  12.794  0.00  0.00    +0.000 A 
ATOM     10  C   UNL     1       6.372   3.638  12.783  0.00  0.00    +0.000 A 
ATOM     11  C   UNL     1       5.579   3.395  13.901  0.00  0.00    +0.000 A 
ATOM     12  C   UNL     1       5.753   4.215  14.997  0.00  0.00    +0.000 A 
ATOM     13  O   UNL     1       5.060   4.078  16.158  0.00  0.00    +0.000 OA
ENDBRANCH   2   5
BRANCH   3  14
ATOM     14  C   UNL     1       3.190   4.732  19.075  0.00  0.00    +0.000 C 
ATOM     15  C   UNL     1       2.411   3.694  19.925  0.00  0.00    +0.000 C 
ATOM     16  C   UNL     1       1.110   3.421  19.192  0.00  0.00    +0.000 C 
ATOM     17  C   UNL     1       1.422   3.676  17.727  0.00  0.00    +0.000 C 
ATOM     18  C   UNL     1       2.888   4.114  17.680  0.00  0.00    +0.000 C 
BRANCH  14  19
ATOM     19  C   UNL     1       2.692   6.190  19.124  0.00  0.00    +0.000 A 
ATOM     20  C   UNL     1       2.862   7.043  18.014  0.00  0.00    +0.000 A 
ATOM     21  C   UNL     1       2.377   8.357  18.020  0.00  0.00    +0.000 A 
ATOM     22  C   UNL     1       1.719   8.836  19.147  0.00  0.00    +0.000 A 
ATOM     23  F   UNL     1       1.237  10.085  19.152  0.00  0.00    +0.000 F 
ATOM     24  C   UNL     1       1.561   8.037  20.265  0.00  0.00    +0.000 A 
ATOM     25  C   UNL     1       2.049   6.729  20.254  0.00  0.00    +0.000 A 
ENDBRANCH  14  19
ENDBRANCH   3  14
TORSDOF 3
ENDMDL
MODEL 4
REMARK VINA RESULT:      -8.5      1.881      3.364
REMARK  Name = 
REMARK  3 active torsions:
REMARK  status: ('A' for Active; 'I' for Inactive)
REMARK    1  A    between atoms: C_2  and  C_16
REMARK    2  A    between atoms: N_3  and  C_4
REMARK    3  A    between atoms: C_4  and  C_5
REMARK                            x       y       z     vdW  Elec       q    Type
REMARK                         _______ _______ _______ _____ _____    ______ ____
ROOT
ATOM      1  O   UNL     1       7.013   4.424  18.247  0.00  0.00    +0.000 OA
ATOM      2  C   UNL     1       5.991   5.006  17.861  0.00  0.00    +0.000 C 
ATOM      3  N   UNL     1       5.057   5.346  18.807  0.00  0.00    +0.000 N 
ATOM      4  H   UNL     1       5.291   4.937  19.704  0.00  0.00    +0.000 HD
ENDROOT
BRANCH   2   5
ATOM      5  C   UNL     1       5.790   5.454  16.414  0.00  0.00    +0.000 C 
ATOM      6  C   UNL     1       7.063   5.842  15.650  0.00  0.00    +0.000 C 
ATOM      7  C   UNL     1       6.876   5.052  14.414  0.00  0.00    +0.000 A 
ATOM      8  C   UNL     1       7.653   5.007  13.272  0.00  0.00    +0.000 A 
ATOM      9  C   UNL     1       7.226   4.196  12.216  0.00  0.00    +0.000 A 
ATOM     10  C   UNL     1       6.037   3.455  12.312  0.00  0.00    +0.000 A 
ATOM     11  C   UNL     1       5.271   3.501  13.473  0.00  0.00    +0.000 A 
ATOM     12  C   UNL     1       5.721   4.301  14.504  0.00  0.00    +0.000 A 
ATOM     13  O   UNL     1       5.082   4.423  15.698  0.00  0.00    +0.000 OA
ENDBRANCH   2   5
BRANCH   3  14
ATOM     14  C   UNL     1       3.672   5.837  18.662  0.00  0.00    +0.000 C 
ATOM     15  C   UNL     1       3.504   6.881  17.527  0.00  0.00    +0.000 C 
ATOM     16  C   UNL     1       2.283   7.713  17.879  0.00  0.00    +0.000 C 
ATOM     17  C   UNL     1       2.201   7.669  19.395  0.00  0.00    +0.000 C 
ATOM     18  C   UNL     1       3.365   6.787  19.854  0.00  0.00    +0.000 C 
BRANCH  14  19
ATOM     19  C   UNL     1       2.689   4.649  18.668  0.00  0.00    +0.000 A 
ATOM     20  C   UNL     1       2.658   3.740  17.590  0.00  0.00    +0.000 A 
ATOM     21  C   UNL     1       1.805   2.629  17.596  0.00  0.00    +0.000 A 
ATOM     22  C   UNL     1       0.965   2.418  18.683  0.00  0.00    +0.000 A 
ATOM     23  F   UNL     1       0.161   1.348  18.702  0.00  0.00    +0.000 F 
ATOM     24  C   UNL     1       0.948   3.307  19.743  0.00  0.00    +0.000 A 
ATOM     25  C   UNL     1       1.798   4.414  19.731  0.00  0.00    +0.000 A 
ENDBRANCH  14  19
ENDBRANCH   3  14
TORSDOF 3
ENDMDL
MODEL 5
REMARK VINA RESULT:      -8.3      3.076      7.178
REMARK  Name = 
REMARK  3 active torsions:
REMARK  status: ('A' for Active; 'I' for Inactive)
REMARK    1  A    between atoms: C_2  and  C_16
REMARK    2  A    between atoms: N_3  and  C_4
REMARK    3  A    between atoms: C_4  and  C_5
REMARK                            x       y       z     vdW  Elec       q    Type
REMARK                         _______ _______ _______ _____ _____    ______ ____
ROOT
ATOM      1  O   UNL     1       2.006   4.622  17.946  0.00  0.00    +0.000 OA
ATOM      2  C   UNL     1       3.052   5.280  17.865  0.00  0.00    +0.000 C 
ATOM      3  N   UNL     1       4.058   4.780  17.077  0.00  0.00    +0.000 N 
ATOM      4  H   UNL     1       3.836   3.841  16.767  0.00  0.00    +0.000 HD
ENDROOT
BRANCH   2   5
ATOM      5  C   UNL     1       3.215   6.657  18.506  0.00  0.00    +0.000 C 
ATOM      6  C   UNL     1       2.614   7.834  17.727  0.00  0.00    +0.000 C 
ATOM      7  C   UNL     1       1.844   8.494  18.804  0.00  0.00    +0.000 A 
ATOM      8  C   UNL     1       1.114   9.666  18.773  0.00  0.00    +0.000 A 
ATOM      9  C   UNL     1       0.506  10.095  19.957  0.00  0.00    +0.000 A 
ATOM     10  C   UNL     1       0.641   9.357  21.145  0.00  0.00    +0.000 A 
ATOM     11  C   UNL     1       1.369   8.171  21.158  0.00  0.00    +0.000 A 
ATOM     12  C   UNL     1       1.950   7.765  19.973  0.00  0.00    +0.000 A 
ATOM     13  O   UNL     1       2.671   6.621  19.840  0.00  0.00    +0.000 OA
ENDBRANCH   2   5
BRANCH   3  14
ATOM     14  C   UNL     1       5.470   5.190  16.940  0.00  0.00    +0.000 C 
ATOM     15  C   UNL     1       6.354   4.771  18.144  0.00  0.00    +0.000 C 
ATOM     16  C   UNL     1       7.528   5.734  18.177  0.00  0.00    +0.000 C 
ATOM     17  C   UNL     1       7.003   7.015  17.553  0.00  0.00    +0.000 C 
ATOM     18  C   UNL     1       5.553   6.728  17.158  0.00  0.00    +0.000 C 
BRANCH  14  19
ATOM     19  C   UNL     1       5.988   4.829  15.534  0.00  0.00    +0.000 A 
ATOM     20  C   UNL     1       5.233   3.994  14.684  0.00  0.00    +0.000 A 
ATOM     21  C   UNL     1       5.663   3.690  13.386  0.00  0.00    +0.000 A 
ATOM     22  C   UNL     1       6.865   4.215  12.925  0.00  0.00    +0.000 A 
ATOM     23  F   UNL     1       7.272   3.942  11.679  0.00  0.00    +0.000 F 
ATOM     24  C   UNL     1       7.646   5.013  13.742  0.00  0.00    +0.000 A 
ATOM     25  C   UNL     1       7.213   5.310  15.036  0.00  0.00    +0.000 A 
ENDBRANCH  14  19
ENDBRANCH   3  14
TORSDOF 3
ENDMDL
MODEL 6
REMARK VINA RESULT:      -8.1      2.629      6.228
REMARK  Name = 
REMARK  3 active torsions:
REMARK  status: ('A' for Active; 'I' for Inactive)
REMARK    1  A    between atoms: C_2  and  C_16
REMARK    2  A    between atoms: N_3  and  C_4
REMARK    3  A    between atoms: C_4  and  C_5
REMARK                            x       y       z     vdW  Elec       q    Type
REMARK                         _______ _______ _______ _____ _____    ______ ____
ROOT
ATOM      1  O   UNL     1       2.963   3.873  19.020  0.00  0.00    +0.000 OA
ATOM      2  C   UNL     1       3.645   4.628  18.314  0.00  0.00    +0.000 C 
ATOM      3  N   UNL     1       4.295   4.077  17.238  0.00  0.00    +0.000 N 
ATOM      4  H   UNL     1       4.223   3.067  17.256  0.00  0.00    +0.000 HD
ENDROOT
BRANCH   2   5
ATOM      5  C   UNL     1       3.693   6.140  18.527  0.00  0.00    +0.000 C 
ATOM      6  C   UNL     1       3.073   6.994  17.413  0.00  0.00    +0.000 C 
ATOM      7  C   UNL     1       2.207   7.882  18.217  0.00  0.00    +0.000 A 
ATOM      8  C   UNL     1       1.415   8.940  17.814  0.00  0.00    +0.000 A 
ATOM      9  C   UNL     1       0.716   9.652  18.794  0.00  0.00    +0.000 A 
ATOM     10  C   UNL     1       0.824   9.304  20.151  0.00  0.00    +0.000 A 
ATOM     11  C   UNL     1       1.615   8.227  20.541  0.00  0.00    +0.000 A 
ATOM     12  C   UNL     1       2.285   7.536  19.552  0.00  0.00    +0.000 A 
ATOM     13  O   UNL     1       3.075   6.456  19.790  0.00  0.00    +0.000 OA
ENDBRANCH   2   5
BRANCH   3  14
ATOM     14  C   UNL     1       5.332   4.637  16.350  0.00  0.00    +0.000 C 
ATOM     15  C   UNL     1       4.762   5.240  15.039  0.00  0.00    +0.000 C 
ATOM     16  C   UNL     1       5.883   5.196  14.016  0.00  0.00    +0.000 C 
ATOM     17  C   UNL     1       6.752   4.023  14.436  0.00  0.00    +0.000 C 
ATOM     18  C   UNL     1       6.109   3.456  15.704  0.00  0.00    +0.000 C 
BRANCH  14  19
ATOM     19  C   UNL     1       6.298   5.523  17.162  0.00  0.00    +0.000 A 
ATOM     20  C   UNL     1       7.029   4.983  18.242  0.00  0.00    +0.000 A 
ATOM     21  C   UNL     1       7.945   5.757  18.964  0.00  0.00    +0.000 A 
ATOM     22  C   UNL     1       8.137   7.089  18.616  0.00  0.00    +0.000 A 
ATOM     23  F   UNL     1       9.026   7.828  19.292  0.00  0.00    +0.000 F 
ATOM     24  C   UNL     1       7.416   7.659  17.582  0.00  0.00    +0.000 A 
ATOM     25  C   UNL     1       6.501   6.884  16.868  0.00  0.00    +0.000 A 
ENDBRANCH  14  19
ENDBRANCH   3  14
TORSDOF 3
ENDMDL
MODEL 7
REMARK VINA RESULT:      -7.8      8.105     11.332
REMARK  Name = 
REMARK  3 active torsions:
REMARK  status: ('A' for Active; 'I' for Inactive)
REMARK    1  A    between atoms: C_2  and  C_16
REMARK    2  A    between atoms: N_3  and  C_4
REMARK    3  A    between atoms: C_4  and  C_5
REMARK                            x       y       z     vdW  Elec       q    Type
REMARK                         _______ _______ _______ _____ _____    ______ ____
ROOT
ATOM      1  O   UNL     1      -2.482   9.295  16.820  0.00  0.00    +0.000 OA
ATOM      2  C   UNL     1      -2.083  10.301  17.422  0.00  0.00    +0.000 C 
ATOM      3  N   UNL     1      -0.768  10.329  17.812  0.00  0.00    +0.000 N 
ATOM      4  H   UNL     1      -0.330   9.428  17.657  0.00  0.00    +0.000 HD
ENDROOT
BRANCH   2   5
ATOM      5  C   UNL     1      -2.957  11.536  17.640  0.00  0.00    +0.000 C 
ATOM      6  C   UNL     1      -4.140  11.697  16.678  0.00  0.00    +0.000 C 
ATOM      7  C   UNL     1      -5.231  11.949  17.645  0.00  0.00    +0.000 A 
ATOM      8  C   UNL     1      -6.561  12.244  17.416  0.00  0.00    +0.000 A 
ATOM      9  C   UNL     1      -7.383  12.480  18.522  0.00  0.00    +0.000 A 
ATOM     10  C   UNL     1      -6.868  12.426  19.827  0.00  0.00    +0.000 A 
ATOM     11  C   UNL     1      -5.529  12.115  20.043  0.00  0.00    +0.000 A 
ATOM     12  C   UNL     1      -4.742  11.876  18.935  0.00  0.00    +0.000 A 
ATOM     13  O   UNL     1      -3.426  11.544  19.003  0.00  0.00    +0.000 OA
ENDBRANCH   2   5
BRANCH   3  14
ATOM     14  C   UNL     1      -0.048  11.253  18.710  0.00  0.00    +0.000 C 
ATOM     15  C   UNL     1      -0.426  12.741  18.496  0.00  0.00    +0.000 C 
ATOM     16  C   UNL     1       0.753  13.564  18.984  0.00  0.00    +0.000 C 
ATOM     17  C   UNL     1       1.964  12.667  18.793  0.00  0.00    +0.000 C 
ATOM     18  C   UNL     1       1.427  11.350  18.228  0.00  0.00    +0.000 C 
BRANCH  14  19
ATOM     19  C   UNL     1      -0.095  10.722  20.157  0.00  0.00    +0.000 A 
ATOM     20  C   UNL     1       0.590   9.541  20.510  0.00  0.00    +0.000 A 
ATOM     21  C   UNL     1       0.599   9.065  21.828  0.00  0.00    +0.000 A 
ATOM     22  C   UNL     1      -0.089   9.768  22.810  0.00  0.00    +0.000 A 
ATOM     23  F   UNL     1      -0.070   9.328  24.075  0.00  0.00    +0.000 F 
ATOM     24  C   UNL     1      -0.797  10.913  22.494  0.00  0.00    +0.000 A 
ATOM     25  C   UNL     1      -0.805  11.381  21.178  0.00  0.00    +0.000 A 
ENDBRANCH  14  19
ENDBRANCH   3  14
TORSDOF 3
ENDMDL
MODEL 8
REMARK VINA RESULT:      -7.7      3.109      6.240
REMARK  Name = 
REMARK  3 active torsions:
REMARK  status: ('A' for Active; 'I' for Inactive)
REMARK    1  A    between atoms: C_2  and  C_16
REMARK    2  A    between atoms: N_3  and  C_4
REMARK    3  A    between atoms: C_4  and  C_5
REMARK                            x       y       z     vdW  Elec       q    Type
REMARK                         _______ _______ _______ _____ _____    ______ ____
ROOT
ATOM      1  O   UNL     1       0.779   4.656  17.216  0.00  0.00    +0.000 OA
ATOM      2  C   UNL     1       1.867   4.622  17.807  0.00  0.00    +0.000 C 
ATOM      3  N   UNL     1       2.565   3.441  17.783  0.00  0.00    +0.000 N 
ATOM      4  H   UNL     1       2.003   2.701  17.379  0.00  0.00    +0.000 HD
ENDROOT
BRANCH   2   5
ATOM      5  C   UNL     1       2.500   5.856  18.448  0.00  0.00    +0.000 C 
ATOM      6  C   UNL     1       2.387   7.159  17.648  0.00  0.00    +0.000 C 
ATOM      7  C   UNL     1       1.879   8.068  18.698  0.00  0.00    +0.000 A 
ATOM      8  C   UNL     1       1.624   9.424  18.642  0.00  0.00    +0.000 A 
ATOM      9  C   UNL     1       1.180  10.061  19.805  0.00  0.00    +0.000 A 
ATOM     10  C   UNL     1       1.007   9.341  20.999  0.00  0.00    +0.000 A 
ATOM     11  C   UNL     1       1.256   7.972  21.038  0.00  0.00    +0.000 A 
ATOM     12  C   UNL     1       1.682   7.367  19.873  0.00  0.00    +0.000 A 
ATOM     13  O   UNL     1       1.943   6.037  19.765  0.00  0.00    +0.000 OA
ENDBRANCH   2   5
BRANCH   3  14
ATOM     14  C   UNL     1       3.753   3.009  18.546  0.00  0.00    +0.000 C 
ATOM     15  C   UNL     1       4.036   1.488  18.437  0.00  0.00    +0.000 C 
ATOM     16  C   UNL     1       4.824   1.103  19.677  0.00  0.00    +0.000 C 
ATOM     17  C   UNL     1       4.396   2.099  20.740  0.00  0.00    +0.000 C 
ATOM     18  C   UNL     1       3.397   3.037  20.059  0.00  0.00    +0.000 C 
BRANCH  14  19
ATOM     19  C   UNL     1       4.933   3.960  18.264  0.00  0.00    +0.000 A 
ATOM     20  C   UNL     1       5.458   4.085  16.960  0.00  0.00    +0.000 A 
ATOM     21  C   UNL     1       6.499   4.976  16.673  0.00  0.00    +0.000 A 
ATOM     22  C   UNL     1       7.035   5.751  17.694  0.00  0.00    +0.000 A 
ATOM     23  F   UNL     1       8.019   6.617  17.422  0.00  0.00    +0.000 F 
ATOM     24  C   UNL     1       6.566   5.632  18.990  0.00  0.00    +0.000 A 
ATOM     25  C   UNL     1       5.530   4.740  19.272  0.00  0.00    +0.000 A 
ENDBRANCH  14  19
ENDBRANCH   3  14
TORSDOF 3
ENDMDL
MODEL 9
REMARK VINA RESULT:      -7.6      2.925      6.433
REMARK  Name = 
REMARK  3 active torsions:
REMARK  status: ('A' for Active; 'I' for Inactive)
REMARK    1  A    between atoms: C_2  and  C_16
REMARK    2  A    between atoms: N_3  and  C_4
REMARK    3  A    between atoms: C_4  and  C_5
REMARK                            x       y       z     vdW  Elec       q    Type
REMARK                         _______ _______ _______ _____ _____    ______ ____
ROOT
ATOM      1  O   UNL     1       2.356   7.631  17.857  0.00  0.00    +0.000 OA
ATOM      2  C   UNL     1       3.359   6.949  18.109  0.00  0.00    +0.000 C 
ATOM      3  N   UNL     1       4.569   7.404  17.649  0.00  0.00    +0.000 N 
ATOM      4  H   UNL     1       4.442   8.200  17.034  0.00  0.00    +0.000 HD
ENDROOT
BRANCH   2   5
ATOM      5  C   UNL     1       3.312   5.704  18.994  0.00  0.00    +0.000 C 
ATOM      6  C   UNL     1       2.098   5.589  19.923  0.00  0.00    +0.000 C 
ATOM      7  C   UNL     1       1.668   4.206  19.621  0.00  0.00    +0.000 A 
ATOM      8  C   UNL     1       0.651   3.457  20.181  0.00  0.00    +0.000 A 
ATOM      9  C   UNL     1       0.478   2.143  19.737  0.00  0.00    +0.000 A 
ATOM     10  C   UNL     1       1.321   1.598  18.753  0.00  0.00    +0.000 A 
ATOM     11  C   UNL     1       2.333   2.369  18.188  0.00  0.00    +0.000 A 
ATOM     12  C   UNL     1       2.474   3.666  18.638  0.00  0.00    +0.000 A 
ATOM     13  O   UNL     1       3.406   4.532  18.160  0.00  0.00    +0.000 OA
ENDBRANCH   2   5
BRANCH   3  14
ATOM     14  C   UNL     1       5.888   6.744  17.589  0.00  0.00    +0.000 C 
ATOM     15  C   UNL     1       6.345   6.153  18.949  0.00  0.00    +0.000 C 
ATOM     16  C   UNL     1       7.861   6.084  18.905  0.00  0.00    +0.000 C 
ATOM     17  C   UNL     1       8.278   7.198  17.960  0.00  0.00    +0.000 C 
ATOM     18  C   UNL     1       6.980   7.845  17.474  0.00  0.00    +0.000 C 
BRANCH  14  19
ATOM     19  C   UNL     1       5.952   5.808  16.366  0.00  0.00    +0.000 A 
ATOM     20  C   UNL     1       6.434   4.489  16.497  0.00  0.00    +0.000 A 
ATOM     21  C   UNL     1       6.459   3.607  15.408  0.00  0.00    +0.000 A 
ATOM     22  C   UNL     1       6.005   4.041  14.169  0.00  0.00    +0.000 A 
ATOM     23  F   UNL     1       6.009   3.198  13.129  0.00  0.00    +0.000 F 
ATOM     24  C   UNL     1       5.553   5.338  13.997  0.00  0.00    +0.000 A 
ATOM     25  C   UNL     1       5.534   6.213  15.085  0.00  0.00    +0.000 A 
ENDBRANCH  14  19
ENDBRANCH   3  14
TORSDOF 3
ENDMDL
