MODEL 1
REMARK VINA RESULT:     -10.0      0.000      0.000
REMARK  Name = 
REMARK  6 active torsions:
REMARK  status: ('A' for Active; 'I' for Inactive)
REMARK    1  A    between atoms: C_1  and  C_2
REMARK    2  A    between atoms: C_8  and  C_10
REMARK    3  A    between atoms: C_10  and  C_11
REMARK    4  A    between atoms: C_11  and  C_12
REMARK    5  A    between atoms: C_14  and  C_15
REMARK    6  A    between atoms: C_21  and  C_22
REMARK                            x       y       z     vdW  Elec       q    Type
REMARK                         _______ _______ _______ _____ _____    ______ ____
ROOT
ATOM      1  C   UNL     1       2.483   8.265  17.836  0.00  0.00    +0.000 A 
ATOM      2  N   UNL     1       3.686   7.925  17.414  0.00  0.00    +0.000 NA
ATOM      3  C   UNL     1       3.771   6.581  17.694  0.00  0.00    +0.000 A 
ATOM      4  C   UNL     1       2.600   6.153  18.301  0.00  0.00    +0.000 A 
ATOM      5  O   UNL     1       1.751   7.233  18.363  0.00  0.00    +0.000 OA
ENDROOT
BRANCH   3   6
ATOM      6  C   UNL     1       4.961   5.778  17.451  0.00  0.00    +0.000 A 
ATOM      7  C   UNL     1       5.192   5.239  16.180  0.00  0.00    +0.000 A 
ATOM      8  C   UNL     1       6.407   4.607  15.890  0.00  0.00    +0.000 A 
ATOM      9  C   UNL     1       7.400   4.514  16.865  0.00  0.00    +0.000 A 
ATOM     10  C   UNL     1       7.161   5.001  18.145  0.00  0.00    +0.000 A 
ATOM     11  C   UNL     1       5.936   5.600  18.444  0.00  0.00    +0.000 A 
ENDBRANCH   3   6
BRANCH   4  12
ATOM     12  C   UNL     1       2.123   4.894  18.864  0.00  0.00    +0.000 A 
ATOM     13  C   UNL     1       1.801   3.817  18.019  0.00  0.00    +0.000 A 
ATOM     14  C   UNL     1       1.136   2.692  18.508  0.00  0.00    +0.000 A 
ATOM     15  C   UNL     1       0.837   2.602  19.862  0.00  0.00    +0.000 A 
ATOM     16  C   UNL     1       1.222   3.625  20.728  0.00  0.00    +0.000 A 
ATOM     17  C   UNL     1       1.861   4.767  20.232  0.00  0.00    +0.000 A 
ENDBRANCH   4  12
BRANCH   1  18
ATOM     18  C   UNL     1       1.918   9.633  17.950  0.00  0.00    +0.000 C 
BRANCH  18  19
ATOM     19  C   UNL     1       1.264   9.955  19.295  0.00  0.00    +0.000 C 
BRANCH  19  27
ATOM     20  C   UNL     1      -4.017  10.150  14.155  0.00  0.00    +0.000 C 
ATOM     21  C   UNL     1      -3.579  10.484  15.550  0.00  0.00    +0.000 A 
ATOM     22  C   UNL     1      -4.456  11.122  16.425  0.00  0.00    +0.000 A 
ATOM     23  C   UNL     1      -4.012  11.406  17.701  0.00  0.00    +0.000 A 
ATOM     24  N   UNL     1      -2.779  11.097  18.146  0.00  0.00    +0.000 NA
ATOM     25  C   UNL     1      -1.926  10.476  17.315  0.00  0.00    +0.000 A 
ATOM     26  N   UNL     1      -0.631  10.141  17.763  0.00  0.00    +0.000 N 
ATOM     27  C   UNL     1      -0.179  10.386  19.049  0.00  0.00    +0.000 C 
ATOM     28  O   UNL     1      -0.829  10.897  19.959  0.00  0.00    +0.000 OA
ATOM     29  C   UNL     1      -2.291  10.158  16.007  0.00  0.00    +0.000 A 
ATOM     30  H   UNL     1      -0.012   9.693  17.103  0.00  0.00    +0.000 HD
ENDBRANCH  19  27
ENDBRANCH  18  19
ENDBRANCH   1  18
TORSDOF 5
ENDMDL
MODEL 2
REMARK VINA RESULT:      -9.7      4.121      8.322
REMARK  Name = 
REMARK  6 active torsions:
REMARK  status: ('A' for Active; 'I' for Inactive)
REMARK    1  A    between atoms: C_1  and  C_2
REMARK    2  A    between atoms: C_8  and  C_10
REMARK    3  A    between atoms: C_10  and  C_11
REMARK    4  A    between atoms: C_11  and  C_12
REMARK    5  A    between atoms: C_14  and  C_15
REMARK    6  A    between atoms: C_21  and  C_22
REMARK                            x       y       z     vdW  Elec       q    Type
REMARK                         _______ _______ _______ _____ _____    ______ ____
ROOT
ATOM      1  C   UNL     1       5.666   5.704  17.725  0.00  0.00    +0.000 A 
ATOM      2  N   UNL     1       5.068   4.591  18.108  0.00  0.00    +0.000 NA
ATOM      3  C   UNL     1       3.813   5.001  18.492  0.00  0.00    +0.000 A 
ATOM      4  C   UNL     1       3.700   6.375  18.340  0.00  0.00    +0.000 A 
ATOM      5  O   UNL     1       4.887   6.828  17.812  0.00  0.00    +0.000 OA
ENDROOT
BRANCH   3   6
ATOM      6  C   UNL     1       2.807   4.107  19.048  0.00  0.00    +0.000 A 
ATOM      7  C   UNL     1       2.754   3.888  20.429  0.00  0.00    +0.000 A 
ATOM      8  C   UNL     1       1.695   3.165  20.990  0.00  0.00    +0.000 A 
ATOM      9  C   UNL     1       0.681   2.660  20.177  0.00  0.00    +0.000 A 
ATOM     10  C   UNL     1       0.750   2.828  18.798  0.00  0.00    +0.000 A 
ATOM     11  C   UNL     1       1.825   3.519  18.236  0.00  0.00    +0.000 A 
ENDBRANCH   3   6
BRANCH   4  12
ATOM     12  C   UNL     1       2.669   7.369  18.621  0.00  0.00    +0.000 A 
ATOM     13  C   UNL     1       2.282   8.288  17.630  0.00  0.00    +0.000 A 
ATOM     14  C   UNL     1       1.472   9.381  17.939  0.00  0.00    +0.000 A 
ATOM     15  C   UNL     1       0.986   9.536  19.232  0.00  0.00    +0.000 A 
ATOM     16  C   UNL     1       1.295   8.588  20.208  0.00  0.00    +0.000 A 
ATOM     17  C   UNL     1       2.133   7.510  19.905  0.00  0.00    +0.000 A 
ENDBRANCH   4  12
BRANCH   1  18
ATOM     18  C   UNL     1       7.098   5.889  17.381  0.00  0.00    +0.000 C 
BRANCH  18  19
ATOM     19  C   UNL     1       7.935   6.601  18.446  0.00  0.00    +0.000 C 
BRANCH  19  27
ATOM     20  C   UNL     1      10.850  13.003  20.651  0.00  0.00    +0.000 C 
ATOM     21  C   UNL     1      10.015  12.255  19.653  0.00  0.00    +0.000 A 
ATOM     22  C   UNL     1       9.460  12.923  18.564  0.00  0.00    +0.000 A 
ATOM     23  C   UNL     1       8.703  12.194  17.669  0.00  0.00    +0.000 A 
ATOM     24  N   UNL     1       8.476  10.872  17.790  0.00  0.00    +0.000 NA
ATOM     25  C   UNL     1       9.010  10.215  18.832  0.00  0.00    +0.000 A 
ATOM     26  N   UNL     1       8.787   8.829  18.975  0.00  0.00    +0.000 N 
ATOM     27  C   UNL     1       8.059   8.074  18.070  0.00  0.00    +0.000 C 
ATOM     28  O   UNL     1       7.540   8.488  17.035  0.00  0.00    +0.000 OA
ATOM     29  C   UNL     1       9.783  10.875  19.787  0.00  0.00    +0.000 A 
ATOM     30  H   UNL     1       9.189   8.374  19.781  0.00  0.00    +0.000 HD
ENDBRANCH  19  27
ENDBRANCH  18  19
ENDBRANCH   1  18
TORSDOF 5
ENDMDL
MODEL 3
REMARK VINA RESULT:      -9.6      0.731      3.669
REMARK  Name = 
REMARK  6 active torsions:
REMARK  status: ('A' for Active; 'I' for Inactive)
REMARK    1  A    between atoms: C_1  and  C_2
REMARK    2  A    between atoms: C_8  and  C_10
REMARK    3  A    between atoms: C_10  and  C_11
REMARK    4  A    between atoms: C_11  and  C_12
REMARK    5  A    between atoms: C_14  and  C_15
REMARK    6  A    between atoms: C_21  and  C_22
REMARK                            x       y       z     vdW  Elec       q    Type
REMARK                         _______ _______ _______ _____ _____    ______ ____
ROOT
ATOM      1  C   UNL     1       2.405   8.270  18.164  0.00  0.00    +0.000 A 
ATOM      2  N   UNL     1       1.780   7.222  18.664  0.00  0.00    +0.000 NA
ATOM      3  C   UNL     1       2.650   6.179  18.447  0.00  0.00    +0.000 A 
ATOM      4  C   UNL     1       3.784   6.641  17.796  0.00  0.00    +0.000 A 
ATOM      5  O   UNL     1       3.643   8.001  17.641  0.00  0.00    +0.000 OA
ENDROOT
BRANCH   3   6
ATOM      6  C   UNL     1       2.353   4.795  18.789  0.00  0.00    +0.000 A 
ATOM      7  C   UNL     1       1.948   4.468  20.089  0.00  0.00    +0.000 A 
ATOM      8  C   UNL     1       1.503   3.175  20.386  0.00  0.00    +0.000 A 
ATOM      9  C   UNL     1       1.457   2.201  19.389  0.00  0.00    +0.000 A 
ATOM     10  C   UNL     1       1.906   2.501  18.107  0.00  0.00    +0.000 A 
ATOM     11  C   UNL     1       2.382   3.782  17.819  0.00  0.00    +0.000 A 
ENDBRANCH   3   6
BRANCH   4  12
ATOM     12  C   UNL     1       4.996   6.028  17.262  0.00  0.00    +0.000 A 
ATOM     13  C   UNL     1       5.135   5.824  15.877  0.00  0.00    +0.000 A 
ATOM     14  C   UNL     1       6.173   5.044  15.366  0.00  0.00    +0.000 A 
ATOM     15  C   UNL     1       7.122   4.508  16.228  0.00  0.00    +0.000 A 
ATOM     16  C   UNL     1       7.044   4.769  17.596  0.00  0.00    +0.000 A 
ATOM     17  C   UNL     1       5.985   5.525  18.112  0.00  0.00    +0.000 A 
ENDBRANCH   4  12
BRANCH   1  18
ATOM     18  C   UNL     1       1.860   9.637  17.961  0.00  0.00    +0.000 C 
BRANCH  18  19
ATOM     19  C   UNL     1       1.303  10.306  19.219  0.00  0.00    +0.000 C 
BRANCH  19  27
ATOM     20  C   UNL     1      -4.044  10.090  14.149  0.00  0.00    +0.000 C 
ATOM     21  C   UNL     1      -3.604  10.493  15.525  0.00  0.00    +0.000 A 
ATOM     22  C   UNL     1      -4.497  11.122  16.390  0.00  0.00    +0.000 A 
ATOM     23  C   UNL     1      -4.050  11.471  17.649  0.00  0.00    +0.000 A 
ATOM     24  N   UNL     1      -2.800  11.231  18.087  0.00  0.00    +0.000 NA
ATOM     25  C   UNL     1      -1.931  10.619  17.267  0.00  0.00    +0.000 A 
ATOM     26  N   UNL     1      -0.616  10.356  17.708  0.00  0.00    +0.000 N 
ATOM     27  C   UNL     1      -0.160  10.666  18.978  0.00  0.00    +0.000 C 
ATOM     28  O   UNL     1      -0.820  11.180  19.879  0.00  0.00    +0.000 OA
ATOM     29  C   UNL     1      -2.297  10.238  15.975  0.00  0.00    +0.000 A 
ATOM     30  H   UNL     1       0.013   9.911  17.055  0.00  0.00    +0.000 HD
ENDBRANCH  19  27
ENDBRANCH  18  19
ENDBRANCH   1  18
TORSDOF 5
ENDMDL
MODEL 4
REMARK VINA RESULT:      -9.4      0.799      3.676
REMARK  Name = 
REMARK  6 active torsions:
REMARK  status: ('A' for Active; 'I' for Inactive)
REMARK    1  A    between atoms: C_1  and  C_2
REMARK    2  A    between atoms: C_8  and  C_10
REMARK    3  A    between atoms: C_10  and  C_11
REMARK    4  A    between atoms: C_11  and  C_12
REMARK    5  A    between atoms: C_14  and  C_15
REMARK    6  A    between atoms: C_21  and  C_22
REMARK                            x       y       z     vdW  Elec       q    Type
REMARK                         _______ _______ _______ _____ _____    ______ ____
ROOT
ATOM      1  C   UNL     1       2.351   8.297  18.328  0.00  0.00    +0.000 A 
ATOM      2  N   UNL     1       1.684   7.400  19.029  0.00  0.00    +0.000 NA
ATOM      3  C   UNL     1       2.461   6.268  18.950  0.00  0.00    +0.000 A 
ATOM      4  C   UNL     1       3.583   6.522  18.175  0.00  0.00    +0.000 A 
ATOM      5  O   UNL     1       3.532   7.844  17.799  0.00  0.00    +0.000 OA
ENDROOT
BRANCH   3   6
ATOM      6  C   UNL     1       2.087   4.989  19.536  0.00  0.00    +0.000 A 
ATOM      7  C   UNL     1       1.649   3.945  18.713  0.00  0.00    +0.000 A 
ATOM      8  C   UNL     1       1.444   2.665  19.242  0.00  0.00    +0.000 A 
ATOM      9  C   UNL     1       1.679   2.420  20.595  0.00  0.00    +0.000 A 
ATOM     10  C   UNL     1       2.066   3.462  21.431  0.00  0.00    +0.000 A 
ATOM     11  C   UNL     1       2.235   4.745  20.910  0.00  0.00    +0.000 A 
ENDBRANCH   3   6
BRANCH   4  12
ATOM     12  C   UNL     1       4.713   5.733  17.695  0.00  0.00    +0.000 A 
ATOM     13  C   UNL     1       5.762   5.394  18.568  0.00  0.00    +0.000 A 
ATOM     14  C   UNL     1       6.949   4.841  18.085  0.00  0.00    +0.000 A 
ATOM     15  C   UNL     1       7.079   4.562  16.730  0.00  0.00    +0.000 A 
ATOM     16  C   UNL     1       6.017   4.818  15.863  0.00  0.00    +0.000 A 
ATOM     17  C   UNL     1       4.838   5.401  16.342  0.00  0.00    +0.000 A 
ENDBRANCH   4  12
BRANCH   1  18
ATOM     18  C   UNL     1       1.894   9.651  17.923  0.00  0.00    +0.000 C 
BRANCH  18  19
ATOM     19  C   UNL     1       1.426  10.547  19.070  0.00  0.00    +0.000 C 
BRANCH  19  27
ATOM     20  C   UNL     1      -4.104  10.063  14.219  0.00  0.00    +0.000 C 
ATOM     21  C   UNL     1      -3.625  10.503  15.571  0.00  0.00    +0.000 A 
ATOM     22  C   UNL     1      -4.505  11.116  16.460  0.00  0.00    +0.000 A 
ATOM     23  C   UNL     1      -4.022  11.500  17.695  0.00  0.00    +0.000 A 
ATOM     24  N   UNL     1      -2.748  11.311  18.087  0.00  0.00    +0.000 NA
ATOM     25  C   UNL     1      -1.890  10.715  17.242  0.00  0.00    +0.000 A 
ATOM     26  N   UNL     1      -0.551  10.505  17.636  0.00  0.00    +0.000 N 
ATOM     27  C   UNL     1      -0.057  10.852  18.882  0.00  0.00    +0.000 C 
ATOM     28  O   UNL     1      -0.700  11.358  19.800  0.00  0.00    +0.000 OA
ATOM     29  C   UNL     1      -2.293  10.301  15.973  0.00  0.00    +0.000 A 
ATOM     30  H   UNL     1       0.067  10.072  16.966  0.00  0.00    +0.000 HD
ENDBRANCH  19  27
ENDBRANCH  18  19
ENDBRANCH   1  18
TORSDOF 5
ENDMDL
MODEL 5
REMARK VINA RESULT:      -9.4      5.594      9.283
REMARK  Name = 
REMARK  6 active torsions:
REMARK  status: ('A' for Active; 'I' for Inactive)
REMARK    1  A    between atoms: C_1  and  C_2
REMARK    2  A    between atoms: C_8  and  C_10
REMARK    3  A    between atoms: C_10  and  C_11
REMARK    4  A    between atoms: C_11  and  C_12
REMARK    5  A    between atoms: C_14  and  C_15
REMARK    6  A    between atoms: C_21  and  C_22
REMARK                            x       y       z     vdW  Elec       q    Type
REMARK                         _______ _______ _______ _____ _____    ______ ____
ROOT
ATOM      1  C   UNL     1       7.317   6.628  17.746  0.00  0.00    +0.000 A 
ATOM      2  N   UNL     1       6.232   6.102  18.283  0.00  0.00    +0.000 NA
ATOM      3  C   UNL     1       5.685   5.354  17.267  0.00  0.00    +0.000 A 
ATOM      4  C   UNL     1       6.465   5.469  16.126  0.00  0.00    +0.000 A 
ATOM      5  O   UNL     1       7.540   6.266  16.443  0.00  0.00    +0.000 OA
ENDROOT
BRANCH   3   6
ATOM      6  C   UNL     1       4.428   4.628  17.385  0.00  0.00    +0.000 A 
ATOM      7  C   UNL     1       4.432   3.230  17.451  0.00  0.00    +0.000 A 
ATOM      8  C   UNL     1       3.250   2.532  17.729  0.00  0.00    +0.000 A 
ATOM      9  C   UNL     1       2.060   3.226  17.946  0.00  0.00    +0.000 A 
ATOM     10  C   UNL     1       2.035   4.612  17.832  0.00  0.00    +0.000 A 
ATOM     11  C   UNL     1       3.206   5.305  17.520  0.00  0.00    +0.000 A 
ENDBRANCH   3   6
BRANCH   4  12
ATOM     12  C   UNL     1       6.378   4.975  14.756  0.00  0.00    +0.000 A 
ATOM     13  C   UNL     1       5.260   4.231  14.340  0.00  0.00    +0.000 A 
ATOM     14  C   UNL     1       5.255   3.561  13.116  0.00  0.00    +0.000 A 
ATOM     15  C   UNL     1       6.346   3.677  12.262  0.00  0.00    +0.000 A 
ATOM     16  C   UNL     1       7.429   4.476  12.625  0.00  0.00    +0.000 A 
ATOM     17  C   UNL     1       7.447   5.123  13.866  0.00  0.00    +0.000 A 
ENDBRANCH   4  12
BRANCH   1  18
ATOM     18  C   UNL     1       8.202   7.667  18.329  0.00  0.00    +0.000 C 
BRANCH  18  19
ATOM     19  C   UNL     1       7.964   9.087  17.811  0.00  0.00    +0.000 C 
BRANCH  19  27
ATOM     20  C   UNL     1      11.536  15.493  17.072  0.00  0.00    +0.000 C 
ATOM     21  C   UNL     1      11.250  14.278  17.904  0.00  0.00    +0.000 A 
ATOM     22  C   UNL     1      11.844  14.132  19.156  0.00  0.00    +0.000 A 
ATOM     23  C   UNL     1      11.548  13.000  19.890  0.00  0.00    +0.000 A 
ATOM     24  N   UNL     1      10.715  12.033  19.462  0.00  0.00    +0.000 NA
ATOM     25  C   UNL     1      10.131  12.164  18.260  0.00  0.00    +0.000 A 
ATOM     26  N   UNL     1       9.252  11.163  17.794  0.00  0.00    +0.000 N 
ATOM     27  C   UNL     1       8.916  10.038  18.529  0.00  0.00    +0.000 C 
ATOM     28  O   UNL     1       9.308   9.772  19.663  0.00  0.00    +0.000 OA
ATOM     29  C   UNL     1      10.379  13.273  17.450  0.00  0.00    +0.000 A 
ATOM     30  H   UNL     1       8.848  11.289  16.878  0.00  0.00    +0.000 HD
ENDBRANCH  19  27
ENDBRANCH  18  19
ENDBRANCH   1  18
TORSDOF 5
ENDMDL
MODEL 6
REMARK VINA RESULT:      -9.2      3.674      8.001
REMARK  Name = 
REMARK  6 active torsions:
REMARK  status: ('A' for Active; 'I' for Inactive)
REMARK    1  A    between atoms: C_1  and  C_2
REMARK    2  A    between atoms: C_8  and  C_10
REMARK    3  A    between atoms: C_10  and  C_11
REMARK    4  A    between atoms: C_11  and  C_12
REMARK    5  A    between atoms: C_14  and  C_15
REMARK    6  A    between atoms: C_21  and  C_22
REMARK                            x       y       z     vdW  Elec       q    Type
REMARK                         _______ _______ _______ _____ _____    ______ ____
ROOT
ATOM      1  C   UNL     1       4.583   6.458  17.159  0.00  0.00    +0.000 A 
ATOM      2  N   UNL     1       4.210   5.292  17.650  0.00  0.00    +0.000 NA
ATOM      3  C   UNL     1       3.184   5.604  18.511  0.00  0.00    +0.000 A 
ATOM      4  C   UNL     1       2.981   6.976  18.523  0.00  0.00    +0.000 A 
ATOM      5  O   UNL     1       3.863   7.528  17.623  0.00  0.00    +0.000 OA
ENDROOT
BRANCH   3   6
ATOM      6  C   UNL     1       2.493   4.621  19.334  0.00  0.00    +0.000 A 
ATOM      7  C   UNL     1       2.882   4.427  20.665  0.00  0.00    +0.000 A 
ATOM      8  C   UNL     1       2.124   3.608  21.510  0.00  0.00    +0.000 A 
ATOM      9  C   UNL     1       0.973   2.982  21.034  0.00  0.00    +0.000 A 
ATOM     10  C   UNL     1       0.607   3.126  19.700  0.00  0.00    +0.000 A 
ATOM     11  C   UNL     1       1.382   3.915  18.849  0.00  0.00    +0.000 A 
ENDBRANCH   3   6
BRANCH   4  12
ATOM     12  C   UNL     1       2.107   7.889  19.251  0.00  0.00    +0.000 A 
ATOM     13  C   UNL     1       1.749   7.616  20.583  0.00  0.00    +0.000 A 
ATOM     14  C   UNL     1       0.745   8.344  21.223  0.00  0.00    +0.000 A 
ATOM     15  C   UNL     1       0.128   9.398  20.559  0.00  0.00    +0.000 A 
ATOM     16  C   UNL     1       0.529   9.734  19.266  0.00  0.00    +0.000 A 
ATOM     17  C   UNL     1       1.513   8.983  18.613  0.00  0.00    +0.000 A 
ENDBRANCH   4  12
BRANCH   1  18
ATOM     18  C   UNL     1       5.769   6.747  16.314  0.00  0.00    +0.000 C 
BRANCH  18  19
ATOM     19  C   UNL     1       7.083   6.141  16.812  0.00  0.00    +0.000 C 
BRANCH  19  27
ATOM     20  C   UNL     1       8.807  13.258  17.664  0.00  0.00    +0.000 C 
ATOM     21  C   UNL     1       8.858  11.858  18.200  0.00  0.00    +0.000 A 
ATOM     22  C   UNL     1       9.470  11.599  19.425  0.00  0.00    +0.000 A 
ATOM     23  C   UNL     1       9.489  10.297  19.882  0.00  0.00    +0.000 A 
ATOM     24  N   UNL     1       8.945   9.264  19.210  0.00  0.00    +0.000 NA
ATOM     25  C   UNL     1       8.346   9.501  18.032  0.00  0.00    +0.000 A 
ATOM     26  N   UNL     1       7.767   8.433  17.313  0.00  0.00    +0.000 N 
ATOM     27  C   UNL     1       7.745   7.126  17.771  0.00  0.00    +0.000 C 
ATOM     28  O   UNL     1       8.195   6.728  18.843  0.00  0.00    +0.000 OA
ATOM     29  C   UNL     1       8.287  10.786  17.493  0.00  0.00    +0.000 A 
ATOM     30  H   UNL     1       7.343   8.648  16.422  0.00  0.00    +0.000 HD
ENDBRANCH  19  27
ENDBRANCH  18  19
ENDBRANCH   1  18
TORSDOF 5
ENDMDL
MODEL 7
REMARK VINA RESULT:      -9.2      4.185      8.246
REMARK  Name = 
REMARK  6 active torsions:
REMARK  status: ('A' for Active; 'I' for Inactive)
REMARK    1  A    between atoms: C_1  and  C_2
REMARK    2  A    between atoms: C_8  and  C_10
REMARK    3  A    between atoms: C_10  and  C_11
REMARK    4  A    between atoms: C_11  and  C_12
REMARK    5  A    between atoms: C_14  and  C_15
REMARK    6  A    between atoms: C_21  and  C_22
REMARK                            x       y       z     vdW  Elec       q    Type
REMARK                         _______ _______ _______ _____ _____    ______ ____
ROOT
ATOM      1  C   UNL     1       5.454   5.895  17.932  0.00  0.00    +0.000 A 
ATOM      2  N   UNL     1       4.814   4.790  18.266  0.00  0.00    +0.000 NA
ATOM      3  C   UNL     1       3.551   5.222  18.596  0.00  0.00    +0.000 A 
ATOM      4  C   UNL     1       3.476   6.601  18.463  0.00  0.00    +0.000 A 
ATOM      5  O   UNL     1       4.696   7.035  18.000  0.00  0.00    +0.000 OA
ENDROOT
BRANCH   3   6
ATOM      6  C   UNL     1       2.500   4.343  19.089  0.00  0.00    +0.000 A 
ATOM      7  C   UNL     1       1.801   3.522  18.196  0.00  0.00    +0.000 A 
ATOM      8  C   UNL     1       0.906   2.558  18.675  0.00  0.00    +0.000 A 
ATOM      9  C   UNL     1       0.707   2.405  20.047  0.00  0.00    +0.000 A 
ATOM     10  C   UNL     1       1.357   3.250  20.940  0.00  0.00    +0.000 A 
ATOM     11  C   UNL     1       2.223   4.234  20.460  0.00  0.00    +0.000 A 
ENDBRANCH   3   6
BRANCH   4  12
ATOM     12  C   UNL     1       2.455   7.613  18.711  0.00  0.00    +0.000 A 
ATOM     13  C   UNL     1       2.069   8.496  17.687  0.00  0.00    +0.000 A 
ATOM     14  C   UNL     1       1.269   9.607  17.958  0.00  0.00    +0.000 A 
ATOM     15  C   UNL     1       0.793   9.816  19.247  0.00  0.00    +0.000 A 
ATOM     16  C   UNL     1       1.100   8.905  20.257  0.00  0.00    +0.000 A 
ATOM     17  C   UNL     1       1.928   7.809  19.992  0.00  0.00    +0.000 A 
ENDBRANCH   4  12
BRANCH   1  18
ATOM     18  C   UNL     1       6.905   6.053  17.659  0.00  0.00    +0.000 C 
BRANCH  18  19
ATOM     19  C   UNL     1       7.295   7.355  16.959  0.00  0.00    +0.000 C 
BRANCH  19  27
ATOM     20  C   UNL     1       9.453  14.287  18.237  0.00  0.00    +0.000 C 
ATOM     21  C   UNL     1       9.470  12.847  18.654  0.00  0.00    +0.000 A 
ATOM     22  C   UNL     1      10.158  12.458  19.801  0.00  0.00    +0.000 A 
ATOM     23  C   UNL     1      10.142  11.122  20.150  0.00  0.00    +0.000 A 
ATOM     24  N   UNL     1       9.495  10.176  19.443  0.00  0.00    +0.000 NA
ATOM     25  C   UNL     1       8.822  10.538  18.338  0.00  0.00    +0.000 A 
ATOM     26  N   UNL     1       8.135   9.562  17.585  0.00  0.00    +0.000 N 
ATOM     27  C   UNL     1       8.079   8.224  17.937  0.00  0.00    +0.000 C 
ATOM     28  O   UNL     1       8.588   7.717  18.935  0.00  0.00    +0.000 OA
ATOM     29  C   UNL     1       8.791  11.866  17.911  0.00  0.00    +0.000 A 
ATOM     30  H   UNL     1       7.657   9.871  16.751  0.00  0.00    +0.000 HD
ENDBRANCH  19  27
ENDBRANCH  18  19
ENDBRANCH   1  18
TORSDOF 5
ENDMDL
MODEL 8
REMARK VINA RESULT:      -9.1      2.177      3.096
REMARK  Name = 
REMARK  6 active torsions:
REMARK  status: ('A' for Active; 'I' for Inactive)
REMARK    1  A    between atoms: C_1  and  C_2
REMARK    2  A    between atoms: C_8  and  C_10
REMARK    3  A    between atoms: C_10  and  C_11
REMARK    4  A    between atoms: C_11  and  C_12
REMARK    5  A    between atoms: C_14  and  C_15
REMARK    6  A    between atoms: C_21  and  C_22
REMARK                            x       y       z     vdW  Elec       q    Type
REMARK                         _______ _______ _______ _____ _____    ______ ____
ROOT
ATOM      1  C   UNL     1       2.576   8.271  17.826  0.00  0.00    +0.000 A 
ATOM      2  N   UNL     1       3.768   7.912  17.390  0.00  0.00    +0.000 NA
ATOM      3  C   UNL     1       3.837   6.568  17.673  0.00  0.00    +0.000 A 
ATOM      4  C   UNL     1       2.667   6.159  18.296  0.00  0.00    +0.000 A 
ATOM      5  O   UNL     1       1.835   7.252  18.366  0.00  0.00    +0.000 OA
ENDROOT
BRANCH   3   6
ATOM      6  C   UNL     1       5.012   5.748  17.417  0.00  0.00    +0.000 A 
ATOM      7  C   UNL     1       5.166   5.115  16.178  0.00  0.00    +0.000 A 
ATOM      8  C   UNL     1       6.363   4.461  15.862  0.00  0.00    +0.000 A 
ATOM      9  C   UNL     1       7.414   4.439  16.778  0.00  0.00    +0.000 A 
ATOM     10  C   UNL     1       7.253   5.020  18.032  0.00  0.00    +0.000 A 
ATOM     11  C   UNL     1       6.047   5.641  18.359  0.00  0.00    +0.000 A 
ENDBRANCH   3   6
BRANCH   4  12
ATOM     12  C   UNL     1       2.179   4.908  18.869  0.00  0.00    +0.000 A 
ATOM     13  C   UNL     1       1.818   3.839  18.030  0.00  0.00    +0.000 A 
ATOM     14  C   UNL     1       1.143   2.726  18.534  0.00  0.00    +0.000 A 
ATOM     15  C   UNL     1       0.873   2.640  19.894  0.00  0.00    +0.000 A 
ATOM     16  C   UNL     1       1.296   3.656  20.752  0.00  0.00    +0.000 A 
ATOM     17  C   UNL     1       1.946   4.786  20.242  0.00  0.00    +0.000 A 
ENDBRANCH   4  12
BRANCH   1  18
ATOM     18  C   UNL     1       2.032   9.648  17.943  0.00  0.00    +0.000 C 
BRANCH  18  19
ATOM     19  C   UNL     1       0.507   9.739  18.016  0.00  0.00    +0.000 C 
BRANCH  19  27
ATOM     20  C   UNL     1      -4.021  14.079  21.889  0.00  0.00    +0.000 C 
ATOM     21  C   UNL     1      -2.921  13.060  21.886  0.00  0.00    +0.000 A 
ATOM     22  C   UNL     1      -2.396  12.594  23.089  0.00  0.00    +0.000 A 
ATOM     23  C   UNL     1      -1.388  11.652  23.039  0.00  0.00    +0.000 A 
ATOM     24  N   UNL     1      -0.888  11.157  21.891  0.00  0.00    +0.000 NA
ATOM     25  C   UNL     1      -1.390  11.593  20.724  0.00  0.00    +0.000 A 
ATOM     26  N   UNL     1      -0.881  11.085  19.509  0.00  0.00    +0.000 N 
ATOM     27  C   UNL     1       0.105  10.116  19.439  0.00  0.00    +0.000 C 
ATOM     28  O   UNL     1       0.646   9.563  20.394  0.00  0.00    +0.000 OA
ATOM     29  C   UNL     1      -2.405  12.549  20.683  0.00  0.00    +0.000 A 
ATOM     30  H   UNL     1      -1.271  11.452  18.653  0.00  0.00    +0.000 HD
ENDBRANCH  19  27
ENDBRANCH  18  19
ENDBRANCH   1  18
TORSDOF 5
ENDMDL
MODEL 9
REMARK VINA RESULT:      -9.0      0.984      3.785
REMARK  Name = 
REMARK  6 active torsions:
REMARK  status: ('A' for Active; 'I' for Inactive)
REMARK    1  A    between atoms: C_1  and  C_2
REMARK    2  A    between atoms: C_8  and  C_10
REMARK    3  A    between atoms: C_10  and  C_11
REMARK    4  A    between atoms: C_11  and  C_12
REMARK    5  A    between atoms: C_14  and  C_15
REMARK    6  A    between atoms: C_21  and  C_22
REMARK                            x       y       z     vdW  Elec       q    Type
REMARK                         _______ _______ _______ _____ _____    ______ ____
ROOT
ATOM      1  C   UNL     1       2.523   7.796  18.056  0.00  0.00    +0.000 A 
ATOM      2  N   UNL     1       1.924   6.727  18.544  0.00  0.00    +0.000 NA
ATOM      3  C   UNL     1       2.774   5.693  18.225  0.00  0.00    +0.000 A 
ATOM      4  C   UNL     1       3.869   6.183  17.529  0.00  0.00    +0.000 A 
ATOM      5  O   UNL     1       3.726   7.549  17.448  0.00  0.00    +0.000 OA
ENDROOT
BRANCH   3   6
ATOM      6  C   UNL     1       2.491   4.295  18.519  0.00  0.00    +0.000 A 
ATOM      7  C   UNL     1       1.175   3.884  18.760  0.00  0.00    +0.000 A 
ATOM      8  C   UNL     1       0.870   2.523  18.881  0.00  0.00    +0.000 A 
ATOM      9  C   UNL     1       1.876   1.565  18.758  0.00  0.00    +0.000 A 
ATOM     10  C   UNL     1       3.195   1.965  18.569  0.00  0.00    +0.000 A 
ATOM     11  C   UNL     1       3.503   3.324  18.484  0.00  0.00    +0.000 A 
ENDBRANCH   3   6
BRANCH   4  12
ATOM     12  C   UNL     1       5.043   5.594  16.894  0.00  0.00    +0.000 A 
ATOM     13  C   UNL     1       6.209   5.356  17.644  0.00  0.00    +0.000 A 
ATOM     14  C   UNL     1       7.407   5.008  17.020  0.00  0.00    +0.000 A 
ATOM     15  C   UNL     1       7.442   4.833  15.641  0.00  0.00    +0.000 A 
ATOM     16  C   UNL     1       6.275   4.986  14.893  0.00  0.00    +0.000 A 
ATOM     17  C   UNL     1       5.080   5.365  15.515  0.00  0.00    +0.000 A 
ENDBRANCH   4  12
BRANCH   1  18
ATOM     18  C   UNL     1       1.973   9.172  17.951  0.00  0.00    +0.000 C 
BRANCH  18  19
ATOM     19  C   UNL     1       1.426   9.753  19.256  0.00  0.00    +0.000 C 
BRANCH  19  27
ATOM     20  C   UNL     1      -3.912  10.047  14.181  0.00  0.00    +0.000 C 
ATOM     21  C   UNL     1      -3.441  10.398  15.561  0.00  0.00    +0.000 A 
ATOM     22  C   UNL     1      -4.276  11.096  16.430  0.00  0.00    +0.000 A 
ATOM     23  C   UNL     1      -3.803  11.393  17.693  0.00  0.00    +0.000 A 
ATOM     24  N   UNL     1      -2.579  11.041  18.130  0.00  0.00    +0.000 NA
ATOM     25  C   UNL     1      -1.765  10.363  17.305  0.00  0.00    +0.000 A 
ATOM     26  N   UNL     1      -0.479   9.982  17.745  0.00  0.00    +0.000 N 
ATOM     27  C   UNL     1       0.001  10.241  19.018  0.00  0.00    +0.000 C 
ATOM     28  O   UNL     1      -0.614  10.802  19.922  0.00  0.00    +0.000 OA
ATOM     29  C   UNL     1      -2.162  10.027  16.010  0.00  0.00    +0.000 A 
ATOM     30  H   UNL     1       0.110   9.490  17.089  0.00  0.00    +0.000 HD
ENDBRANCH  19  27
ENDBRANCH  18  19
ENDBRANCH   1  18
TORSDOF 5
ENDMDL
