MODEL 1
REMARK VINA RESULT:      -9.0      0.000      0.000
REMARK  Name = 
REMARK  3 active torsions:
REMARK  status: ('A' for Active; 'I' for Inactive)
REMARK    1  A    between atoms: C_1  and  C_2
REMARK    2  A    between atoms: C_4  and  C_5
REMARK    3  A    between atoms: C_20  and  C_21
REMARK                            x       y       z     vdW  Elec       q    Type
REMARK                         _______ _______ _______ _____ _____    ______ ____
ROOT
ATOM      1  C   UNL     1       4.383   6.492  17.586  0.00  0.00    +0.000 C 
ATOM      2  O   UNL     1       4.584   7.706  17.484  0.00  0.00    +0.000 OA
ATOM      3  N   UNL     1       3.396   5.951  18.443  0.00  0.00    +0.000 N 
ATOM      4  C   UNL     1       2.479   6.976  18.962  0.00  0.00    +0.000 C 
ATOM      5  C   UNL     1       1.805   6.704  20.287  0.00  0.00    +0.000 C 
ATOM      6  C   UNL     1       1.321   5.286  20.456  0.00  0.00    +0.000 C 
ATOM      7  C   UNL     1       2.116   4.255  19.709  0.00  0.00    +0.000 A 
ATOM      8  C   UNL     1       1.814   2.907  20.012  0.00  0.00    +0.000 A 
ATOM      9  F   UNL     1       0.903   2.632  20.957  0.00  0.00    +0.000 F 
ATOM     10  C   UNL     1       2.420   1.848  19.367  0.00  0.00    +0.000 A 
ATOM     11  C   UNL     1       3.364   2.149  18.414  0.00  0.00    +0.000 A 
ATOM     12  F   UNL     1       3.958   1.161  17.736  0.00  0.00    +0.000 F 
ATOM     13  C   UNL     1       3.717   3.473  18.131  0.00  0.00    +0.000 A 
ATOM     14  C   UNL     1       3.091   4.568  18.742  0.00  0.00    +0.000 A 
ENDROOT
BRANCH   1  18
ATOM     15  C   UNL     1       5.153   4.162  13.269  0.00  0.00    +0.000 C 
ATOM     16  C   UNL     1       5.623   4.572  14.636  0.00  0.00    +0.000 A 
ATOM     17  C   UNL     1       4.834   5.398  15.428  0.00  0.00    +0.000 A 
ATOM     18  C   UNL     1       5.265   5.712  16.727  0.00  0.00    +0.000 A 
ATOM     19  C   UNL     1       6.464   5.149  17.191  0.00  0.00    +0.000 A 
ATOM     20  C   UNL     1       7.284   5.144  18.356  0.00  0.00    +0.000 A 
ATOM     21  C   UNL     1       7.108   5.848  19.647  0.00  0.00    +0.000 C 
ATOM     22  N   UNL     1       8.401   4.432  18.160  0.00  0.00    +0.000 NA
ATOM     23  O   UNL     1       8.322   3.942  16.867  0.00  0.00    +0.000 OA
ATOM     24  C   UNL     1       7.166   4.371  16.284  0.00  0.00    +0.000 A 
ATOM     25  N   UNL     1       6.815   4.066  15.024  0.00  0.00    +0.000 NA
ENDBRANCH   1  18
TORSDOF 1
ENDMDL
MODEL 2
REMARK VINA RESULT:      -8.1      2.271      3.285
REMARK  Name = 
REMARK  3 active torsions:
REMARK  status: ('A' for Active; 'I' for Inactive)
REMARK    1  A    between atoms: C_1  and  C_2
REMARK    2  A    between atoms: C_4  and  C_5
REMARK    3  A    between atoms: C_20  and  C_21
REMARK                            x       y       z     vdW  Elec       q    Type
REMARK                         _______ _______ _______ _____ _____    ______ ____
ROOT
ATOM      1  C   UNL     1       4.520   3.390  17.971  0.00  0.00    +0.000 C 
ATOM      2  O   UNL     1       4.825   2.194  18.001  0.00  0.00    +0.000 OA
ATOM      3  N   UNL     1       3.659   3.981  18.925  0.00  0.00    +0.000 N 
ATOM      4  C   UNL     1       3.410   3.103  20.078  0.00  0.00    +0.000 C 
ATOM      5  C   UNL     1       2.115   3.293  20.834  0.00  0.00    +0.000 C 
ATOM      6  C   UNL     1       1.728   4.735  21.048  0.00  0.00    +0.000 C 
ATOM      7  C   UNL     1       2.209   5.680  19.987  0.00  0.00    +0.000 A 
ATOM      8  C   UNL     1       1.689   6.994  20.053  0.00  0.00    +0.000 A 
ATOM      9  F   UNL     1       0.785   7.299  20.995  0.00  0.00    +0.000 F 
ATOM     10  C   UNL     1       2.079   7.991  19.182  0.00  0.00    +0.000 A 
ATOM     11  C   UNL     1       2.994   7.656  18.212  0.00  0.00    +0.000 A 
ATOM     12  F   UNL     1       3.432   8.592  17.363  0.00  0.00    +0.000 F 
ATOM     13  C   UNL     1       3.486   6.351  18.093  0.00  0.00    +0.000 A 
ATOM     14  C   UNL     1       3.137   5.329  18.987  0.00  0.00    +0.000 A 
ENDROOT
BRANCH   1  18
ATOM     15  C   UNL     1       5.111   3.954  13.073  0.00  0.00    +0.000 C 
ATOM     16  C   UNL     1       5.441   4.350  14.485  0.00  0.00    +0.000 A 
ATOM     17  C   UNL     1       4.777   3.756  15.552  0.00  0.00    +0.000 A 
ATOM     18  C   UNL     1       5.149   4.094  16.862  0.00  0.00    +0.000 A 
ATOM     19  C   UNL     1       6.209   4.996  17.047  0.00  0.00    +0.000 A 
ATOM     20  C   UNL     1       6.934   5.621  18.102  0.00  0.00    +0.000 A 
ATOM     21  C   UNL     1       6.769   5.505  19.568  0.00  0.00    +0.000 C 
ATOM     22  N   UNL     1       7.840   6.484  17.623  0.00  0.00    +0.000 NA
ATOM     23  O   UNL     1       7.735   6.424  16.244  0.00  0.00    +0.000 OA
ATOM     24  C   UNL     1       6.760   5.537  15.896  0.00  0.00    +0.000 A 
ATOM     25  N   UNL     1       6.420   5.273  14.623  0.00  0.00    +0.000 NA
ENDBRANCH   1  18
TORSDOF 1
ENDMDL
MODEL 3
REMARK VINA RESULT:      -7.1      8.819     10.834
REMARK  Name = 
REMARK  3 active torsions:
REMARK  status: ('A' for Active; 'I' for Inactive)
REMARK    1  A    between atoms: C_1  and  C_2
REMARK    2  A    between atoms: C_4  and  C_5
REMARK    3  A    between atoms: C_20  and  C_21
REMARK                            x       y       z     vdW  Elec       q    Type
REMARK                         _______ _______ _______ _____ _____    ______ ____
ROOT
ATOM      1  C   UNL     1      -0.647  10.496  18.544  0.00  0.00    +0.000 C 
ATOM      2  O   UNL     1       0.328   9.943  18.026  0.00  0.00    +0.000 OA
ATOM      3  N   UNL     1      -1.877  10.665  17.864  0.00  0.00    +0.000 N 
ATOM      4  C   UNL     1      -1.947   9.880  16.624  0.00  0.00    +0.000 C 
ATOM      5  C   UNL     1      -2.857  10.385  15.528  0.00  0.00    +0.000 C 
ATOM      6  C   UNL     1      -4.185  10.906  16.017  0.00  0.00    +0.000 C 
ATOM      7  C   UNL     1      -4.166  11.481  17.402  0.00  0.00    +0.000 A 
ATOM      8  C   UNL     1      -5.340  12.159  17.804  0.00  0.00    +0.000 A 
ATOM      9  F   UNL     1      -6.354  12.293  16.935  0.00  0.00    +0.000 F 
ATOM     10  C   UNL     1      -5.494  12.692  19.067  0.00  0.00    +0.000 A 
ATOM     11  C   UNL     1      -4.438  12.562  19.938  0.00  0.00    +0.000 A 
ATOM     12  F   UNL     1      -4.548  13.031  21.186  0.00  0.00    +0.000 F 
ATOM     13  C   UNL     1      -3.246  11.940  19.549  0.00  0.00    +0.000 A 
ATOM     14  C   UNL     1      -3.076  11.356  18.287  0.00  0.00    +0.000 A 
ENDROOT
BRANCH   1  18
ATOM     15  C   UNL     1      -0.394   9.422  23.385  0.00  0.00    +0.000 C 
ATOM     16  C   UNL     1      -0.271  10.406  22.255  0.00  0.00    +0.000 A 
ATOM     17  C   UNL     1      -0.430   9.983  20.940  0.00  0.00    +0.000 A 
ATOM     18  C   UNL     1      -0.377  10.931  19.907  0.00  0.00    +0.000 A 
ATOM     19  C   UNL     1      -0.201  12.283  20.245  0.00  0.00    +0.000 A 
ATOM     20  C   UNL     1      -0.093  13.556  19.616  0.00  0.00    +0.000 A 
ATOM     21  C   UNL     1      -0.130  13.914  18.180  0.00  0.00    +0.000 C 
ATOM     22  N   UNL     1       0.148  14.521  20.512  0.00  0.00    +0.000 NA
ATOM     23  O   UNL     1       0.183  13.897  21.748  0.00  0.00    +0.000 OA
ATOM     24  C   UNL     1      -0.023  12.558  21.592  0.00  0.00    +0.000 A 
ATOM     25  N   UNL     1      -0.033  11.687  22.614  0.00  0.00    +0.000 NA
ENDBRANCH   1  18
TORSDOF 1
ENDMDL
MODEL 4
REMARK VINA RESULT:      -6.9      7.557      9.975
REMARK  Name = 
REMARK  3 active torsions:
REMARK  status: ('A' for Active; 'I' for Inactive)
REMARK    1  A    between atoms: C_1  and  C_2
REMARK    2  A    between atoms: C_4  and  C_5
REMARK    3  A    between atoms: C_20  and  C_21
REMARK                            x       y       z     vdW  Elec       q    Type
REMARK                         _______ _______ _______ _____ _____    ______ ____
ROOT
ATOM      1  C   UNL     1      -1.089  12.165  20.572  0.00  0.00    +0.000 C 
ATOM      2  O   UNL     1      -0.698  12.418  21.715  0.00  0.00    +0.000 OA
ATOM      3  N   UNL     1      -2.453  12.233  20.199  0.00  0.00    +0.000 N 
ATOM      4  C   UNL     1      -3.281  12.895  21.217  0.00  0.00    +0.000 C 
ATOM      5  C   UNL     1      -4.745  12.525  21.275  0.00  0.00    +0.000 C 
ATOM      6  C   UNL     1      -5.402  12.384  19.926  0.00  0.00    +0.000 C 
ATOM      7  C   UNL     1      -4.486  11.950  18.820  0.00  0.00    +0.000 A 
ATOM      8  C   UNL     1      -5.113  11.612  17.598  0.00  0.00    +0.000 A 
ATOM      9  F   UNL     1      -6.451  11.646  17.512  0.00  0.00    +0.000 F 
ATOM     10  C   UNL     1      -4.400  11.249  16.474  0.00  0.00    +0.000 A 
ATOM     11  C   UNL     1      -3.031  11.203  16.585  0.00  0.00    +0.000 A 
ATOM     12  F   UNL     1      -2.290  10.889  15.517  0.00  0.00    +0.000 F 
ATOM     13  C   UNL     1      -2.388  11.482  17.797  0.00  0.00    +0.000 A 
ATOM     14  C   UNL     1      -3.084  11.892  18.943  0.00  0.00    +0.000 A 
ENDROOT
BRANCH   1  18
ATOM     15  C   UNL     1       1.714   8.638  18.483  0.00  0.00    +0.000 C 
ATOM     16  C   UNL     1       1.369  10.087  18.684  0.00  0.00    +0.000 A 
ATOM     17  C   UNL     1       0.267  10.444  19.453  0.00  0.00    +0.000 A 
ATOM     18  C   UNL     1       0.005  11.804  19.680  0.00  0.00    +0.000 A 
ATOM     19  C   UNL     1       0.891  12.756  19.151  0.00  0.00    +0.000 A 
ATOM     20  C   UNL     1       1.068  14.169  19.104  0.00  0.00    +0.000 A 
ATOM     21  C   UNL     1       0.242  15.251  19.683  0.00  0.00    +0.000 C 
ATOM     22  N   UNL     1       2.122  14.500  18.347  0.00  0.00    +0.000 NA
ATOM     23  O   UNL     1       2.664  13.307  17.899  0.00  0.00    +0.000 OA
ATOM     24  C   UNL     1       1.929  12.262  18.377  0.00  0.00    +0.000 A 
ATOM     25  N   UNL     1       2.205  10.976  18.102  0.00  0.00    +0.000 NA
ENDBRANCH   1  18
TORSDOF 1
ENDMDL
MODEL 5
REMARK VINA RESULT:      -6.9     10.088     13.463
REMARK  Name = 
REMARK  3 active torsions:
REMARK  status: ('A' for Active; 'I' for Inactive)
REMARK    1  A    between atoms: C_1  and  C_2
REMARK    2  A    between atoms: C_4  and  C_5
REMARK    3  A    between atoms: C_20  and  C_21
REMARK                            x       y       z     vdW  Elec       q    Type
REMARK                         _______ _______ _______ _____ _____    ______ ____
ROOT
ATOM      1  C   UNL     1      -5.887  12.132  18.144  0.00  0.00    +0.000 C 
ATOM      2  O   UNL     1      -6.780  11.952  17.311  0.00  0.00    +0.000 OA
ATOM      3  N   UNL     1      -4.556  11.697  17.942  0.00  0.00    +0.000 N 
ATOM      4  C   UNL     1      -4.306  11.279  16.556  0.00  0.00    +0.000 C 
ATOM      5  C   UNL     1      -3.208  10.267  16.319  0.00  0.00    +0.000 C 
ATOM      6  C   UNL     1      -1.964  10.499  17.139  0.00  0.00    +0.000 C 
ATOM      7  C   UNL     1      -2.197  11.168  18.461  0.00  0.00    +0.000 A 
ATOM      8  C   UNL     1      -1.084  11.210  19.334  0.00  0.00    +0.000 A 
ATOM      9  F   UNL     1       0.065  10.623  18.965  0.00  0.00    +0.000 F 
ATOM     10  C   UNL     1      -1.126  11.840  20.561  0.00  0.00    +0.000 A 
ATOM     11  C   UNL     1      -2.317  12.420  20.929  0.00  0.00    +0.000 A 
ATOM     12  F   UNL     1      -2.402  13.073  22.093  0.00  0.00    +0.000 F 
ATOM     13  C   UNL     1      -3.447  12.349  20.107  0.00  0.00    +0.000 A 
ATOM     14  C   UNL     1      -3.422  11.750  18.840  0.00  0.00    +0.000 A 
ENDROOT
BRANCH   1  18
ATOM     15  C   UNL     1      -6.202  16.344  20.755  0.00  0.00    +0.000 C 
ATOM     16  C   UNL     1      -6.503  14.880  20.592  0.00  0.00    +0.000 A 
ATOM     17  C   UNL     1      -6.137  14.217  19.427  0.00  0.00    +0.000 A 
ATOM     18  C   UNL     1      -6.368  12.836  19.325  0.00  0.00    +0.000 A 
ATOM     19  C   UNL     1      -6.930  12.167  20.425  0.00  0.00    +0.000 A 
ATOM     20  C   UNL     1      -7.332  10.857  20.811  0.00  0.00    +0.000 A 
ATOM     21  C   UNL     1      -7.286   9.586  20.054  0.00  0.00    +0.000 C 
ATOM     22  N   UNL     1      -7.893  10.860  22.027  0.00  0.00    +0.000 NA
ATOM     23  O   UNL     1      -7.850  12.173  22.466  0.00  0.00    +0.000 OA
ATOM     24  C   UNL     1      -7.276  12.958  21.509  0.00  0.00    +0.000 A 
ATOM     25  N   UNL     1      -7.106  14.283  21.644  0.00  0.00    +0.000 NA
ENDBRANCH   1  18
TORSDOF 1
ENDMDL
MODEL 6
REMARK VINA RESULT:      -6.8      7.931     11.322
REMARK  Name = 
REMARK  3 active torsions:
REMARK  status: ('A' for Active; 'I' for Inactive)
REMARK    1  A    between atoms: C_1  and  C_2
REMARK    2  A    between atoms: C_4  and  C_5
REMARK    3  A    between atoms: C_20  and  C_21
REMARK                            x       y       z     vdW  Elec       q    Type
REMARK                         _______ _______ _______ _____ _____    ______ ____
ROOT
ATOM      1  C   UNL     1      -2.245  12.798  20.671  0.00  0.00    +0.000 C 
ATOM      2  O   UNL     1      -2.918  13.561  19.972  0.00  0.00    +0.000 OA
ATOM      3  N   UNL     1      -1.393  11.811  20.121  0.00  0.00    +0.000 N 
ATOM      4  C   UNL     1      -1.191  11.985  18.676  0.00  0.00    +0.000 C 
ATOM      5  C   UNL     1      -0.851  10.756  17.865  0.00  0.00    +0.000 C 
ATOM      6  C   UNL     1       0.135   9.829  18.529  0.00  0.00    +0.000 C 
ATOM      7  C   UNL     1       0.103   9.844  20.029  0.00  0.00    +0.000 A 
ATOM      8  C   UNL     1       0.866   8.841  20.671  0.00  0.00    +0.000 A 
ATOM      9  F   UNL     1       1.514   7.930  19.930  0.00  0.00    +0.000 F 
ATOM     10  C   UNL     1       0.981   8.760  22.044  0.00  0.00    +0.000 A 
ATOM     11  C   UNL     1       0.296   9.692  22.788  0.00  0.00    +0.000 A 
ATOM     12  F   UNL     1       0.399   9.679  24.121  0.00  0.00    +0.000 F 
ATOM     13  C   UNL     1      -0.507  10.663  22.179  0.00  0.00    +0.000 A 
ATOM     14  C   UNL     1      -0.610  10.793  20.788  0.00  0.00    +0.000 A 
ENDROOT
BRANCH   1  18
ATOM     15  C   UNL     1      -5.033  12.297  24.750  0.00  0.00    +0.000 C 
ATOM     16  C   UNL     1      -3.797  12.810  24.064  0.00  0.00    +0.000 A 
ATOM     17  C   UNL     1      -3.557  12.500  22.731  0.00  0.00    +0.000 A 
ATOM     18  C   UNL     1      -2.431  13.044  22.095  0.00  0.00    +0.000 A 
ATOM     19  C   UNL     1      -1.605  13.916  22.823  0.00  0.00    +0.000 A 
ATOM     20  C   UNL     1      -0.422  14.691  22.651  0.00  0.00    +0.000 A 
ATOM     21  C   UNL     1       0.453  14.841  21.467  0.00  0.00    +0.000 C 
ATOM     22  N   UNL     1      -0.067  15.293  23.794  0.00  0.00    +0.000 NA
ATOM     23  O   UNL     1      -1.023  14.936  24.730  0.00  0.00    +0.000 OA
ATOM     24  C   UNL     1      -1.943  14.111  24.153  0.00  0.00    +0.000 A 
ATOM     25  N   UNL     1      -2.989  13.590  24.817  0.00  0.00    +0.000 NA
ENDBRANCH   1  18
TORSDOF 1
ENDMDL
MODEL 7
REMARK VINA RESULT:      -6.7      8.617     12.180
REMARK  Name = 
REMARK  3 active torsions:
REMARK  status: ('A' for Active; 'I' for Inactive)
REMARK    1  A    between atoms: C_1  and  C_2
REMARK    2  A    between atoms: C_4  and  C_5
REMARK    3  A    between atoms: C_20  and  C_21
REMARK                            x       y       z     vdW  Elec       q    Type
REMARK                         _______ _______ _______ _____ _____    ______ ____
ROOT
ATOM      1  C   UNL     1      -0.909  12.011  21.203  0.00  0.00    +0.000 C 
ATOM      2  O   UNL     1       0.196  11.916  21.745  0.00  0.00    +0.000 OA
ATOM      3  N   UNL     1      -1.221  11.358  19.987  0.00  0.00    +0.000 N 
ATOM      4  C   UNL     1      -0.210  10.360  19.610  0.00  0.00    +0.000 C 
ATOM      5  C   UNL     1      -0.060  10.038  18.141  0.00  0.00    +0.000 C 
ATOM      6  C   UNL     1      -1.366   9.922  17.396  0.00  0.00    +0.000 C 
ATOM      7  C   UNL     1      -2.482  10.759  17.946  0.00  0.00    +0.000 A 
ATOM      8  C   UNL     1      -3.650  10.828  17.150  0.00  0.00    +0.000 A 
ATOM      9  F   UNL     1      -3.675  10.206  15.962  0.00  0.00    +0.000 F 
ATOM     10  C   UNL     1      -4.780  11.511  17.548  0.00  0.00    +0.000 A 
ATOM     11  C   UNL     1      -4.730  12.158  18.760  0.00  0.00    +0.000 A 
ATOM     12  F   UNL     1      -5.810  12.807  19.210  0.00  0.00    +0.000 F 
ATOM     13  C   UNL     1      -3.570  12.148  19.544  0.00  0.00    +0.000 A 
ATOM     14  C   UNL     1      -2.422  11.430  19.183  0.00  0.00    +0.000 A 
ENDROOT
BRANCH   1  18
ATOM     15  C   UNL     1      -4.406  12.427  24.704  0.00  0.00    +0.000 C 
ATOM     16  C   UNL     1      -3.531  13.044  23.649  0.00  0.00    +0.000 A 
ATOM     17  C   UNL     1      -2.583  12.272  22.987  0.00  0.00    +0.000 A 
ATOM     18  C   UNL     1      -1.825  12.854  21.960  0.00  0.00    +0.000 A 
ATOM     19  C   UNL     1      -2.080  14.191  21.613  0.00  0.00    +0.000 A 
ATOM     20  C   UNL     1      -1.624  15.183  20.697  0.00  0.00    +0.000 A 
ATOM     21  C   UNL     1      -0.566  15.110  19.664  0.00  0.00    +0.000 C 
ATOM     22  N   UNL     1      -2.239  16.354  20.905  0.00  0.00    +0.000 NA
ATOM     23  O   UNL     1      -3.123  16.143  21.950  0.00  0.00    +0.000 OA
ATOM     24  C   UNL     1      -3.029  14.851  22.377  0.00  0.00    +0.000 A 
ATOM     25  N   UNL     1      -3.757  14.351  23.389  0.00  0.00    +0.000 NA
ENDBRANCH   1  18
TORSDOF 1
ENDMDL
MODEL 8
REMARK VINA RESULT:      -6.7      7.523     10.139
REMARK  Name = 
REMARK  3 active torsions:
REMARK  status: ('A' for Active; 'I' for Inactive)
REMARK    1  A    between atoms: C_1  and  C_2
REMARK    2  A    between atoms: C_4  and  C_5
REMARK    3  A    between atoms: C_20  and  C_21
REMARK                            x       y       z     vdW  Elec       q    Type
REMARK                         _______ _______ _______ _____ _____    ______ ____
ROOT
ATOM      1  C   UNL     1      -1.678  12.132  21.008  0.00  0.00    +0.000 C 
ATOM      2  O   UNL     1      -1.440  12.512  22.159  0.00  0.00    +0.000 OA
ATOM      3  N   UNL     1      -2.908  12.390  20.358  0.00  0.00    +0.000 N 
ATOM      4  C   UNL     1      -3.728  13.374  21.078  0.00  0.00    +0.000 C 
ATOM      5  C   UNL     1      -5.226  13.309  20.887  0.00  0.00    +0.000 C 
ATOM      6  C   UNL     1      -5.659  13.050  19.466  0.00  0.00    +0.000 C 
ATOM      7  C   UNL     1      -4.688  12.252  18.647  0.00  0.00    +0.000 A 
ATOM      8  C   UNL     1      -5.157  11.820  17.384  0.00  0.00    +0.000 A 
ATOM      9  F   UNL     1      -6.420  12.094  17.022  0.00  0.00    +0.000 F 
ATOM     10  C   UNL     1      -4.363  11.126  16.495  0.00  0.00    +0.000 A 
ATOM     11  C   UNL     1      -3.078  10.840  16.890  0.00  0.00    +0.000 A 
ATOM     12  F   UNL     1      -2.255  10.198  16.053  0.00  0.00    +0.000 F 
ATOM     13  C   UNL     1      -2.605  11.210  18.155  0.00  0.00    +0.000 A 
ATOM     14  C   UNL     1      -3.376  11.949  19.062  0.00  0.00    +0.000 A 
ENDROOT
BRANCH   1  18
ATOM     15  C   UNL     1       1.144   8.049  20.857  0.00  0.00    +0.000 C 
ATOM     16  C   UNL     1       0.816   9.431  20.366  0.00  0.00    +0.000 A 
ATOM     17  C   UNL     1      -0.308  10.094  20.845  0.00  0.00    +0.000 A 
ATOM     18  C   UNL     1      -0.556  11.409  20.422  0.00  0.00    +0.000 A 
ATOM     19  C   UNL     1       0.364  12.021  19.557  0.00  0.00    +0.000 A 
ATOM     20  C   UNL     1       0.566  13.261  18.884  0.00  0.00    +0.000 A 
ATOM     21  C   UNL     1      -0.264  14.486  18.876  0.00  0.00    +0.000 C 
ATOM     22  N   UNL     1       1.653  13.216  18.102  0.00  0.00    +0.000 NA
ATOM     23  O   UNL     1       2.192  11.951  18.265  0.00  0.00    +0.000 OA
ATOM     24  C   UNL     1       1.422  11.233  19.133  0.00  0.00    +0.000 A 
ATOM     25  N   UNL     1       1.688   9.963  19.481  0.00  0.00    +0.000 NA
ENDBRANCH   1  18
TORSDOF 1
ENDMDL
MODEL 9
REMARK VINA RESULT:      -6.6     11.293     14.502
REMARK  Name = 
REMARK  3 active torsions:
REMARK  status: ('A' for Active; 'I' for Inactive)
REMARK    1  A    between atoms: C_1  and  C_2
REMARK    2  A    between atoms: C_4  and  C_5
REMARK    3  A    between atoms: C_20  and  C_21
REMARK                            x       y       z     vdW  Elec       q    Type
REMARK                         _______ _______ _______ _____ _____    ______ ____
ROOT
ATOM      1  C   UNL     1      -6.840  13.195  19.645  0.00  0.00    +0.000 C 
ATOM      2  O   UNL     1      -7.913  13.200  19.034  0.00  0.00    +0.000 OA
ATOM      3  N   UNL     1      -5.644  12.690  19.082  0.00  0.00    +0.000 N 
ATOM      4  C   UNL     1      -5.761  12.447  17.638  0.00  0.00    +0.000 C 
ATOM      5  C   UNL     1      -4.860  11.396  17.031  0.00  0.00    +0.000 C 
ATOM      6  C   UNL     1      -3.445  11.416  17.552  0.00  0.00    +0.000 C 
ATOM      7  C   UNL     1      -3.299  11.914  18.959  0.00  0.00    +0.000 A 
ATOM      8  C   UNL     1      -2.019  11.750  19.540  0.00  0.00    +0.000 A 
ATOM      9  F   UNL     1      -1.054  11.132  18.843  0.00  0.00    +0.000 F 
ATOM     10  C   UNL     1      -1.714  12.208  20.805  0.00  0.00    +0.000 A 
ATOM     11  C   UNL     1      -2.721  12.823  21.511  0.00  0.00    +0.000 A 
ATOM     12  F   UNL     1      -2.470  13.315  22.729  0.00  0.00    +0.000 F 
ATOM     13  C   UNL     1      -4.009  12.953  20.980  0.00  0.00    +0.000 A 
ATOM     14  C   UNL     1      -4.337  12.533  19.683  0.00  0.00    +0.000 A 
ENDROOT
BRANCH   1  18
ATOM     15  C   UNL     1      -6.191  17.057  22.698  0.00  0.00    +0.000 C 
ATOM     16  C   UNL     1      -6.629  15.640  22.456  0.00  0.00    +0.000 A 
ATOM     17  C   UNL     1      -6.611  15.112  21.170  0.00  0.00    +0.000 A 
ATOM     18  C   UNL     1      -6.962  13.767  20.979  0.00  0.00    +0.000 A 
ATOM     19  C   UNL     1      -7.283  12.991  22.105  0.00  0.00    +0.000 A 
ATOM     20  C   UNL     1      -7.674  11.661  22.433  0.00  0.00    +0.000 A 
ATOM     21  C   UNL     1      -7.909  10.494  21.554  0.00  0.00    +0.000 C 
ATOM     22  N   UNL     1      -7.917  11.537  23.744  0.00  0.00    +0.000 NA
ATOM     23  O   UNL     1      -7.670  12.781  24.300  0.00  0.00    +0.000 OA
ATOM     24  C   UNL     1      -7.293  13.654  23.322  0.00  0.00    +0.000 A 
ATOM     25  N   UNL     1      -6.998  14.943  23.554  0.00  0.00    +0.000 NA
ENDBRANCH   1  18
TORSDOF 1
ENDMDL
