MODEL 1
REMARK VINA RESULT:     -10.3      0.000      0.000
REMARK  Name = 
REMARK  2 active torsions:
REMARK  status: ('A' for Active; 'I' for Inactive)
REMARK    1  A    between atoms: C_8  and  C_9
REMARK    2  A    between atoms: C_19  and  C_20
REMARK                            x       y       z     vdW  Elec       q    Type
REMARK                         _______ _______ _______ _____ _____    ______ ____
ROOT
ATOM      1  C   UNL     1       2.353   7.792  18.115  0.00  0.00    +0.000 C 
ATOM      2  O   UNL     1       2.573   8.096  16.941  0.00  0.00    +0.000 OA
ATOM      3  N   UNL     1       2.609   6.517  18.633  0.00  0.00    +0.000 N 
ATOM      4  C   UNL     1       2.206   6.057  19.966  0.00  0.00    +0.000 C 
ATOM      5  C   UNL     1       1.608   4.664  19.988  0.00  0.00    +0.000 C 
ATOM      6  N   UNL     1       2.337   3.760  19.133  0.00  0.00    +0.000 N 
ATOM      7  C   UNL     1       2.323   2.400  19.229  0.00  0.00    +0.000 A 
ATOM      8  C   UNL     1       3.088   1.907  18.198  0.00  0.00    +0.000 A 
ATOM      9  C   UNL     1       3.589   3.018  17.477  0.00  0.00    +0.000 A 
ATOM     10  C   UNL     1       3.145   4.169  18.108  0.00  0.00    +0.000 A 
ATOM     11  C   UNL     1       3.490   5.627  17.849  0.00  0.00    +0.000 C 
ENDROOT
BRANCH   1  19
ATOM     12  O   UNL     1      -2.131  12.349  21.760  0.00  0.00    +0.000 OA
ATOM     13  C   UNL     1      -1.168  11.620  22.015  0.00  0.00    +0.000 C 
ATOM     14  C   UNL     1      -1.228  10.634  23.157  0.00  0.00    +0.000 C 
ATOM     15  C   UNL     1      -0.595   9.268  22.968  0.00  0.00    +0.000 C 
ATOM     16  C   UNL     1       0.898   9.350  22.675  0.00  0.00    +0.000 C 
ATOM     17  C   UNL     1       1.105   9.639  21.214  0.00  0.00    +0.000 A 
ATOM     18  C   UNL     1       1.685   8.658  20.379  0.00  0.00    +0.000 A 
ATOM     19  C   UNL     1       1.805   8.870  18.997  0.00  0.00    +0.000 A 
ATOM     20  C   UNL     1       1.323  10.062  18.457  0.00  0.00    +0.000 A 
ATOM     21  C   UNL     1       0.856  11.076  19.282  0.00  0.00    +0.000 A 
ATOM     22  C   UNL     1       0.689  10.849  20.650  0.00  0.00    +0.000 A 
ATOM     23  N   UNL     1       0.003  11.863  21.350  0.00  0.00    +0.000 N 
ATOM     24  H   UNL     1      -0.156  12.690  20.783  0.00  0.00    +0.000 HD
ENDBRANCH   1  19
BRANCH  11  25
ATOM     25  C   UNL     1       4.980   5.908  18.124  0.00  0.00    +0.000 A 
ATOM     26  C   UNL     1       5.724   6.691  17.224  0.00  0.00    +0.000 A 
ATOM     27  C   UNL     1       7.104   6.854  17.386  0.00  0.00    +0.000 A 
ATOM     28  C   UNL     1       7.763   6.250  18.454  0.00  0.00    +0.000 A 
ATOM     29  C   UNL     1       7.037   5.510  19.383  0.00  0.00    +0.000 A 
ATOM     30  C   UNL     1       5.657   5.354  19.228  0.00  0.00    +0.000 A 
ENDBRANCH  11  25
TORSDOF 2
ENDMDL
MODEL 2
REMARK VINA RESULT:      -9.4      1.139      2.037
REMARK  Name = 
REMARK  2 active torsions:
REMARK  status: ('A' for Active; 'I' for Inactive)
REMARK    1  A    between atoms: C_8  and  C_9
REMARK    2  A    between atoms: C_19  and  C_20
REMARK                            x       y       z     vdW  Elec       q    Type
REMARK                         _______ _______ _______ _____ _____    ______ ____
ROOT
ATOM      1  C   UNL     1       2.330   7.623  18.005  0.00  0.00    +0.000 C 
ATOM      2  O   UNL     1       2.601   7.970  16.854  0.00  0.00    +0.000 OA
ATOM      3  N   UNL     1       2.640   6.355  18.511  0.00  0.00    +0.000 N 
ATOM      4  C   UNL     1       2.189   5.835  19.806  0.00  0.00    +0.000 C 
ATOM      5  C   UNL     1       1.688   4.404  19.761  0.00  0.00    +0.000 C 
ATOM      6  N   UNL     1       2.529   3.574  18.935  0.00  0.00    +0.000 N 
ATOM      7  C   UNL     1       2.602   2.214  19.001  0.00  0.00    +0.000 A 
ATOM      8  C   UNL     1       3.462   1.800  18.010  0.00  0.00    +0.000 A 
ATOM      9  C   UNL     1       3.929   2.960  17.345  0.00  0.00    +0.000 A 
ATOM     10  C   UNL     1       3.369   4.062  17.971  0.00  0.00    +0.000 A 
ATOM     11  C   UNL     1       3.628   5.547  17.766  0.00  0.00    +0.000 C 
ENDROOT
BRANCH   1  19
ATOM     12  O   UNL     1       0.875  13.484  22.210  0.00  0.00    +0.000 OA
ATOM     13  C   UNL     1       0.378  12.916  21.233  0.00  0.00    +0.000 C 
ATOM     14  C   UNL     1      -0.001  13.698  19.999  0.00  0.00    +0.000 C 
ATOM     15  C   UNL     1       0.251  13.072  18.639  0.00  0.00    +0.000 C 
ATOM     16  C   UNL     1      -0.501  11.761  18.450  0.00  0.00    +0.000 C 
ATOM     17  C   UNL     1       0.270  10.645  19.098  0.00  0.00    +0.000 A 
ATOM     18  C   UNL     1       0.856   9.639  18.299  0.00  0.00    +0.000 A 
ATOM     19  C   UNL     1       1.655   8.638  18.873  0.00  0.00    +0.000 A 
ATOM     20  C   UNL     1       1.877   8.665  20.250  0.00  0.00    +0.000 A 
ATOM     21  C   UNL     1       1.216   9.580  21.057  0.00  0.00    +0.000 A 
ATOM     22  C   UNL     1       0.461  10.607  20.483  0.00  0.00    +0.000 A 
ATOM     23  N   UNL     1       0.021  11.604  21.378  0.00  0.00    +0.000 N 
ATOM     24  H   UNL     1       0.198  11.364  22.348  0.00  0.00    +0.000 HD
ENDBRANCH   1  19
BRANCH  11  25
ATOM     25  C   UNL     1       5.075   5.919  18.140  0.00  0.00    +0.000 A 
ATOM     26  C   UNL     1       5.811   6.788  17.315  0.00  0.00    +0.000 A 
ATOM     27  C   UNL     1       7.165   7.040  17.566  0.00  0.00    +0.000 A 
ATOM     28  C   UNL     1       7.803   6.442  18.651  0.00  0.00    +0.000 A 
ATOM     29  C   UNL     1       7.078   5.619  19.508  0.00  0.00    +0.000 A 
ATOM     30  C   UNL     1       5.725   5.373  19.264  0.00  0.00    +0.000 A 
ENDBRANCH  11  25
TORSDOF 2
ENDMDL
MODEL 3
REMARK VINA RESULT:      -9.0      2.932      9.059
REMARK  Name = 
REMARK  2 active torsions:
REMARK  status: ('A' for Active; 'I' for Inactive)
REMARK    1  A    between atoms: C_8  and  C_9
REMARK    2  A    between atoms: C_19  and  C_20
REMARK                            x       y       z     vdW  Elec       q    Type
REMARK                         _______ _______ _______ _____ _____    ______ ____
ROOT
ATOM      1  C   UNL     1      -0.056  10.944  18.971  0.00  0.00    +0.000 C 
ATOM      2  O   UNL     1      -0.992  10.771  18.188  0.00  0.00    +0.000 OA
ATOM      3  N   UNL     1       0.355  12.211  19.398  0.00  0.00    +0.000 N 
ATOM      4  C   UNL     1       1.562  12.481  20.185  0.00  0.00    +0.000 C 
ATOM      5  C   UNL     1       2.367  13.672  19.702  0.00  0.00    +0.000 C 
ATOM      6  N   UNL     1       1.513  14.777  19.342  0.00  0.00    +0.000 N 
ATOM      7  C   UNL     1       1.904  16.081  19.262  0.00  0.00    +0.000 A 
ATOM      8  C   UNL     1       0.821  16.808  18.825  0.00  0.00    +0.000 A 
ATOM      9  C   UNL     1      -0.255  15.903  18.659  0.00  0.00    +0.000 A 
ATOM     10  C   UNL     1       0.187  14.644  19.033  0.00  0.00    +0.000 A 
ATOM     11  C   UNL     1      -0.577  13.338  19.185  0.00  0.00    +0.000 C 
ENDROOT
BRANCH   1  19
ATOM     12  O   UNL     1       1.523   4.046  20.992  0.00  0.00    +0.000 OA
ATOM     13  C   UNL     1       2.032   4.934  20.301  0.00  0.00    +0.000 C 
ATOM     14  C   UNL     1       2.510   4.641  18.899  0.00  0.00    +0.000 C 
ATOM     15  C   UNL     1       2.285   5.688  17.824  0.00  0.00    +0.000 C 
ATOM     16  C   UNL     1       2.973   7.010  18.143  0.00  0.00    +0.000 C 
ATOM     17  C   UNL     1       2.114   7.805  19.086  0.00  0.00    +0.000 A 
ATOM     18  C   UNL     1       1.511   9.004  18.645  0.00  0.00    +0.000 A 
ATOM     19  C   UNL     1       0.632   9.716  19.477  0.00  0.00    +0.000 A 
ATOM     20  C   UNL     1       0.350   9.207  20.745  0.00  0.00    +0.000 A 
ATOM     21  C   UNL     1       1.023   8.093  21.228  0.00  0.00    +0.000 A 
ATOM     22  C   UNL     1       1.858   7.356  20.386  0.00  0.00    +0.000 A 
ATOM     23  N   UNL     1       2.310   6.127  20.909  0.00  0.00    +0.000 N 
ATOM     24  H   UNL     1       2.076   6.011  21.890  0.00  0.00    +0.000 HD
ENDBRANCH   1  19
BRANCH  11  25
ATOM     25  C   UNL     1      -1.630  13.433  20.306  0.00  0.00    +0.000 A 
ATOM     26  C   UNL     1      -1.289  14.013  21.540  0.00  0.00    +0.000 A 
ATOM     27  C   UNL     1      -2.187  13.996  22.614  0.00  0.00    +0.000 A 
ATOM     28  C   UNL     1      -3.444  13.413  22.469  0.00  0.00    +0.000 A 
ATOM     29  C   UNL     1      -3.819  12.878  21.240  0.00  0.00    +0.000 A 
ATOM     30  C   UNL     1      -2.926  12.902  20.166  0.00  0.00    +0.000 A 
ENDBRANCH  11  25
TORSDOF 2
ENDMDL
MODEL 4
REMARK VINA RESULT:      -8.9      2.100      4.106
REMARK  Name = 
REMARK  2 active torsions:
REMARK  status: ('A' for Active; 'I' for Inactive)
REMARK    1  A    between atoms: C_8  and  C_9
REMARK    2  A    between atoms: C_19  and  C_20
REMARK                            x       y       z     vdW  Elec       q    Type
REMARK                         _______ _______ _______ _____ _____    ______ ____
ROOT
ATOM      1  C   UNL     1       1.815   8.148  20.015  0.00  0.00    +0.000 C 
ATOM      2  O   UNL     1       1.841   7.960  21.233  0.00  0.00    +0.000 OA
ATOM      3  N   UNL     1       2.605   7.424  19.116  0.00  0.00    +0.000 N 
ATOM      4  C   UNL     1       2.739   7.724  17.686  0.00  0.00    +0.000 C 
ATOM      5  C   UNL     1       4.163   7.666  17.169  0.00  0.00    +0.000 C 
ATOM      6  N   UNL     1       4.877   6.536  17.710  0.00  0.00    +0.000 N 
ATOM      7  C   UNL     1       5.994   5.975  17.165  0.00  0.00    +0.000 A 
ATOM      8  C   UNL     1       6.405   4.971  18.011  0.00  0.00    +0.000 A 
ATOM      9  C   UNL     1       5.486   4.924  19.087  0.00  0.00    +0.000 A 
ATOM     10  C   UNL     1       4.511   5.881  18.854  0.00  0.00    +0.000 A 
ATOM     11  C   UNL     1       3.219   6.171  19.602  0.00  0.00    +0.000 C 
ENDROOT
BRANCH   1  19
ATOM     12  O   UNL     1      -4.242  11.914  18.201  0.00  0.00    +0.000 OA
ATOM     13  C   UNL     1      -3.189  12.119  18.812  0.00  0.00    +0.000 C 
ATOM     14  C   UNL     1      -3.205  12.741  20.188  0.00  0.00    +0.000 C 
ATOM     15  C   UNL     1      -2.228  12.223  21.227  0.00  0.00    +0.000 C 
ATOM     16  C   UNL     1      -0.775  12.392  20.801  0.00  0.00    +0.000 C 
ATOM     17  C   UNL     1      -0.389  11.263  19.887  0.00  0.00    +0.000 A 
ATOM     18  C   UNL     1       0.557  10.305  20.315  0.00  0.00    +0.000 A 
ATOM     19  C   UNL     1       0.866   9.192  19.517  0.00  0.00    +0.000 A 
ATOM     20  C   UNL     1       0.207   9.039  18.297  0.00  0.00    +0.000 A 
ATOM     21  C   UNL     1      -0.638  10.030  17.818  0.00  0.00    +0.000 A 
ATOM     22  C   UNL     1      -0.985  11.111  18.631  0.00  0.00    +0.000 A 
ATOM     23  N   UNL     1      -2.016  11.934  18.132  0.00  0.00    +0.000 N 
ATOM     24  H   UNL     1      -2.272  11.704  17.177  0.00  0.00    +0.000 HD
ENDBRANCH   1  19
BRANCH  11  25
ATOM     25  C   UNL     1       2.243   4.982  19.516  0.00  0.00    +0.000 A 
ATOM     26  C   UNL     1       1.724   4.413  20.692  0.00  0.00    +0.000 A 
ATOM     27  C   UNL     1       0.938   3.257  20.644  0.00  0.00    +0.000 A 
ATOM     28  C   UNL     1       0.644   2.656  19.421  0.00  0.00    +0.000 A 
ATOM     29  C   UNL     1       1.108   3.232  18.242  0.00  0.00    +0.000 A 
ATOM     30  C   UNL     1       1.885   4.392  18.288  0.00  0.00    +0.000 A 
ENDBRANCH  11  25
TORSDOF 2
ENDMDL
MODEL 5
REMARK VINA RESULT:      -8.8      2.429      7.992
REMARK  Name = 
REMARK  2 active torsions:
REMARK  status: ('A' for Active; 'I' for Inactive)
REMARK    1  A    between atoms: C_8  and  C_9
REMARK    2  A    between atoms: C_19  and  C_20
REMARK                            x       y       z     vdW  Elec       q    Type
REMARK                         _______ _______ _______ _____ _____    ______ ____
ROOT
ATOM      1  C   UNL     1       1.819   9.288  18.299  0.00  0.00    +0.000 C 
ATOM      2  O   UNL     1       2.143  10.159  17.490  0.00  0.00    +0.000 OA
ATOM      3  N   UNL     1       0.924   9.520  19.350  0.00  0.00    +0.000 N 
ATOM      4  C   UNL     1       0.640   8.574  20.434  0.00  0.00    +0.000 C 
ATOM      5  C   UNL     1       0.597   9.203  21.813  0.00  0.00    +0.000 C 
ATOM      6  N   UNL     1      -0.096  10.468  21.797  0.00  0.00    +0.000 N 
ATOM      7  C   UNL     1      -0.650  11.076  22.884  0.00  0.00    +0.000 A 
ATOM      8  C   UNL     1      -1.153  12.287  22.465  0.00  0.00    +0.000 A 
ATOM      9  C   UNL     1      -0.903  12.388  21.075  0.00  0.00    +0.000 A 
ATOM     10  C   UNL     1      -0.282  11.218  20.669  0.00  0.00    +0.000 A 
ATOM     11  C   UNL     1       0.083  10.732  19.274  0.00  0.00    +0.000 C 
ENDROOT
BRANCH   1  19
ATOM     12  O   UNL     1       5.165   2.815  19.327  0.00  0.00    +0.000 OA
ATOM     13  C   UNL     1       4.118   3.231  18.822  0.00  0.00    +0.000 C 
ATOM     14  C   UNL     1       2.790   2.610  19.183  0.00  0.00    +0.000 C 
ATOM     15  C   UNL     1       1.586   3.520  19.344  0.00  0.00    +0.000 C 
ATOM     16  C   UNL     1       1.260   4.291  18.071  0.00  0.00    +0.000 C 
ATOM     17  C   UNL     1       2.151   5.498  17.977  0.00  0.00    +0.000 A 
ATOM     18  C   UNL     1       1.594   6.792  18.094  0.00  0.00    +0.000 A 
ATOM     19  C   UNL     1       2.415   7.930  18.100  0.00  0.00    +0.000 A 
ATOM     20  C   UNL     1       3.797   7.760  18.008  0.00  0.00    +0.000 A 
ATOM     21  C   UNL     1       4.344   6.505  17.781  0.00  0.00    +0.000 A 
ATOM     22  C   UNL     1       3.535   5.367  17.824  0.00  0.00    +0.000 A 
ATOM     23  N   UNL     1       4.223   4.137  17.803  0.00  0.00    +0.000 N 
ATOM     24  H   UNL     1       5.215   4.248  17.619  0.00  0.00    +0.000 HD
ENDBRANCH   1  19
BRANCH  11  25
ATOM     25  C   UNL     1      -1.174  10.506  18.413  0.00  0.00    +0.000 A 
ATOM     26  C   UNL     1      -1.114   9.658  17.294  0.00  0.00    +0.000 A 
ATOM     27  C   UNL     1      -2.206   9.536  16.426  0.00  0.00    +0.000 A 
ATOM     28  C   UNL     1      -3.379  10.248  16.668  0.00  0.00    +0.000 A 
ATOM     29  C   UNL     1      -3.475  11.055  17.798  0.00  0.00    +0.000 A 
ATOM     30  C   UNL     1      -2.390  11.170  18.670  0.00  0.00    +0.000 A 
ENDBRANCH  11  25
TORSDOF 2
ENDMDL
MODEL 6
REMARK VINA RESULT:      -8.7      2.460      8.273
REMARK  Name = 
REMARK  2 active torsions:
REMARK  status: ('A' for Active; 'I' for Inactive)
REMARK    1  A    between atoms: C_8  and  C_9
REMARK    2  A    between atoms: C_19  and  C_20
REMARK                            x       y       z     vdW  Elec       q    Type
REMARK                         _______ _______ _______ _____ _____    ______ ____
ROOT
ATOM      1  C   UNL     1       1.442   9.204  19.173  0.00  0.00    +0.000 C 
ATOM      2  O   UNL     1       1.957   9.774  18.209  0.00  0.00    +0.000 OA
ATOM      3  N   UNL     1       0.507   9.820  20.012  0.00  0.00    +0.000 N 
ATOM      4  C   UNL     1      -0.001   9.250  21.264  0.00  0.00    +0.000 C 
ATOM      5  C   UNL     1      -0.068  10.235  22.414  0.00  0.00    +0.000 C 
ATOM      6  N   UNL     1      -0.566  11.518  21.984  0.00  0.00    +0.000 N 
ATOM      7  C   UNL     1      -1.115  12.463  22.799  0.00  0.00    +0.000 A 
ATOM      8  C   UNL     1      -1.400  13.562  22.021  0.00  0.00    +0.000 A 
ATOM      9  C   UNL     1      -1.023  13.246  20.693  0.00  0.00    +0.000 A 
ATOM     10  C   UNL     1      -0.547  11.945  20.685  0.00  0.00    +0.000 A 
ATOM     11  C   UNL     1      -0.141  11.054  19.521  0.00  0.00    +0.000 C 
ENDROOT
BRANCH   1  19
ATOM     12  O   UNL     1       1.514   1.868  19.749  0.00  0.00    +0.000 OA
ATOM     13  C   UNL     1       2.210   2.749  19.237  0.00  0.00    +0.000 C 
ATOM     14  C   UNL     1       2.644   2.648  17.795  0.00  0.00    +0.000 C 
ATOM     15  C   UNL     1       2.664   3.912  16.954  0.00  0.00    +0.000 C 
ATOM     16  C   UNL     1       3.604   4.972  17.513  0.00  0.00    +0.000 C 
ATOM     17  C   UNL     1       2.910   5.724  18.615  0.00  0.00    +0.000 A 
ATOM     18  C   UNL     1       2.578   7.085  18.434  0.00  0.00    +0.000 A 
ATOM     19  C   UNL     1       1.851   7.784  19.410  0.00  0.00    +0.000 A 
ATOM     20  C   UNL     1       1.444   7.103  20.558  0.00  0.00    +0.000 A 
ATOM     21  C   UNL     1       1.861   5.801  20.795  0.00  0.00    +0.000 A 
ATOM     22  C   UNL     1       2.541   5.089  19.804  0.00  0.00    +0.000 A 
ATOM     23  N   UNL     1       2.718   3.714  20.063  0.00  0.00    +0.000 N 
ATOM     24  H   UNL     1       2.445   3.456  21.007  0.00  0.00    +0.000 HD
ENDBRANCH   1  19
BRANCH  11  25
ATOM     25  C   UNL     1      -1.341  10.748  18.605  0.00  0.00    +0.000 A 
ATOM     26  C   UNL     1      -1.174   9.916  17.484  0.00  0.00    +0.000 A 
ATOM     27  C   UNL     1      -2.216   9.726  16.569  0.00  0.00    +0.000 A 
ATOM     28  C   UNL     1      -3.446  10.350  16.765  0.00  0.00    +0.000 A 
ATOM     29  C   UNL     1      -3.647  11.138  17.895  0.00  0.00    +0.000 A 
ATOM     30  C   UNL     1      -2.610  11.321  18.813  0.00  0.00    +0.000 A 
ENDBRANCH  11  25
TORSDOF 2
ENDMDL
MODEL 7
REMARK VINA RESULT:      -8.7      2.389      7.986
REMARK  Name = 
REMARK  2 active torsions:
REMARK  status: ('A' for Active; 'I' for Inactive)
REMARK    1  A    between atoms: C_8  and  C_9
REMARK    2  A    between atoms: C_19  and  C_20
REMARK                            x       y       z     vdW  Elec       q    Type
REMARK                         _______ _______ _______ _____ _____    ______ ____
ROOT
ATOM      1  C   UNL     1       1.674   9.146  18.881  0.00  0.00    +0.000 C 
ATOM      2  O   UNL     1       2.201   9.936  18.095  0.00  0.00    +0.000 OA
ATOM      3  N   UNL     1       0.711   9.535  19.820  0.00  0.00    +0.000 N 
ATOM      4  C   UNL     1       0.184   8.676  20.885  0.00  0.00    +0.000 C 
ATOM      5  C   UNL     1       0.079   9.355  22.237  0.00  0.00    +0.000 C 
ATOM      6  N   UNL     1      -0.427  10.700  22.116  0.00  0.00    +0.000 N 
ATOM      7  C   UNL     1      -1.007  11.417  23.121  0.00  0.00    +0.000 A 
ATOM      8  C   UNL     1      -1.289  12.668  22.623  0.00  0.00    +0.000 A 
ATOM      9  C   UNL     1      -0.878  12.684  21.268  0.00  0.00    +0.000 A 
ATOM     10  C   UNL     1      -0.385  11.427  20.958  0.00  0.00    +0.000 A 
ATOM     11  C   UNL     1       0.059  10.846  19.625  0.00  0.00    +0.000 C 
ENDROOT
BRANCH   1  19
ATOM     12  O   UNL     1       5.163   2.724  19.739  0.00  0.00    +0.000 OA
ATOM     13  C   UNL     1       4.001   3.141  19.759  0.00  0.00    +0.000 C 
ATOM     14  C   UNL     1       3.082   2.804  20.909  0.00  0.00    +0.000 C 
ATOM     15  C   UNL     1       2.135   3.876  21.416  0.00  0.00    +0.000 C 
ATOM     16  C   UNL     1       1.166   4.357  20.343  0.00  0.00    +0.000 C 
ATOM     17  C   UNL     1       1.848   5.380  19.477  0.00  0.00    +0.000 A 
ATOM     18  C   UNL     1       1.418   6.725  19.509  0.00  0.00    +0.000 A 
ATOM     19  C   UNL     1       2.096   7.714  18.779  0.00  0.00    +0.000 A 
ATOM     20  C   UNL     1       3.217   7.348  18.035  0.00  0.00    +0.000 A 
ATOM     21  C   UNL     1       3.579   6.014  17.908  0.00  0.00    +0.000 A 
ATOM     22  C   UNL     1       2.938   5.035  18.671  0.00  0.00    +0.000 A 
ATOM     23  N   UNL     1       3.529   3.756  18.633  0.00  0.00    +0.000 N 
ATOM     24  H   UNL     1       4.267   3.688  17.939  0.00  0.00    +0.000 HD
ENDBRANCH   1  19
BRANCH  11  25
ATOM     25  C   UNL     1      -1.117  10.760  18.633  0.00  0.00    +0.000 A 
ATOM     26  C   UNL     1      -2.263  11.548  18.834  0.00  0.00    +0.000 A 
ATOM     27  C   UNL     1      -3.392  11.396  18.020  0.00  0.00    +0.000 A 
ATOM     28  C   UNL     1      -3.391  10.464  16.984  0.00  0.00    +0.000 A 
ATOM     29  C   UNL     1      -2.248   9.709  16.738  0.00  0.00    +0.000 A 
ATOM     30  C   UNL     1      -1.118   9.867  17.544  0.00  0.00    +0.000 A 
ENDBRANCH  11  25
TORSDOF 2
ENDMDL
MODEL 8
REMARK VINA RESULT:      -8.7      1.489      2.508
REMARK  Name = 
REMARK  2 active torsions:
REMARK  status: ('A' for Active; 'I' for Inactive)
REMARK    1  A    between atoms: C_8  and  C_9
REMARK    2  A    between atoms: C_19  and  C_20
REMARK                            x       y       z     vdW  Elec       q    Type
REMARK                         _______ _______ _______ _____ _____    ______ ____
ROOT
ATOM      1  C   UNL     1       2.475   7.835  17.894  0.00  0.00    +0.000 C 
ATOM      2  O   UNL     1       2.678   7.874  16.679  0.00  0.00    +0.000 OA
ATOM      3  N   UNL     1       2.748   6.708  18.676  0.00  0.00    +0.000 N 
ATOM      4  C   UNL     1       2.367   6.550  20.083  0.00  0.00    +0.000 C 
ATOM      5  C   UNL     1       1.780   5.193  20.421  0.00  0.00    +0.000 C 
ATOM      6  N   UNL     1       2.507   4.127  19.776  0.00  0.00    +0.000 N 
ATOM      7  C   UNL     1       2.505   2.822  20.169  0.00  0.00    +0.000 A 
ATOM      8  C   UNL     1       3.262   2.118  19.261  0.00  0.00    +0.000 A 
ATOM      9  C   UNL     1       3.745   3.045  18.306  0.00  0.00    +0.000 A 
ATOM     10  C   UNL     1       3.298   4.304  18.674  0.00  0.00    +0.000 A 
ATOM     11  C   UNL     1       3.628   5.672  18.096  0.00  0.00    +0.000 C 
ENDROOT
BRANCH   1  19
ATOM     12  O   UNL     1       1.510  13.794  22.103  0.00  0.00    +0.000 OA
ATOM     13  C   UNL     1       1.471  13.509  20.903  0.00  0.00    +0.000 C 
ATOM     14  C   UNL     1       2.225  14.337  19.890  0.00  0.00    +0.000 C 
ATOM     15  C   UNL     1       2.912  13.624  18.739  0.00  0.00    +0.000 C 
ATOM     16  C   UNL     1       1.937  12.840  17.871  0.00  0.00    +0.000 C 
ATOM     17  C   UNL     1       1.652  11.511  18.514  0.00  0.00    +0.000 A 
ATOM     18  C   UNL     1       2.101  10.322  17.898  0.00  0.00    +0.000 A 
ATOM     19  C   UNL     1       1.928   9.077  18.524  0.00  0.00    +0.000 A 
ATOM     20  C   UNL     1       1.319   9.037  19.778  0.00  0.00    +0.000 A 
ATOM     21  C   UNL     1       0.775  10.184  20.339  0.00  0.00    +0.000 A 
ATOM     22  C   UNL     1       0.990  11.429  19.744  0.00  0.00    +0.000 A 
ATOM     23  N   UNL     1       0.588  12.542  20.510  0.00  0.00    +0.000 N 
ATOM     24  H   UNL     1       0.066  12.277  21.339  0.00  0.00    +0.000 HD
ENDBRANCH   1  19
BRANCH  11  25
ATOM     25  C   UNL     1       5.118   6.014  18.281  0.00  0.00    +0.000 A 
ATOM     26  C   UNL     1       5.771   6.833  17.344  0.00  0.00    +0.000 A 
ATOM     27  C   UNL     1       7.151   7.054  17.422  0.00  0.00    +0.000 A 
ATOM     28  C   UNL     1       7.900   6.473  18.444  0.00  0.00    +0.000 A 
ATOM     29  C   UNL     1       7.263   5.699  19.409  0.00  0.00    +0.000 A 
ATOM     30  C   UNL     1       5.885   5.485  19.337  0.00  0.00    +0.000 A 
ENDBRANCH  11  25
TORSDOF 2
ENDMDL
MODEL 9
REMARK VINA RESULT:      -8.6      2.577      8.281
REMARK  Name = 
REMARK  2 active torsions:
REMARK  status: ('A' for Active; 'I' for Inactive)
REMARK    1  A    between atoms: C_8  and  C_9
REMARK    2  A    between atoms: C_19  and  C_20
REMARK                            x       y       z     vdW  Elec       q    Type
REMARK                         _______ _______ _______ _____ _____    ______ ____
ROOT
ATOM      1  C   UNL     1       1.533   9.439  18.566  0.00  0.00    +0.000 C 
ATOM      2  O   UNL     1       1.869   9.725  17.416  0.00  0.00    +0.000 OA
ATOM      3  N   UNL     1       0.828  10.319  19.395  0.00  0.00    +0.000 N 
ATOM      4  C   UNL     1       0.558  10.097  20.819  0.00  0.00    +0.000 C 
ATOM      5  C   UNL     1       0.789  11.314  21.694  0.00  0.00    +0.000 C 
ATOM      6  N   UNL     1       0.287  12.515  21.073  0.00  0.00    +0.000 N 
ATOM      7  C   UNL     1      -0.026  13.669  21.727  0.00  0.00    +0.000 A 
ATOM      8  C   UNL     1      -0.402  14.591  20.778  0.00  0.00    +0.000 A 
ATOM      9  C   UNL     1      -0.327  13.952  19.517  0.00  0.00    +0.000 A 
ATOM     10  C   UNL     1       0.062  12.639  19.729  0.00  0.00    +0.000 A 
ATOM     11  C   UNL     1       0.166  11.475  18.756  0.00  0.00    +0.000 C 
ENDROOT
BRANCH   1  19
ATOM     12  O   UNL     1       1.323   2.392  20.675  0.00  0.00    +0.000 OA
ATOM     13  C   UNL     1       1.993   3.097  19.914  0.00  0.00    +0.000 C 
ATOM     14  C   UNL     1       2.242   2.671  18.488  0.00  0.00    +0.000 C 
ATOM     15  C   UNL     1       2.219   3.730  17.401  0.00  0.00    +0.000 C 
ATOM     16  C   UNL     1       3.271   4.812  17.616  0.00  0.00    +0.000 C 
ATOM     17  C   UNL     1       2.754   5.822  18.602  0.00  0.00    +0.000 A 
ATOM     18  C   UNL     1       2.468   7.138  18.174  0.00  0.00    +0.000 A 
ATOM     19  C   UNL     1       1.899   8.073  19.054  0.00  0.00    +0.000 A 
ATOM     20  C   UNL     1       1.604   7.673  20.357  0.00  0.00    +0.000 A 
ATOM     21  C   UNL     1       1.984   6.420  20.818  0.00  0.00    +0.000 A 
ATOM     22  C   UNL     1       2.503   5.473  19.933  0.00  0.00    +0.000 A 
ATOM     23  N   UNL     1       2.644   4.171  20.456  0.00  0.00    +0.000 N 
ATOM     24  H   UNL     1       2.476   4.133  21.457  0.00  0.00    +0.000 HD
ENDBRANCH   1  19
BRANCH  11  25
ATOM     25  C   UNL     1      -1.214  11.101  18.181  0.00  0.00    +0.000 A 
ATOM     26  C   UNL     1      -2.371  11.736  18.664  0.00  0.00    +0.000 A 
ATOM     27  C   UNL     1      -3.642  11.325  18.249  0.00  0.00    +0.000 A 
ATOM     28  C   UNL     1      -3.781  10.282  17.336  0.00  0.00    +0.000 A 
ATOM     29  C   UNL     1      -2.646   9.673  16.808  0.00  0.00    +0.000 A 
ATOM     30  C   UNL     1      -1.376  10.089  17.215  0.00  0.00    +0.000 A 
ENDBRANCH  11  25
TORSDOF 2
ENDMDL
