MODEL 1
REMARK VINA RESULT:      -9.3      0.000      0.000
REMARK  Name = 
REMARK  2 active torsions:
REMARK  status: ('A' for Active; 'I' for Inactive)
REMARK    1  A    between atoms: C_1  and  N_2
REMARK    2  A    between atoms: C_3  and  C_4
REMARK                            x       y       z     vdW  Elec       q    Type
REMARK                         _______ _______ _______ _____ _____    ______ ____
ROOT
ATOM      1  C   UNL     1       1.181   8.251  20.593  0.00  0.00    +0.000 C 
ATOM      2  N   UNL     1       1.640   8.688  19.302  0.00  0.00    +0.000 N 
ATOM      3  C   UNL     1       2.407   8.007  18.381  0.00  0.00    +0.000 A 
ATOM      4  N   UNL     1       2.533   8.769  17.315  0.00  0.00    +0.000 NA
ATOM      5  N   UNL     1       1.913   9.976  17.568  0.00  0.00    +0.000 NA
ATOM      6  C   UNL     1       1.378   9.930  18.763  0.00  0.00    +0.000 A 
ATOM      7  N   UNL     1       0.762  10.903  19.500  0.00  0.00    +0.000 N 
ATOM      8  C   UNL     1       1.041  12.300  19.189  0.00  0.00    +0.000 C 
ATOM      9  C   UNL     1      -0.302  13.004  19.082  0.00  0.00    +0.000 C 
ATOM     10  C   UNL     1      -1.336  12.061  19.692  0.00  0.00    +0.000 C 
ATOM     11  C   UNL     1      -0.626  10.733  19.942  0.00  0.00    +0.000 C 
ATOM     12  C   UNL     1      -2.509  11.844  18.708  0.00  0.00    +0.000 C 
ATOM     13  O   UNL     1      -2.460  11.363  17.582  0.00  0.00    +0.000 OA
ATOM     14  N   UNL     1      -3.665  12.310  19.313  0.00  0.00    +0.000 N 
ATOM     15  C   UNL     1      -3.412  12.795  20.579  0.00  0.00    +0.000 A 
ATOM     16  C   UNL     1      -4.326  13.362  21.447  0.00  0.00    +0.000 A 
ATOM     17  C   UNL     1      -3.844  13.816  22.676  0.00  0.00    +0.000 A 
ATOM     18  C   UNL     1      -2.481  13.685  23.001  0.00  0.00    +0.000 A 
ATOM     19  C   UNL     1      -1.575  13.102  22.106  0.00  0.00    +0.000 A 
ATOM     20  C   UNL     1      -2.059  12.659  20.885  0.00  0.00    +0.000 A 
ATOM     21  H   UNL     1      -4.563  12.303  18.850  0.00  0.00    +0.000 HD
ENDROOT
BRANCH   3  22
ATOM     22  C   UNL     1       2.973   6.622  18.576  0.00  0.00    +0.000 C 
ATOM     23  C   UNL     1       4.246   6.386  17.711  0.00  0.00    +0.000 C 
ATOM     24  C   UNL     1       4.917   5.037  18.073  0.00  0.00    +0.000 C 
ATOM     25  C   UNL     1       3.905   3.958  18.017  0.00  0.00    +0.000 A 
ATOM     26  C   UNL     1       4.002   2.572  17.799  0.00  0.00    +0.000 A 
ATOM     27  N   UNL     1       2.803   1.981  17.785  0.00  0.00    +0.000 NA
ATOM     28  N   UNL     1       1.935   2.993  17.987  0.00  0.00    +0.000 N 
ATOM     29  C   UNL     1       2.556   4.195  18.153  0.00  0.00    +0.000 A 
ATOM     30  C   UNL     1       1.896   5.519  18.343  0.00  0.00    +0.000 C 
ATOM     31  H   UNL     1       0.942   2.785  17.983  0.00  0.00    +0.000 HD
ENDBRANCH   3  22
TORSDOF 1
ENDMDL
MODEL 2
REMARK VINA RESULT:      -8.7      1.396      1.430
REMARK  Name = 
REMARK  2 active torsions:
REMARK  status: ('A' for Active; 'I' for Inactive)
REMARK    1  A    between atoms: C_1  and  N_2
REMARK    2  A    between atoms: C_3  and  C_4
REMARK                            x       y       z     vdW  Elec       q    Type
REMARK                         _______ _______ _______ _____ _____    ______ ____
ROOT
ATOM      1  C   UNL     1       1.037   8.679  21.005  0.00  0.00    +0.000 C 
ATOM      2  N   UNL     1       1.443   8.817  19.632  0.00  0.00    +0.000 N 
ATOM      3  C   UNL     1       2.214   7.966  18.868  0.00  0.00    +0.000 A 
ATOM      4  N   UNL     1       2.280   8.461  17.650  0.00  0.00    +0.000 NA
ATOM      5  N   UNL     1       1.617   9.672  17.637  0.00  0.00    +0.000 NA
ATOM      6  C   UNL     1       1.116   9.889  18.828  0.00  0.00    +0.000 A 
ATOM      7  N   UNL     1       0.479  10.985  19.339  0.00  0.00    +0.000 N 
ATOM      8  C   UNL     1       0.691  12.279  18.702  0.00  0.00    +0.000 C 
ATOM      9  C   UNL     1      -0.683  12.892  18.481  0.00  0.00    +0.000 C 
ATOM     10  C   UNL     1      -1.660  12.083  19.330  0.00  0.00    +0.000 C 
ATOM     11  C   UNL     1      -0.889  10.875  19.858  0.00  0.00    +0.000 C 
ATOM     12  C   UNL     1      -2.849  11.601  18.466  0.00  0.00    +0.000 C 
ATOM     13  O   UNL     1      -2.809  10.872  17.481  0.00  0.00    +0.000 OA
ATOM     14  N   UNL     1      -4.007  12.156  18.986  0.00  0.00    +0.000 N 
ATOM     15  C   UNL     1      -3.741  12.931  20.095  0.00  0.00    +0.000 A 
ATOM     16  C   UNL     1      -4.655  13.654  20.838  0.00  0.00    +0.000 A 
ATOM     17  C   UNL     1      -4.160  14.399  21.910  0.00  0.00    +0.000 A 
ATOM     18  C   UNL     1      -2.785  14.395  22.208  0.00  0.00    +0.000 A 
ATOM     19  C   UNL     1      -1.880  13.651  21.442  0.00  0.00    +0.000 A 
ATOM     20  C   UNL     1      -2.376  12.918  20.376  0.00  0.00    +0.000 A 
ATOM     21  H   UNL     1      -4.915  12.009  18.570  0.00  0.00    +0.000 HD
ENDROOT
BRANCH   3  22
ATOM     22  C   UNL     1       2.842   6.686  19.360  0.00  0.00    +0.000 C 
ATOM     23  C   UNL     1       3.206   5.727  18.188  0.00  0.00    +0.000 C 
ATOM     24  C   UNL     1       4.021   4.514  18.700  0.00  0.00    +0.000 C 
ATOM     25  C   UNL     1       3.303   3.886  19.832  0.00  0.00    +0.000 A 
ATOM     26  C   UNL     1       3.308   2.580  20.355  0.00  0.00    +0.000 A 
ATOM     27  N   UNL     1       2.453   2.445  21.374  0.00  0.00    +0.000 NA
ATOM     28  N   UNL     1       1.893   3.666  21.498  0.00  0.00    +0.000 N 
ATOM     29  C   UNL     1       2.392   4.568  20.605  0.00  0.00    +0.000 A 
ATOM     30  C   UNL     1       1.958   5.984  20.436  0.00  0.00    +0.000 C 
ATOM     31  H   UNL     1       1.174   3.798  22.201  0.00  0.00    +0.000 HD
ENDBRANCH   3  22
TORSDOF 1
ENDMDL
MODEL 3
REMARK VINA RESULT:      -8.5      1.187      1.482
REMARK  Name = 
REMARK  2 active torsions:
REMARK  status: ('A' for Active; 'I' for Inactive)
REMARK    1  A    between atoms: C_1  and  N_2
REMARK    2  A    between atoms: C_3  and  C_4
REMARK                            x       y       z     vdW  Elec       q    Type
REMARK                         _______ _______ _______ _____ _____    ______ ____
ROOT
ATOM      1  C   UNL     1       1.276   7.571  20.169  0.00  0.00    +0.000 C 
ATOM      2  N   UNL     1       1.826   8.176  18.986  0.00  0.00    +0.000 N 
ATOM      3  C   UNL     1       2.558   7.589  17.974  0.00  0.00    +0.000 A 
ATOM      4  N   UNL     1       2.800   8.508  17.063  0.00  0.00    +0.000 NA
ATOM      5  N   UNL     1       2.292   9.711  17.513  0.00  0.00    +0.000 NA
ATOM      6  C   UNL     1       1.709   9.514  18.669  0.00  0.00    +0.000 A 
ATOM      7  N   UNL     1       1.164  10.402  19.554  0.00  0.00    +0.000 N 
ATOM      8  C   UNL     1       1.591  11.795  19.501  0.00  0.00    +0.000 C 
ATOM      9  C   UNL     1       0.329  12.642  19.493  0.00  0.00    +0.000 C 
ATOM     10  C   UNL     1      -0.815  11.721  19.904  0.00  0.00    +0.000 C 
ATOM     11  C   UNL     1      -0.251  10.302  19.930  0.00  0.00    +0.000 C 
ATOM     12  C   UNL     1      -1.965  11.801  18.873  0.00  0.00    +0.000 C 
ATOM     13  O   UNL     1      -1.920  11.521  17.681  0.00  0.00    +0.000 OA
ATOM     14  N   UNL     1      -3.092  12.273  19.526  0.00  0.00    +0.000 N 
ATOM     15  C   UNL     1      -2.842  12.500  20.864  0.00  0.00    +0.000 A 
ATOM     16  C   UNL     1      -3.729  13.000  21.799  0.00  0.00    +0.000 A 
ATOM     17  C   UNL     1      -3.252  13.180  23.098  0.00  0.00    +0.000 A 
ATOM     18  C   UNL     1      -1.923  12.853  23.424  0.00  0.00    +0.000 A 
ATOM     19  C   UNL     1      -1.045  12.344  22.459  0.00  0.00    +0.000 A 
ATOM     20  C   UNL     1      -1.522  12.173  21.169  0.00  0.00    +0.000 A 
ATOM     21  H   UNL     1      -3.967  12.439  19.051  0.00  0.00    +0.000 HD
ENDROOT
BRANCH   3  22
ATOM     22  C   UNL     1       2.976   6.140  17.933  0.00  0.00    +0.000 C 
ATOM     23  C   UNL     1       1.754   5.179  18.012  0.00  0.00    +0.000 C 
ATOM     24  C   UNL     1       2.188   3.712  17.773  0.00  0.00    +0.000 C 
ATOM     25  C   UNL     1       3.313   3.382  18.678  0.00  0.00    +0.000 A 
ATOM     26  C   UNL     1       3.778   2.168  19.214  0.00  0.00    +0.000 A 
ATOM     27  N   UNL     1       4.815   2.349  20.039  0.00  0.00    +0.000 NA
ATOM     28  N   UNL     1       5.008   3.684  20.037  0.00  0.00    +0.000 N 
ATOM     29  C   UNL     1       4.141   4.341  19.216  0.00  0.00    +0.000 A 
ATOM     30  C   UNL     1       4.045   5.816  19.021  0.00  0.00    +0.000 C 
ATOM     31  H   UNL     1       5.736   4.067  20.631  0.00  0.00    +0.000 HD
ENDBRANCH   3  22
TORSDOF 1
ENDMDL
MODEL 4
REMARK VINA RESULT:      -8.2      1.416      1.591
REMARK  Name = 
REMARK  2 active torsions:
REMARK  status: ('A' for Active; 'I' for Inactive)
REMARK    1  A    between atoms: C_1  and  N_2
REMARK    2  A    between atoms: C_3  and  C_4
REMARK                            x       y       z     vdW  Elec       q    Type
REMARK                         _______ _______ _______ _____ _____    ______ ____
ROOT
ATOM      1  C   UNL     1       1.050   8.606  21.609  0.00  0.00    +0.000 C 
ATOM      2  N   UNL     1       1.326   8.901  20.229  0.00  0.00    +0.000 N 
ATOM      3  C   UNL     1       1.888   8.088  19.266  0.00  0.00    +0.000 A 
ATOM      4  N   UNL     1       1.894   8.751  18.128  0.00  0.00    +0.000 NA
ATOM      5  N   UNL     1       1.407  10.021  18.363  0.00  0.00    +0.000 NA
ATOM      6  C   UNL     1       1.068  10.114  19.625  0.00  0.00    +0.000 A 
ATOM      7  N   UNL     1       0.646  11.189  20.356  0.00  0.00    +0.000 N 
ATOM      8  C   UNL     1       0.968  12.529  19.881  0.00  0.00    +0.000 C 
ATOM      9  C   UNL     1      -0.323  13.331  19.917  0.00  0.00    +0.000 C 
ATOM     10  C   UNL     1      -1.309  12.528  20.762  0.00  0.00    +0.000 C 
ATOM     11  C   UNL     1      -0.662  11.170  21.020  0.00  0.00    +0.000 C 
ATOM     12  C   UNL     1      -2.636  12.332  19.993  0.00  0.00    +0.000 C 
ATOM     13  O   UNL     1      -2.801  11.761  18.921  0.00  0.00    +0.000 OA
ATOM     14  N   UNL     1      -3.646  12.938  20.723  0.00  0.00    +0.000 N 
ATOM     15  C   UNL     1      -3.161  13.498  21.886  0.00  0.00    +0.000 A 
ATOM     16  C   UNL     1      -3.883  14.206  22.829  0.00  0.00    +0.000 A 
ATOM     17  C   UNL     1      -3.181  14.713  23.923  0.00  0.00    +0.000 A 
ATOM     18  C   UNL     1      -1.796  14.497  24.046  0.00  0.00    +0.000 A 
ATOM     19  C   UNL     1      -1.087  13.772  23.079  0.00  0.00    +0.000 A 
ATOM     20  C   UNL     1      -1.789  13.276  21.992  0.00  0.00    +0.000 A 
ATOM     21  H   UNL     1      -4.604  12.968  20.406  0.00  0.00    +0.000 HD
ENDROOT
BRANCH   3  22
ATOM     22  C   UNL     1       2.380   6.681  19.497  0.00  0.00    +0.000 C 
ATOM     23  C   UNL     1       2.767   5.973  18.165  0.00  0.00    +0.000 C 
ATOM     24  C   UNL     1       3.449   4.611  18.442  0.00  0.00    +0.000 C 
ATOM     25  C   UNL     1       2.599   3.816  19.357  0.00  0.00    +0.000 A 
ATOM     26  C   UNL     1       2.467   2.433  19.573  0.00  0.00    +0.000 A 
ATOM     27  N   UNL     1       1.525   2.154  20.480  0.00  0.00    +0.000 NA
ATOM     28  N   UNL     1       1.046   3.362  20.839  0.00  0.00    +0.000 N 
ATOM     29  C   UNL     1       1.679   4.390  20.204  0.00  0.00    +0.000 A 
ATOM     30  C   UNL     1       1.363   5.842  20.330  0.00  0.00    +0.000 C 
ATOM     31  H   UNL     1       0.284   3.401  21.507  0.00  0.00    +0.000 HD
ENDBRANCH   3  22
TORSDOF 1
ENDMDL
MODEL 5
REMARK VINA RESULT:      -8.1      2.930      4.295
REMARK  Name = 
REMARK  2 active torsions:
REMARK  status: ('A' for Active; 'I' for Inactive)
REMARK    1  A    between atoms: C_1  and  N_2
REMARK    2  A    between atoms: C_3  and  C_4
REMARK                            x       y       z     vdW  Elec       q    Type
REMARK                         _______ _______ _______ _____ _____    ______ ____
ROOT
ATOM      1  C   UNL     1       1.036   9.773  18.527  0.00  0.00    +0.000 C 
ATOM      2  N   UNL     1       1.136   9.484  19.933  0.00  0.00    +0.000 N 
ATOM      3  C   UNL     1       1.411   8.282  20.551  0.00  0.00    +0.000 A 
ATOM      4  N   UNL     1       1.465   8.497  21.849  0.00  0.00    +0.000 NA
ATOM      5  N   UNL     1       1.152   9.821  22.084  0.00  0.00    +0.000 NA
ATOM      6  C   UNL     1       0.952  10.415  20.934  0.00  0.00    +0.000 A 
ATOM      7  N   UNL     1       0.515  11.678  20.649  0.00  0.00    +0.000 N 
ATOM      8  C   UNL     1      -0.240  12.404  21.663  0.00  0.00    +0.000 C 
ATOM      9  C   UNL     1       0.390  13.782  21.780  0.00  0.00    +0.000 C 
ATOM     10  C   UNL     1       1.290  13.953  20.559  0.00  0.00    +0.000 C 
ATOM     11  C   UNL     1       1.351  12.595  19.864  0.00  0.00    +0.000 C 
ATOM     12  C   UNL     1       2.712  14.374  20.997  0.00  0.00    +0.000 C 
ATOM     13  O   UNL     1       3.487  13.752  21.715  0.00  0.00    +0.000 OA
ATOM     14  N   UNL     1       2.978  15.617  20.446  0.00  0.00    +0.000 N 
ATOM     15  C   UNL     1       1.920  16.067  19.684  0.00  0.00    +0.000 A 
ATOM     16  C   UNL     1       1.833  17.276  19.019  0.00  0.00    +0.000 A 
ATOM     17  C   UNL     1       0.650  17.542  18.328  0.00  0.00    +0.000 A 
ATOM     18  C   UNL     1      -0.397  16.602  18.316  0.00  0.00    +0.000 A 
ATOM     19  C   UNL     1      -0.283  15.382  18.994  0.00  0.00    +0.000 A 
ATOM     20  C   UNL     1       0.892  15.125  19.683  0.00  0.00    +0.000 A 
ATOM     21  H   UNL     1       3.840  16.115  20.616  0.00  0.00    +0.000 HD
ENDROOT
BRANCH   3  22
ATOM     22  C   UNL     1       1.628   6.969  19.840  0.00  0.00    +0.000 C 
ATOM     23  C   UNL     1       1.587   5.762  20.823  0.00  0.00    +0.000 C 
ATOM     24  C   UNL     1       1.617   4.420  20.050  0.00  0.00    +0.000 C 
ATOM     25  C   UNL     1       2.755   4.427  19.103  0.00  0.00    +0.000 A 
ATOM     26  C   UNL     1       3.514   3.397  18.520  0.00  0.00    +0.000 A 
ATOM     27  N   UNL     1       4.495   3.874  17.746  0.00  0.00    +0.000 NA
ATOM     28  N   UNL     1       4.368   5.213  17.840  0.00  0.00    +0.000 N 
ATOM     29  C   UNL     1       3.321   5.589  18.629  0.00  0.00    +0.000 A 
ATOM     30  C   UNL     1       2.932   6.983  18.986  0.00  0.00    +0.000 C 
ATOM     31  H   UNL     1       5.039   5.797  17.353  0.00  0.00    +0.000 HD
ENDBRANCH   3  22
TORSDOF 1
ENDMDL
MODEL 6
REMARK VINA RESULT:      -8.0      1.464      1.781
REMARK  Name = 
REMARK  2 active torsions:
REMARK  status: ('A' for Active; 'I' for Inactive)
REMARK    1  A    between atoms: C_1  and  N_2
REMARK    2  A    between atoms: C_3  and  C_4
REMARK                            x       y       z     vdW  Elec       q    Type
REMARK                         _______ _______ _______ _____ _____    ______ ____
ROOT
ATOM      1  C   UNL     1       0.840   8.041  21.070  0.00  0.00    +0.000 C 
ATOM      2  N   UNL     1       1.401   8.373  19.788  0.00  0.00    +0.000 N 
ATOM      3  C   UNL     1       2.002   7.542  18.865  0.00  0.00    +0.000 A 
ATOM      4  N   UNL     1       2.310   8.264  17.808  0.00  0.00    +0.000 NA
ATOM      5  N   UNL     1       1.980   9.579  18.070  0.00  0.00    +0.000 NA
ATOM      6  C   UNL     1       1.437   9.647  19.260  0.00  0.00    +0.000 A 
ATOM      7  N   UNL     1       1.052  10.728  20.002  0.00  0.00    +0.000 N 
ATOM      8  C   UNL     1       1.647  12.026  19.709  0.00  0.00    +0.000 C 
ATOM      9  C   UNL     1       0.502  13.020  19.598  0.00  0.00    +0.000 C 
ATOM     10  C   UNL     1      -0.727  12.335  20.190  0.00  0.00    +0.000 C 
ATOM     11  C   UNL     1      -0.343  10.877  20.431  0.00  0.00    +0.000 C 
ATOM     12  C   UNL     1      -1.908  12.401  19.194  0.00  0.00    +0.000 C 
ATOM     13  O   UNL     1      -1.959  11.931  18.062  0.00  0.00    +0.000 OA
ATOM     14  N   UNL     1      -2.933  13.115  19.794  0.00  0.00    +0.000 N 
ATOM     15  C   UNL     1      -2.589  13.517  21.067  0.00  0.00    +0.000 A 
ATOM     16  C   UNL     1      -3.358  14.271  21.934  0.00  0.00    +0.000 A 
ATOM     17  C   UNL     1      -2.797  14.591  23.171  0.00  0.00    +0.000 A 
ATOM     18  C   UNL     1      -1.504  14.148  23.506  0.00  0.00    +0.000 A 
ATOM     19  C   UNL     1      -0.747  13.381  22.612  0.00  0.00    +0.000 A 
ATOM     20  C   UNL     1      -1.306  13.072  21.383  0.00  0.00    +0.000 A 
ATOM     21  H   UNL     1      -3.803  13.317  19.323  0.00  0.00    +0.000 HD
ENDROOT
BRANCH   3  22
ATOM     22  C   UNL     1       2.233   6.062  19.050  0.00  0.00    +0.000 C 
ATOM     23  C   UNL     1       1.733   5.564  20.438  0.00  0.00    +0.000 C 
ATOM     24  C   UNL     1       1.801   4.020  20.528  0.00  0.00    +0.000 C 
ATOM     25  C   UNL     1       3.158   3.568  20.144  0.00  0.00    +0.000 A 
ATOM     26  C   UNL     1       3.903   2.418  20.461  0.00  0.00    +0.000 A 
ATOM     27  N   UNL     1       5.127   2.449  19.921  0.00  0.00    +0.000 NA
ATOM     28  N   UNL     1       5.167   3.625  19.263  0.00  0.00    +0.000 N 
ATOM     29  C   UNL     1       3.997   4.320  19.353  0.00  0.00    +0.000 A 
ATOM     30  C   UNL     1       3.720   5.673  18.790  0.00  0.00    +0.000 C 
ATOM     31  H   UNL     1       6.027   3.887  18.794  0.00  0.00    +0.000 HD
ENDBRANCH   3  22
TORSDOF 1
ENDMDL
MODEL 7
REMARK VINA RESULT:      -7.7      1.495      1.750
REMARK  Name = 
REMARK  2 active torsions:
REMARK  status: ('A' for Active; 'I' for Inactive)
REMARK    1  A    between atoms: C_1  and  N_2
REMARK    2  A    between atoms: C_3  and  C_4
REMARK                            x       y       z     vdW  Elec       q    Type
REMARK                         _______ _______ _______ _____ _____    ______ ____
ROOT
ATOM      1  C   UNL     1       0.979   8.480  20.773  0.00  0.00    +0.000 C 
ATOM      2  N   UNL     1       1.331   9.043  19.498  0.00  0.00    +0.000 N 
ATOM      3  C   UNL     1       2.012   8.457  18.451  0.00  0.00    +0.000 A 
ATOM      4  N   UNL     1       2.055   9.321  17.459  0.00  0.00    +0.000 NA
ATOM      5  N   UNL     1       1.469  10.498  17.883  0.00  0.00    +0.000 NA
ATOM      6  C   UNL     1       1.036  10.334  19.109  0.00  0.00    +0.000 A 
ATOM      7  N   UNL     1       0.493  11.228  19.988  0.00  0.00    +0.000 N 
ATOM      8  C   UNL     1       0.758  12.649  19.795  0.00  0.00    +0.000 C 
ATOM      9  C   UNL     1      -0.583  13.361  19.873  0.00  0.00    +0.000 C 
ATOM     10  C   UNL     1      -1.570  12.363  20.472  0.00  0.00    +0.000 C 
ATOM     11  C   UNL     1      -0.855  11.015  20.527  0.00  0.00    +0.000 C 
ATOM     12  C   UNL     1      -2.824  12.246  19.574  0.00  0.00    +0.000 C 
ATOM     13  O   UNL     1      -2.874  11.879  18.405  0.00  0.00    +0.000 OA
ATOM     14  N   UNL     1      -3.921  12.650  20.317  0.00  0.00    +0.000 N 
ATOM     15  C   UNL     1      -3.558  13.005  21.600  0.00  0.00    +0.000 A 
ATOM     16  C   UNL     1      -4.390  13.484  22.594  0.00  0.00    +0.000 A 
ATOM     17  C   UNL     1      -3.802  13.812  23.816  0.00  0.00    +0.000 A 
ATOM     18  C   UNL     1      -2.418  13.648  24.010  0.00  0.00    +0.000 A 
ATOM     19  C   UNL     1      -1.596  13.157  22.988  0.00  0.00    +0.000 A 
ATOM     20  C   UNL     1      -2.185  12.839  21.774  0.00  0.00    +0.000 A 
ATOM     21  H   UNL     1      -4.854  12.689  19.934  0.00  0.00    +0.000 HD
ENDROOT
BRANCH   3  22
ATOM     22  C   UNL     1       2.580   7.059  18.460  0.00  0.00    +0.000 C 
ATOM     23  C   UNL     1       2.561   6.432  19.885  0.00  0.00    +0.000 C 
ATOM     24  C   UNL     1       2.964   4.937  19.835  0.00  0.00    +0.000 C 
ATOM     25  C   UNL     1       4.242   4.800  19.099  0.00  0.00    +0.000 A 
ATOM     26  C   UNL     1       5.261   3.832  19.136  0.00  0.00    +0.000 A 
ATOM     27  N   UNL     1       6.275   4.141  18.319  0.00  0.00    +0.000 NA
ATOM     28  N   UNL     1       5.906   5.313  17.765  0.00  0.00    +0.000 N 
ATOM     29  C   UNL     1       4.680   5.735  18.190  0.00  0.00    +0.000 A 
ATOM     30  C   UNL     1       4.000   7.008  17.817  0.00  0.00    +0.000 C 
ATOM     31  H   UNL     1       6.547   5.766  17.123  0.00  0.00    +0.000 HD
ENDBRANCH   3  22
TORSDOF 1
ENDMDL
MODEL 8
REMARK VINA RESULT:      -7.4      2.580      4.055
REMARK  Name = 
REMARK  2 active torsions:
REMARK  status: ('A' for Active; 'I' for Inactive)
REMARK    1  A    between atoms: C_1  and  N_2
REMARK    2  A    between atoms: C_3  and  C_4
REMARK                            x       y       z     vdW  Elec       q    Type
REMARK                         _______ _______ _______ _____ _____    ______ ____
ROOT
ATOM      1  C   UNL     1       1.236  11.852  21.198  0.00  0.00    +0.000 C 
ATOM      2  N   UNL     1       0.175  11.343  20.372  0.00  0.00    +0.000 N 
ATOM      3  C   UNL     1       0.175  10.237  19.548  0.00  0.00    +0.000 A 
ATOM      4  N   UNL     1      -1.031  10.115  19.033  0.00  0.00    +0.000 NA
ATOM      5  N   UNL     1      -1.796  11.182  19.459  0.00  0.00    +0.000 NA
ATOM      6  C   UNL     1      -1.072  11.922  20.262  0.00  0.00    +0.000 A 
ATOM      7  N   UNL     1      -1.342  13.129  20.844  0.00  0.00    +0.000 N 
ATOM      8  C   UNL     1      -2.359  13.984  20.244  0.00  0.00    +0.000 C 
ATOM      9  C   UNL     1      -3.284  14.424  21.368  0.00  0.00    +0.000 C 
ATOM     10  C   UNL     1      -2.565  14.096  22.674  0.00  0.00    +0.000 C 
ATOM     11  C   UNL     1      -1.336  13.269  22.304  0.00  0.00    +0.000 C 
ATOM     12  C   UNL     1      -3.488  13.267  23.599  0.00  0.00    +0.000 C 
ATOM     13  O   UNL     1      -3.977  12.166  23.373  0.00  0.00    +0.000 OA
ATOM     14  N   UNL     1      -3.696  13.997  24.758  0.00  0.00    +0.000 N 
ATOM     15  C   UNL     1      -3.017  15.197  24.727  0.00  0.00    +0.000 A 
ATOM     16  C   UNL     1      -3.028  16.179  25.700  0.00  0.00    +0.000 A 
ATOM     17  C   UNL     1      -2.288  17.336  25.448  0.00  0.00    +0.000 A 
ATOM     18  C   UNL     1      -1.561  17.472  24.250  0.00  0.00    +0.000 A 
ATOM     19  C   UNL     1      -1.563  16.460  23.283  0.00  0.00    +0.000 A 
ATOM     20  C   UNL     1      -2.305  15.317  23.535  0.00  0.00    +0.000 A 
ATOM     21  H   UNL     1      -4.293  13.673  25.505  0.00  0.00    +0.000 HD
ENDROOT
BRANCH   3  22
ATOM     22  C   UNL     1       1.356   9.329  19.313  0.00  0.00    +0.000 C 
ATOM     23  C   UNL     1       1.458   8.879  17.825  0.00  0.00    +0.000 C 
ATOM     24  C   UNL     1       2.780   8.113  17.569  0.00  0.00    +0.000 C 
ATOM     25  C   UNL     1       2.917   7.029  18.569  0.00  0.00    +0.000 A 
ATOM     26  C   UNL     1       3.608   5.805  18.556  0.00  0.00    +0.000 A 
ATOM     27  N   UNL     1       3.411   5.106  19.679  0.00  0.00    +0.000 NA
ATOM     28  N   UNL     1       2.585   5.882  20.408  0.00  0.00    +0.000 N 
ATOM     29  C   UNL     1       2.280   7.057  19.788  0.00  0.00    +0.000 A 
ATOM     30  C   UNL     1       1.356   8.115  20.291  0.00  0.00    +0.000 C 
ATOM     31  H   UNL     1       2.264   5.535  21.306  0.00  0.00    +0.000 HD
ENDBRANCH   3  22
TORSDOF 1
ENDMDL
MODEL 9
REMARK VINA RESULT:      -7.3      2.685      3.752
REMARK  Name = 
REMARK  2 active torsions:
REMARK  status: ('A' for Active; 'I' for Inactive)
REMARK    1  A    between atoms: C_1  and  N_2
REMARK    2  A    between atoms: C_3  and  C_4
REMARK                            x       y       z     vdW  Elec       q    Type
REMARK                         _______ _______ _______ _____ _____    ______ ____
ROOT
ATOM      1  C   UNL     1      -0.456  10.006  19.256  0.00  0.00    +0.000 C 
ATOM      2  N   UNL     1       0.212   9.695  20.491  0.00  0.00    +0.000 N 
ATOM      3  C   UNL     1       1.067   8.650  20.773  0.00  0.00    +0.000 A 
ATOM      4  N   UNL     1       1.488   8.793  22.012  0.00  0.00    +0.000 NA
ATOM      5  N   UNL     1       0.852   9.887  22.564  0.00  0.00    +0.000 NA
ATOM      6  C   UNL     1       0.082  10.428  21.653  0.00  0.00    +0.000 A 
ATOM      7  N   UNL     1      -0.821  11.450  21.744  0.00  0.00    +0.000 N 
ATOM      8  C   UNL     1      -1.378  11.778  23.050  0.00  0.00    +0.000 C 
ATOM      9  C   UNL     1      -1.246  13.283  23.220  0.00  0.00    +0.000 C 
ATOM     10  C   UNL     1      -0.933  13.850  21.838  0.00  0.00    +0.000 C 
ATOM     11  C   UNL     1      -0.664  12.657  20.924  0.00  0.00    +0.000 C 
ATOM     12  C   UNL     1       0.325  14.748  21.900  0.00  0.00    +0.000 C 
ATOM     13  O   UNL     1       1.460  14.422  22.230  0.00  0.00    +0.000 OA
ATOM     14  N   UNL     1      -0.047  16.030  21.528  0.00  0.00    +0.000 N 
ATOM     15  C   UNL     1      -1.388  16.094  21.211  0.00  0.00    +0.000 A 
ATOM     16  C   UNL     1      -2.096  17.218  20.831  0.00  0.00    +0.000 A 
ATOM     17  C   UNL     1      -3.461  17.060  20.585  0.00  0.00    +0.000 A 
ATOM     18  C   UNL     1      -4.069  15.798  20.716  0.00  0.00    +0.000 A 
ATOM     19  C   UNL     1      -3.328  14.673  21.097  0.00  0.00    +0.000 A 
ATOM     20  C   UNL     1      -1.975  14.837  21.347  0.00  0.00    +0.000 A 
ATOM     21  H   UNL     1       0.601  16.804  21.520  0.00  0.00    +0.000 HD
ENDROOT
BRANCH   3  22
ATOM     22  C   UNL     1       1.452   7.558  19.805  0.00  0.00    +0.000 C 
ATOM     23  C   UNL     1       1.881   6.254  20.540  0.00  0.00    +0.000 C 
ATOM     24  C   UNL     1       2.082   5.095  19.533  0.00  0.00    +0.000 C 
ATOM     25  C   UNL     1       2.991   5.539  18.452  0.00  0.00    +0.000 A 
ATOM     26  C   UNL     1       3.850   4.843  17.584  0.00  0.00    +0.000 A 
ATOM     27  N   UNL     1       4.529   5.669  16.781  0.00  0.00    +0.000 NA
ATOM     28  N   UNL     1       4.109   6.898  17.142  0.00  0.00    +0.000 N 
ATOM     29  C   UNL     1       3.168   6.865  18.128  0.00  0.00    +0.000 A 
ATOM     30  C   UNL     1       2.534   8.041  18.792  0.00  0.00    +0.000 C 
ATOM     31  H   UNL     1       4.521   7.703  16.682  0.00  0.00    +0.000 HD
ENDBRANCH   3  22
TORSDOF 1
ENDMDL
