MODEL 1
REMARK VINA RESULT:      -8.9      0.000      0.000
REMARK  Name = 
REMARK  7 active torsions:
REMARK  status: ('A' for Active; 'I' for Inactive)
REMARK    1  A    between atoms: C_1  and  C_2
REMARK    2  A    between atoms: C_4  and  C_5
REMARK    3  A    between atoms: N_14  and  C_15
REMARK    4  A    between atoms: C_19  and  C_20
REMARK    5  A    between atoms: C_20  and  C_21
REMARK    6  A    between atoms: C_21  and  C_22
REMARK    7  A    between atoms: N_26  and  C_27
REMARK                            x       y       z     vdW  Elec       q    Type
REMARK                         _______ _______ _______ _____ _____    ______ ____
ROOT
ATOM      1  C   UNL     1       1.069   8.890  20.443  0.00  0.00    +0.000 A 
ATOM      2  C   UNL     1       0.911   9.019  21.829  0.00  0.00    +0.000 A 
ATOM      3  C   UNL     1       0.231  10.090  22.395  0.00  0.00    +0.000 A 
ATOM      4  C   UNL     1      -0.335  11.049  21.570  0.00  0.00    +0.000 A 
ATOM      5  C   UNL     1      -0.243  10.964  20.166  0.00  0.00    +0.000 A 
ATOM      6  C   UNL     1       0.516   9.893  19.630  0.00  0.00    +0.000 A 
ENDROOT
BRANCH   1  16
ATOM      7  C   UNL     1       5.174   4.261  16.391  0.00  0.00    +0.000 C 
ATOM      8  C   UNL     1       4.309   4.733  17.522  0.00  0.00    +0.000 A 
ATOM      9  C   UNL     1       3.950   3.887  18.594  0.00  0.00    +0.000 A 
ATOM     10  C   UNL     1       3.149   4.323  19.680  0.00  0.00    +0.000 A 
ATOM     11  C   UNL     1       2.676   5.633  19.629  0.00  0.00    +0.000 A 
ATOM     12  C   UNL     1       3.035   6.441  18.553  0.00  0.00    +0.000 A 
ATOM     13  C   UNL     1       3.845   6.042  17.508  0.00  0.00    +0.000 A 
ATOM     14  C   UNL     1       2.423   7.751  18.693  0.00  0.00    +0.000 C 
ATOM     15  O   UNL     1       2.572   8.607  17.846  0.00  0.00    +0.000 OA
ATOM     16  N   UNL     1       1.709   7.747  19.891  0.00  0.00    +0.000 N 
ATOM     17  C   UNL     1       1.805   6.443  20.554  0.00  0.00    +0.000 C 
BRANCH  10  18
ATOM     18  C   UNL     1       2.775   3.401  20.764  0.00  0.00    +0.000 C 
ATOM     19  C   UNL     1       1.545   2.931  21.015  0.00  0.00    +0.000 C 
ATOM     20  F   UNL     1       0.488   3.252  20.239  0.00  0.00    +0.000 F 
ATOM     21  F   UNL     1       1.355   2.119  22.077  0.00  0.00    +0.000 F 
ENDBRANCH  10  18
ENDBRANCH   1  16
BRANCH   5  22
ATOM     22  C   UNL     1      -1.095  11.961  19.249  0.00  0.00    +0.000 C 
ATOM     23  C   UNL     1      -2.625  11.945  19.573  0.00  0.00    +0.000 C 
ATOM     24  O   UNL     1      -2.947  11.958  18.162  0.00  0.00    +0.000 OA
ATOM     25  C   UNL     1      -1.610  11.456  17.871  0.00  0.00    +0.000 C 
BRANCH  22  26
ATOM     26  C   UNL     1      -0.539  13.396  19.238  0.00  0.00    +0.000 C 
BRANCH  26  27
ATOM     27  C   UNL     1       0.948  13.486  19.166  0.00  0.00    +0.000 A 
ATOM     28  N   UNL     1       1.692  13.206  18.113  0.00  0.00    +0.000 NA
ATOM     29  N   UNL     1       2.997  13.523  18.408  0.00  0.00    +0.000 NA
ATOM     30  C   UNL     1       3.025  13.986  19.635  0.00  0.00    +0.000 A 
ATOM     31  N   UNL     1       1.770  13.958  20.160  0.00  0.00    +0.000 N 
ATOM     32  C   UNL     1       1.416  14.362  21.494  0.00  0.00    +0.000 C 
ENDBRANCH  26  27
ENDBRANCH  22  26
ENDBRANCH   5  22
TORSDOF 5
ENDMDL
MODEL 2
REMARK VINA RESULT:      -8.9      0.747      1.145
REMARK  Name = 
REMARK  7 active torsions:
REMARK  status: ('A' for Active; 'I' for Inactive)
REMARK    1  A    between atoms: C_1  and  C_2
REMARK    2  A    between atoms: C_4  and  C_5
REMARK    3  A    between atoms: N_14  and  C_15
REMARK    4  A    between atoms: C_19  and  C_20
REMARK    5  A    between atoms: C_20  and  C_21
REMARK    6  A    between atoms: C_21  and  C_22
REMARK    7  A    between atoms: N_26  and  C_27
REMARK                            x       y       z     vdW  Elec       q    Type
REMARK                         _______ _______ _______ _____ _____    ______ ____
ROOT
ATOM      1  C   UNL     1       1.029   8.996  20.290  0.00  0.00    +0.000 A 
ATOM      2  C   UNL     1       1.011   9.278  21.663  0.00  0.00    +0.000 A 
ATOM      3  C   UNL     1       0.327  10.371  22.180  0.00  0.00    +0.000 A 
ATOM      4  C   UNL     1      -0.385  11.195  21.324  0.00  0.00    +0.000 A 
ATOM      5  C   UNL     1      -0.439  10.952  19.936  0.00  0.00    +0.000 A 
ATOM      6  C   UNL     1       0.328   9.867  19.440  0.00  0.00    +0.000 A 
ENDROOT
BRANCH   1  16
ATOM      7  C   UNL     1       5.232   4.212  16.530  0.00  0.00    +0.000 C 
ATOM      8  C   UNL     1       4.336   4.727  17.617  0.00  0.00    +0.000 A 
ATOM      9  C   UNL     1       3.942   3.921  18.708  0.00  0.00    +0.000 A 
ATOM     10  C   UNL     1       3.111   4.399  19.753  0.00  0.00    +0.000 A 
ATOM     11  C   UNL     1       2.646   5.707  19.642  0.00  0.00    +0.000 A 
ATOM     12  C   UNL     1       3.039   6.475  18.548  0.00  0.00    +0.000 A 
ATOM     13  C   UNL     1       3.878   6.036  17.543  0.00  0.00    +0.000 A 
ATOM     14  C   UNL     1       2.429   7.791  18.623  0.00  0.00    +0.000 C 
ATOM     15  O   UNL     1       2.606   8.615  17.750  0.00  0.00    +0.000 OA
ATOM     16  N   UNL     1       1.680   7.833  19.799  0.00  0.00    +0.000 N 
ATOM     17  C   UNL     1       1.751   6.553  20.511  0.00  0.00    +0.000 C 
BRANCH  10  18
ATOM     18  C   UNL     1       2.702   3.517  20.858  0.00  0.00    +0.000 C 
ATOM     19  C   UNL     1       1.473   3.019  21.060  0.00  0.00    +0.000 C 
ATOM     20  F   UNL     1       0.456   3.267  20.209  0.00  0.00    +0.000 F 
ATOM     21  F   UNL     1       1.246   2.253  22.148  0.00  0.00    +0.000 F 
ENDBRANCH  10  18
ENDBRANCH   1  16
BRANCH   5  22
ATOM     22  C   UNL     1      -1.446  11.788  19.018  0.00  0.00    +0.000 C 
ATOM     23  C   UNL     1      -2.660  12.378  19.808  0.00  0.00    +0.000 C 
ATOM     24  O   UNL     1      -3.565  12.005  18.742  0.00  0.00    +0.000 OA
ATOM     25  C   UNL     1      -2.586  11.033  18.276  0.00  0.00    +0.000 C 
BRANCH  22  26
ATOM     26  C   UNL     1      -0.745  12.870  18.180  0.00  0.00    +0.000 C 
BRANCH  26  27
ATOM     27  C   UNL     1       0.187  13.746  18.949  0.00  0.00    +0.000 A 
ATOM     28  N   UNL     1      -0.163  14.701  19.788  0.00  0.00    +0.000 NA
ATOM     29  N   UNL     1       0.976  15.196  20.380  0.00  0.00    +0.000 NA
ATOM     30  C   UNL     1       1.997  14.537  19.889  0.00  0.00    +0.000 A 
ATOM     31  N   UNL     1       1.555  13.636  18.969  0.00  0.00    +0.000 N 
ATOM     32  C   UNL     1       2.391  12.753  18.200  0.00  0.00    +0.000 C 
ENDBRANCH  26  27
ENDBRANCH  22  26
ENDBRANCH   5  22
TORSDOF 5
ENDMDL
MODEL 3
REMARK VINA RESULT:      -8.7      2.125      3.276
REMARK  Name = 
REMARK  7 active torsions:
REMARK  status: ('A' for Active; 'I' for Inactive)
REMARK    1  A    between atoms: C_1  and  C_2
REMARK    2  A    between atoms: C_4  and  C_5
REMARK    3  A    between atoms: N_14  and  C_15
REMARK    4  A    between atoms: C_19  and  C_20
REMARK    5  A    between atoms: C_20  and  C_21
REMARK    6  A    between atoms: C_21  and  C_22
REMARK    7  A    between atoms: N_26  and  C_27
REMARK                            x       y       z     vdW  Elec       q    Type
REMARK                         _______ _______ _______ _____ _____    ______ ____
ROOT
ATOM      1  C   UNL     1       1.223   8.768  20.335  0.00  0.00    +0.000 A 
ATOM      2  C   UNL     1       0.963   8.885  21.707  0.00  0.00    +0.000 A 
ATOM      3  C   UNL     1       0.318   9.993  22.241  0.00  0.00    +0.000 A 
ATOM      4  C   UNL     1      -0.109  11.004  21.396  0.00  0.00    +0.000 A 
ATOM      5  C   UNL     1       0.090  10.937  20.002  0.00  0.00    +0.000 A 
ATOM      6  C   UNL     1       0.812   9.822  19.504  0.00  0.00    +0.000 A 
ENDROOT
BRANCH   1  16
ATOM      7  C   UNL     1       5.142   3.904  16.375  0.00  0.00    +0.000 C 
ATOM      8  C   UNL     1       4.305   4.434  17.501  0.00  0.00    +0.000 A 
ATOM      9  C   UNL     1       3.933   3.630  18.601  0.00  0.00    +0.000 A 
ATOM     10  C   UNL     1       3.159   4.121  19.682  0.00  0.00    +0.000 A 
ATOM     11  C   UNL     1       2.724   5.442  19.599  0.00  0.00    +0.000 A 
ATOM     12  C   UNL     1       3.093   6.208  18.496  0.00  0.00    +0.000 A 
ATOM     13  C   UNL     1       3.879   5.755  17.454  0.00  0.00    +0.000 A 
ATOM     14  C   UNL     1       2.523   7.539  18.604  0.00  0.00    +0.000 C 
ATOM     15  O   UNL     1       2.686   8.366  17.730  0.00  0.00    +0.000 OA
ATOM     16  N   UNL     1       1.823   7.592  19.810  0.00  0.00    +0.000 N 
ATOM     17  C   UNL     1       1.889   6.305  20.509  0.00  0.00    +0.000 C 
BRANCH  10  18
ATOM     18  C   UNL     1       2.771   3.242  20.797  0.00  0.00    +0.000 C 
ATOM     19  C   UNL     1       1.526   2.844  21.095  0.00  0.00    +0.000 C 
ATOM     20  F   UNL     1       0.464   3.205  20.344  0.00  0.00    +0.000 F 
ATOM     21  F   UNL     1       1.327   2.065  22.180  0.00  0.00    +0.000 F 
ENDBRANCH  10  18
ENDBRANCH   1  16
BRANCH   5  22
ATOM     22  C   UNL     1      -0.611  12.009  19.043  0.00  0.00    +0.000 C 
ATOM     23  C   UNL     1       0.374  13.099  18.508  0.00  0.00    +0.000 C 
ATOM     24  O   UNL     1      -0.610  14.135  18.739  0.00  0.00    +0.000 OA
ATOM     25  C   UNL     1      -1.287  13.256  19.682  0.00  0.00    +0.000 C 
BRANCH  22  26
ATOM     26  C   UNL     1      -1.410  11.365  17.897  0.00  0.00    +0.000 C 
BRANCH  26  27
ATOM     27  C   UNL     1      -2.891  11.515  18.011  0.00  0.00    +0.000 A 
ATOM     28  N   UNL     1      -3.555  11.846  19.101  0.00  0.00    +0.000 NA
ATOM     29  N   UNL     1      -4.882  11.992  18.772  0.00  0.00    +0.000 NA
ATOM     30  C   UNL     1      -5.003  11.744  17.490  0.00  0.00    +0.000 A 
ATOM     31  N   UNL     1      -3.787  11.415  16.975  0.00  0.00    +0.000 N 
ATOM     32  C   UNL     1      -3.532  11.052  15.607  0.00  0.00    +0.000 C 
ENDBRANCH  26  27
ENDBRANCH  22  26
ENDBRANCH   5  22
TORSDOF 5
ENDMDL
MODEL 4
REMARK VINA RESULT:      -8.7      2.037      3.096
REMARK  Name = 
REMARK  7 active torsions:
REMARK  status: ('A' for Active; 'I' for Inactive)
REMARK    1  A    between atoms: C_1  and  C_2
REMARK    2  A    between atoms: C_4  and  C_5
REMARK    3  A    between atoms: N_14  and  C_15
REMARK    4  A    between atoms: C_19  and  C_20
REMARK    5  A    between atoms: C_20  and  C_21
REMARK    6  A    between atoms: C_21  and  C_22
REMARK    7  A    between atoms: N_26  and  C_27
REMARK                            x       y       z     vdW  Elec       q    Type
REMARK                         _______ _______ _______ _____ _____    ______ ____
ROOT
ATOM      1  C   UNL     1       0.830   9.256  20.680  0.00  0.00    +0.000 A 
ATOM      2  C   UNL     1       0.160   9.144  21.906  0.00  0.00    +0.000 A 
ATOM      3  C   UNL     1      -0.527  10.211  22.469  0.00  0.00    +0.000 A 
ATOM      4  C   UNL     1      -0.581  11.419  21.792  0.00  0.00    +0.000 A 
ATOM      5  C   UNL     1       0.042  11.593  20.539  0.00  0.00    +0.000 A 
ATOM      6  C   UNL     1       0.790  10.500  20.030  0.00  0.00    +0.000 A 
ENDROOT
BRANCH   1  16
ATOM      7  C   UNL     1       4.887   4.722  16.475  0.00  0.00    +0.000 C 
ATOM      8  C   UNL     1       4.039   5.170  17.629  0.00  0.00    +0.000 A 
ATOM      9  C   UNL     1       3.701   4.302  18.691  0.00  0.00    +0.000 A 
ATOM     10  C   UNL     1       2.917   4.714  19.798  0.00  0.00    +0.000 A 
ATOM     11  C   UNL     1       2.438   6.022  19.779  0.00  0.00    +0.000 A 
ATOM     12  C   UNL     1       2.774   6.852  18.713  0.00  0.00    +0.000 A 
ATOM     13  C   UNL     1       3.569   6.476  17.647  0.00  0.00    +0.000 A 
ATOM     14  C   UNL     1       2.160   8.156  18.887  0.00  0.00    +0.000 C 
ATOM     15  O   UNL     1       2.290   9.028  18.053  0.00  0.00    +0.000 OA
ATOM     16  N   UNL     1       1.466   8.127  20.097  0.00  0.00    +0.000 N 
ATOM     17  C   UNL     1       1.579   6.812  20.734  0.00  0.00    +0.000 C 
BRANCH  10  18
ATOM     18  C   UNL     1       2.566   3.770  20.871  0.00  0.00    +0.000 C 
ATOM     19  C   UNL     1       1.382   3.162  21.034  0.00  0.00    +0.000 C 
ATOM     20  F   UNL     1       0.362   3.344  20.169  0.00  0.00    +0.000 F 
ATOM     21  F   UNL     1       1.202   2.350  22.097  0.00  0.00    +0.000 F 
ENDBRANCH  10  18
ENDBRANCH   1  16
BRANCH   5  22
ATOM     22  C   UNL     1      -0.230  12.922  19.690  0.00  0.00    +0.000 C 
ATOM     23  C   UNL     1       1.043  13.810  19.506  0.00  0.00    +0.000 C 
ATOM     24  O   UNL     1       0.273  15.008  19.767  0.00  0.00    +0.000 OA
ATOM     25  C   UNL     1      -0.735  14.193  20.432  0.00  0.00    +0.000 C 
BRANCH  22  26
ATOM     26  C   UNL     1      -0.923  12.649  18.344  0.00  0.00    +0.000 C 
BRANCH  26  27
ATOM     27  C   UNL     1      -2.233  11.943  18.450  0.00  0.00    +0.000 A 
ATOM     28  N   UNL     1      -3.301  12.382  19.087  0.00  0.00    +0.000 NA
ATOM     29  N   UNL     1      -4.335  11.505  18.856  0.00  0.00    +0.000 NA
ATOM     30  C   UNL     1      -3.876  10.546  18.088  0.00  0.00    +0.000 A 
ATOM     31  N   UNL     1      -2.558  10.763  17.828  0.00  0.00    +0.000 N 
ATOM     32  C   UNL     1      -1.712   9.905  17.042  0.00  0.00    +0.000 C 
ENDBRANCH  26  27
ENDBRANCH  22  26
ENDBRANCH   5  22
TORSDOF 5
ENDMDL
MODEL 5
REMARK VINA RESULT:      -8.7      3.414      8.583
REMARK  Name = 
REMARK  7 active torsions:
REMARK  status: ('A' for Active; 'I' for Inactive)
REMARK    1  A    between atoms: C_1  and  C_2
REMARK    2  A    between atoms: C_4  and  C_5
REMARK    3  A    between atoms: N_14  and  C_15
REMARK    4  A    between atoms: C_19  and  C_20
REMARK    5  A    between atoms: C_20  and  C_21
REMARK    6  A    between atoms: C_21  and  C_22
REMARK    7  A    between atoms: N_26  and  C_27
REMARK                            x       y       z     vdW  Elec       q    Type
REMARK                         _______ _______ _______ _____ _____    ______ ____
ROOT
ATOM      1  C   UNL     1       2.000   8.219  18.866  0.00  0.00    +0.000 A 
ATOM      2  C   UNL     1       2.745   8.624  17.750  0.00  0.00    +0.000 A 
ATOM      3  C   UNL     1       3.660   7.783  17.132  0.00  0.00    +0.000 A 
ATOM      4  C   UNL     1       3.827   6.492  17.608  0.00  0.00    +0.000 A 
ATOM      5  C   UNL     1       3.086   6.006  18.705  0.00  0.00    +0.000 A 
ATOM      6  C   UNL     1       2.212   6.918  19.350  0.00  0.00    +0.000 A 
ENDROOT
BRANCH   1  16
ATOM      7  C   UNL     1      -1.972  12.518  23.386  0.00  0.00    +0.000 C 
ATOM      8  C   UNL     1      -1.515  11.889  22.104  0.00  0.00    +0.000 A 
ATOM      9  C   UNL     1      -2.104  12.210  20.860  0.00  0.00    +0.000 A 
ATOM     10  C   UNL     1      -1.670  11.639  19.637  0.00  0.00    +0.000 A 
ATOM     11  C   UNL     1      -0.651  10.691  19.709  0.00  0.00    +0.000 A 
ATOM     12  C   UNL     1      -0.099  10.384  20.949  0.00  0.00    +0.000 A 
ATOM     13  C   UNL     1      -0.484  10.960  22.144  0.00  0.00    +0.000 A 
ATOM     14  C   UNL     1       0.927   9.368  20.796  0.00  0.00    +0.000 C 
ATOM     15  O   UNL     1       1.518   8.921  21.757  0.00  0.00    +0.000 OA
ATOM     16  N   UNL     1       1.022   9.079  19.434  0.00  0.00    +0.000 N 
ATOM     17  C   UNL     1       0.054   9.866  18.664  0.00  0.00    +0.000 C 
BRANCH  10  18
ATOM     18  C   UNL     1      -2.329  11.982  18.366  0.00  0.00    +0.000 C 
ATOM     19  C   UNL     1      -3.115  11.174  17.640  0.00  0.00    +0.000 C 
ATOM     20  F   UNL     1      -3.416   9.922  18.042  0.00  0.00    +0.000 F 
ATOM     21  F   UNL     1      -3.616  11.624  16.469  0.00  0.00    +0.000 F 
ENDBRANCH  10  18
ENDBRANCH   1  16
BRANCH   5  22
ATOM     22  C   UNL     1       3.143   4.452  19.081  0.00  0.00    +0.000 C 
ATOM     23  C   UNL     1       1.809   3.694  18.780  0.00  0.00    +0.000 C 
ATOM     24  O   UNL     1       1.903   2.985  20.039  0.00  0.00    +0.000 OA
ATOM     25  C   UNL     1       2.799   4.020  20.535  0.00  0.00    +0.000 C 
BRANCH  22  26
ATOM     26  C   UNL     1       4.352   3.725  18.466  0.00  0.00    +0.000 C 
BRANCH  26  27
ATOM     27  C   UNL     1       5.658   4.420  18.658  0.00  0.00    +0.000 A 
ATOM     28  N   UNL     1       6.136   4.872  19.801  0.00  0.00    +0.000 NA
ATOM     29  N   UNL     1       7.410   5.341  19.583  0.00  0.00    +0.000 NA
ATOM     30  C   UNL     1       7.684   5.169  18.312  0.00  0.00    +0.000 A 
ATOM     31  N   UNL     1       6.608   4.619  17.686  0.00  0.00    +0.000 N 
ATOM     32  C   UNL     1       6.527   4.314  16.283  0.00  0.00    +0.000 C 
ENDBRANCH  26  27
ENDBRANCH  22  26
ENDBRANCH   5  22
TORSDOF 5
ENDMDL
MODEL 6
REMARK VINA RESULT:      -8.7      4.313      9.082
REMARK  Name = 
REMARK  7 active torsions:
REMARK  status: ('A' for Active; 'I' for Inactive)
REMARK    1  A    between atoms: C_1  and  C_2
REMARK    2  A    between atoms: C_4  and  C_5
REMARK    3  A    between atoms: N_14  and  C_15
REMARK    4  A    between atoms: C_19  and  C_20
REMARK    5  A    between atoms: C_20  and  C_21
REMARK    6  A    between atoms: C_21  and  C_22
REMARK    7  A    between atoms: N_26  and  C_27
REMARK                            x       y       z     vdW  Elec       q    Type
REMARK                         _______ _______ _______ _____ _____    ______ ____
ROOT
ATOM      1  C   UNL     1       2.780   6.342  18.230  0.00  0.00    +0.000 A 
ATOM      2  C   UNL     1       2.147   5.132  17.917  0.00  0.00    +0.000 A 
ATOM      3  C   UNL     1       2.822   4.088  17.298  0.00  0.00    +0.000 A 
ATOM      4  C   UNL     1       4.168   4.228  17.002  0.00  0.00    +0.000 A 
ATOM      5  C   UNL     1       4.877   5.406  17.319  0.00  0.00    +0.000 A 
ATOM      6  C   UNL     1       4.136   6.473  17.889  0.00  0.00    +0.000 A 
ENDROOT
BRANCH   1  16
ATOM      7  C   UNL     1      -0.685  10.430  23.326  0.00  0.00    +0.000 C 
ATOM      8  C   UNL     1      -0.012  10.094  22.029  0.00  0.00    +0.000 A 
ATOM      9  C   UNL     1       0.167  11.054  21.008  0.00  0.00    +0.000 A 
ATOM     10  C   UNL     1       0.818  10.758  19.784  0.00  0.00    +0.000 A 
ATOM     11  C   UNL     1       1.241   9.444  19.595  0.00  0.00    +0.000 A 
ATOM     12  C   UNL     1       1.038   8.515  20.613  0.00  0.00    +0.000 A 
ATOM     13  C   UNL     1       0.441   8.798  21.825  0.00  0.00    +0.000 A 
ATOM     14  C   UNL     1       1.536   7.214  20.202  0.00  0.00    +0.000 C 
ATOM     15  O   UNL     1       1.429   6.244  20.923  0.00  0.00    +0.000 OA
ATOM     16  N   UNL     1       2.082   7.365  18.926  0.00  0.00    +0.000 N 
ATOM     17  C   UNL     1       1.936   8.746  18.455  0.00  0.00    +0.000 C 
BRANCH  10  18
ATOM     18  C   UNL     1       0.962  11.781  18.736  0.00  0.00    +0.000 C 
ATOM     19  C   UNL     1       1.817  12.814  18.749  0.00  0.00    +0.000 C 
ATOM     20  F   UNL     1       2.691  13.002  19.760  0.00  0.00    +0.000 F 
ATOM     21  F   UNL     1       1.800  13.694  17.726  0.00  0.00    +0.000 F 
ENDBRANCH  10  18
ENDBRANCH   1  16
BRANCH   5  22
ATOM     22  C   UNL     1       6.469   5.444  17.168  0.00  0.00    +0.000 C 
ATOM     23  C   UNL     1       7.221   5.424  18.538  0.00  0.00    +0.000 C 
ATOM     24  O   UNL     1       8.145   6.436  18.072  0.00  0.00    +0.000 OA
ATOM     25  C   UNL     1       7.177   6.824  17.055  0.00  0.00    +0.000 C 
BRANCH  22  26
ATOM     26  C   UNL     1       7.012   4.366  16.214  0.00  0.00    +0.000 C 
BRANCH  26  27
ATOM     27  C   UNL     1       7.288   4.844  14.828  0.00  0.00    +0.000 A 
ATOM     28  N   UNL     1       8.267   5.649  14.467  0.00  0.00    +0.000 NA
ATOM     29  N   UNL     1       8.255   5.759  13.095  0.00  0.00    +0.000 NA
ATOM     30  C   UNL     1       7.266   5.022  12.648  0.00  0.00    +0.000 A 
ATOM     31  N   UNL     1       6.615   4.450  13.698  0.00  0.00    +0.000 N 
ATOM     32  C   UNL     1       5.461   3.598  13.597  0.00  0.00    +0.000 C 
ENDBRANCH  26  27
ENDBRANCH  22  26
ENDBRANCH   5  22
TORSDOF 5
ENDMDL
MODEL 7
REMARK VINA RESULT:      -8.6      1.560      1.916
REMARK  Name = 
REMARK  7 active torsions:
REMARK  status: ('A' for Active; 'I' for Inactive)
REMARK    1  A    between atoms: C_1  and  C_2
REMARK    2  A    between atoms: C_4  and  C_5
REMARK    3  A    between atoms: N_14  and  C_15
REMARK    4  A    between atoms: C_19  and  C_20
REMARK    5  A    between atoms: C_20  and  C_21
REMARK    6  A    between atoms: C_21  and  C_22
REMARK    7  A    between atoms: N_26  and  C_27
REMARK                            x       y       z     vdW  Elec       q    Type
REMARK                         _______ _______ _______ _____ _____    ______ ____
ROOT
ATOM      1  C   UNL     1       1.698   8.190  19.731  0.00  0.00    +0.000 A 
ATOM      2  C   UNL     1       1.397   7.908  21.071  0.00  0.00    +0.000 A 
ATOM      3  C   UNL     1       0.663   8.784  21.859  0.00  0.00    +0.000 A 
ATOM      4  C   UNL     1       0.186   9.961  21.305  0.00  0.00    +0.000 A 
ATOM      5  C   UNL     1       0.422  10.293  19.955  0.00  0.00    +0.000 A 
ATOM      6  C   UNL     1       1.233   9.405  19.203  0.00  0.00    +0.000 A 
ENDROOT
BRANCH   1  16
ATOM      7  C   UNL     1       6.202   4.842  14.915  0.00  0.00    +0.000 C 
ATOM      8  C   UNL     1       5.224   4.985  16.043  0.00  0.00    +0.000 A 
ATOM      9  C   UNL     1       4.753   3.870  16.772  0.00  0.00    +0.000 A 
ATOM     10  C   UNL     1       3.843   3.991  17.853  0.00  0.00    +0.000 A 
ATOM     11  C   UNL     1       3.379   5.271  18.148  0.00  0.00    +0.000 A 
ATOM     12  C   UNL     1       3.850   6.350  17.403  0.00  0.00    +0.000 A 
ATOM     13  C   UNL     1       4.765   6.253  16.374  0.00  0.00    +0.000 A 
ATOM     14  C   UNL     1       3.228   7.578  17.866  0.00  0.00    +0.000 C 
ATOM     15  O   UNL     1       3.465   8.642  17.332  0.00  0.00    +0.000 OA
ATOM     16  N   UNL     1       2.392   7.242  18.931  0.00  0.00    +0.000 N 
ATOM     17  C   UNL     1       2.417   5.798  19.181  0.00  0.00    +0.000 C 
BRANCH  10  18
ATOM     18  C   UNL     1       3.357   2.801  18.569  0.00  0.00    +0.000 C 
ATOM     19  C   UNL     1       2.086   2.379  18.631  0.00  0.00    +0.000 C 
ATOM     20  F   UNL     1       1.090   3.019  17.984  0.00  0.00    +0.000 F 
ATOM     21  F   UNL     1       1.792   1.285  19.366  0.00  0.00    +0.000 F 
ENDBRANCH  10  18
ENDBRANCH   1  16
BRANCH   5  22
ATOM     22  C   UNL     1      -0.330  11.542  19.297  0.00  0.00    +0.000 C 
ATOM     23  C   UNL     1      -1.609  11.979  20.084  0.00  0.00    +0.000 C 
ATOM     24  O   UNL     1      -2.340  12.152  18.846  0.00  0.00    +0.000 OA
ATOM     25  C   UNL     1      -1.381  11.280  18.180  0.00  0.00    +0.000 C 
BRANCH  22  26
ATOM     26  C   UNL     1       0.600  12.738  19.033  0.00  0.00    +0.000 C 
BRANCH  26  27
ATOM     27  C   UNL     1       0.820  13.627  20.211  0.00  0.00    +0.000 A 
ATOM     28  N   UNL     1       1.565  13.349  21.263  0.00  0.00    +0.000 NA
ATOM     29  N   UNL     1       1.607  14.461  22.071  0.00  0.00    +0.000 NA
ATOM     30  C   UNL     1       0.884  15.394  21.498  0.00  0.00    +0.000 A 
ATOM     31  N   UNL     1       0.350  14.910  20.344  0.00  0.00    +0.000 N 
ATOM     32  C   UNL     1      -0.522  15.637  19.461  0.00  0.00    +0.000 C 
ENDBRANCH  26  27
ENDBRANCH  22  26
ENDBRANCH   5  22
TORSDOF 5
ENDMDL
MODEL 8
REMARK VINA RESULT:      -8.6      2.442      3.369
REMARK  Name = 
REMARK  7 active torsions:
REMARK  status: ('A' for Active; 'I' for Inactive)
REMARK    1  A    between atoms: C_1  and  C_2
REMARK    2  A    between atoms: C_4  and  C_5
REMARK    3  A    between atoms: N_14  and  C_15
REMARK    4  A    between atoms: C_19  and  C_20
REMARK    5  A    between atoms: C_20  and  C_21
REMARK    6  A    between atoms: C_21  and  C_22
REMARK    7  A    between atoms: N_26  and  C_27
REMARK                            x       y       z     vdW  Elec       q    Type
REMARK                         _______ _______ _______ _____ _____    ______ ____
ROOT
ATOM      1  C   UNL     1       1.447   8.467  19.915  0.00  0.00    +0.000 A 
ATOM      2  C   UNL     1       1.493   8.403  21.314  0.00  0.00    +0.000 A 
ATOM      3  C   UNL     1       0.747   9.259  22.114  0.00  0.00    +0.000 A 
ATOM      4  C   UNL     1      -0.092  10.187  21.519  0.00  0.00    +0.000 A 
ATOM      5  C   UNL     1      -0.213  10.285  20.118  0.00  0.00    +0.000 A 
ATOM      6  C   UNL     1       0.616   9.440  19.337  0.00  0.00    +0.000 A 
ENDROOT
BRANCH   1  16
ATOM      7  C   UNL     1       6.033   5.208  15.115  0.00  0.00    +0.000 C 
ATOM      8  C   UNL     1       5.059   5.334  16.248  0.00  0.00    +0.000 A 
ATOM      9  C   UNL     1       4.636   4.215  16.999  0.00  0.00    +0.000 A 
ATOM     10  C   UNL     1       3.731   4.319  18.086  0.00  0.00    +0.000 A 
ATOM     11  C   UNL     1       3.223   5.586  18.365  0.00  0.00    +0.000 A 
ATOM     12  C   UNL     1       3.646   6.669  17.599  0.00  0.00    +0.000 A 
ATOM     13  C   UNL     1       4.556   6.589  16.563  0.00  0.00    +0.000 A 
ATOM     14  C   UNL     1       2.983   7.881  18.046  0.00  0.00    +0.000 C 
ATOM     15  O   UNL     1       3.177   8.944  17.493  0.00  0.00    +0.000 OA
ATOM     16  N   UNL     1       2.169   7.533  19.124  0.00  0.00    +0.000 N 
ATOM     17  C   UNL     1       2.250   6.094  19.397  0.00  0.00    +0.000 C 
BRANCH  10  18
ATOM     18  C   UNL     1       3.295   3.124  18.826  0.00  0.00    +0.000 C 
ATOM     19  C   UNL     1       2.077   2.565  18.781  0.00  0.00    +0.000 C 
ATOM     20  F   UNL     1       1.099   3.052  17.989  0.00  0.00    +0.000 F 
ATOM     21  F   UNL     1       1.819   1.488  19.553  0.00  0.00    +0.000 F 
ENDBRANCH  10  18
ENDBRANCH   1  16
BRANCH   5  22
ATOM     22  C   UNL     1      -1.351  11.209  19.478  0.00  0.00    +0.000 C 
ATOM     23  C   UNL     1      -0.806  12.205  18.402  0.00  0.00    +0.000 C 
ATOM     24  O   UNL     1      -1.631  13.268  18.936  0.00  0.00    +0.000 OA
ATOM     25  C   UNL     1      -1.726  12.539  20.193  0.00  0.00    +0.000 C 
BRANCH  22  26
ATOM     26  C   UNL     1      -2.551  10.409  18.944  0.00  0.00    +0.000 C 
BRANCH  26  27
ATOM     27  C   UNL     1      -2.740  10.484  17.466  0.00  0.00    +0.000 A 
ATOM     28  N   UNL     1      -2.001   9.877  16.558  0.00  0.00    +0.000 NA
ATOM     29  N   UNL     1      -2.563  10.100  15.322  0.00  0.00    +0.000 NA
ATOM     30  C   UNL     1      -3.630  10.841  15.500  0.00  0.00    +0.000 A 
ATOM     31  N   UNL     1      -3.768  11.129  16.823  0.00  0.00    +0.000 N 
ATOM     32  C   UNL     1      -4.807  11.943  17.394  0.00  0.00    +0.000 C 
ENDBRANCH  26  27
ENDBRANCH  22  26
ENDBRANCH   5  22
TORSDOF 5
ENDMDL
MODEL 9
REMARK VINA RESULT:      -8.6      1.435      1.767
REMARK  Name = 
REMARK  7 active torsions:
REMARK  status: ('A' for Active; 'I' for Inactive)
REMARK    1  A    between atoms: C_1  and  C_2
REMARK    2  A    between atoms: C_4  and  C_5
REMARK    3  A    between atoms: N_14  and  C_15
REMARK    4  A    between atoms: C_19  and  C_20
REMARK    5  A    between atoms: C_20  and  C_21
REMARK    6  A    between atoms: C_21  and  C_22
REMARK    7  A    between atoms: N_26  and  C_27
REMARK                            x       y       z     vdW  Elec       q    Type
REMARK                         _______ _______ _______ _____ _____    ______ ____
ROOT
ATOM      1  C   UNL     1       0.970   8.941  20.824  0.00  0.00    +0.000 A 
ATOM      2  C   UNL     1       0.443   8.799  22.115  0.00  0.00    +0.000 A 
ATOM      3  C   UNL     1      -0.232   9.832  22.752  0.00  0.00    +0.000 A 
ATOM      4  C   UNL     1      -0.420  11.033  22.087  0.00  0.00    +0.000 A 
ATOM      5  C   UNL     1       0.054  11.235  20.774  0.00  0.00    +0.000 A 
ATOM      6  C   UNL     1       0.796  10.179  20.185  0.00  0.00    +0.000 A 
ENDROOT
BRANCH   1  16
ATOM      7  C   UNL     1       4.914   4.626  16.294  0.00  0.00    +0.000 C 
ATOM      8  C   UNL     1       4.105   5.017  17.495  0.00  0.00    +0.000 A 
ATOM      9  C   UNL     1       3.814   4.103  18.532  0.00  0.00    +0.000 A 
ATOM     10  C   UNL     1       3.068   4.462  19.683  0.00  0.00    +0.000 A 
ATOM     11  C   UNL     1       2.575   5.765  19.735  0.00  0.00    +0.000 A 
ATOM     12  C   UNL     1       2.864   6.640  18.691  0.00  0.00    +0.000 A 
ATOM     13  C   UNL     1       3.623   6.316  17.584  0.00  0.00    +0.000 A 
ATOM     14  C   UNL     1       2.243   7.929  18.941  0.00  0.00    +0.000 C 
ATOM     15  O   UNL     1       2.335   8.836  18.139  0.00  0.00    +0.000 OA
ATOM     16  N   UNL     1       1.595   7.844  20.173  0.00  0.00    +0.000 N 
ATOM     17  C   UNL     1       1.744   6.505  20.751  0.00  0.00    +0.000 C 
BRANCH  10  18
ATOM     18  C   UNL     1       2.765   3.472  20.729  0.00  0.00    +0.000 C 
ATOM     19  C   UNL     1       1.559   2.953  21.003  0.00  0.00    +0.000 C 
ATOM     20  F   UNL     1       0.463   3.284  20.290  0.00  0.00    +0.000 F 
ATOM     21  F   UNL     1       1.437   2.080  22.026  0.00  0.00    +0.000 F 
ENDBRANCH  10  18
ENDBRANCH   1  16
BRANCH   5  22
ATOM     22  C   UNL     1      -0.375  12.545  19.964  0.00  0.00    +0.000 C 
ATOM     23  C   UNL     1      -1.356  12.249  18.782  0.00  0.00    +0.000 C 
ATOM     24  O   UNL     1      -0.631  13.160  17.921  0.00  0.00    +0.000 OA
ATOM     25  C   UNL     1       0.528  13.032  18.795  0.00  0.00    +0.000 C 
BRANCH  22  26
ATOM     26  C   UNL     1      -0.912  13.668  20.868  0.00  0.00    +0.000 C 
BRANCH  26  27
ATOM     27  C   UNL     1       0.125  14.625  21.352  0.00  0.00    +0.000 A 
ATOM     28  N   UNL     1       1.028  14.385  22.283  0.00  0.00    +0.000 NA
ATOM     29  N   UNL     1       1.870  15.470  22.361  0.00  0.00    +0.000 NA
ATOM     30  C   UNL     1       1.463  16.351  21.479  0.00  0.00    +0.000 A 
ATOM     31  N   UNL     1       0.358  15.878  20.841  0.00  0.00    +0.000 N 
ATOM     32  C   UNL     1      -0.384  16.581  19.829  0.00  0.00    +0.000 C 
ENDBRANCH  26  27
ENDBRANCH  22  26
ENDBRANCH   5  22
TORSDOF 5
ENDMDL
