MODEL 1
REMARK VINA RESULT:      -9.3      0.000      0.000
REMARK  Name = 
REMARK  8 active torsions:
REMARK  status: ('A' for Active; 'I' for Inactive)
REMARK    1  A    between atoms: C_1  and  N_2
REMARK    2  A    between atoms: C_6  and  C_7
REMARK    3  A    between atoms: C_7  and  C_8
REMARK    4  A    between atoms: C_8  and  C_9
REMARK    5  A    between atoms: C_13  and  N_14
REMARK    6  A    between atoms: C_19  and  C_20
REMARK    7  A    between atoms: C_20  and  N_21
REMARK    8  A    between atoms: C_28  and  C_29
REMARK                            x       y       z     vdW  Elec       q    Type
REMARK                         _______ _______ _______ _____ _____    ______ ____
ROOT
ATOM      1  N   UNL     1       2.470   7.733  19.385  0.00  0.00    +0.000 N 
ATOM      2  C   UNL     1       2.121   8.451  20.653  0.00  0.00    +0.000 C 
ATOM      3  C   UNL     1       0.983   9.339  20.215  0.00  0.00    +0.000 A 
ATOM      4  C   UNL     1       1.114   9.469  18.847  0.00  0.00    +0.000 A 
ATOM      5  C   UNL     1       0.109   9.996  18.045  0.00  0.00    +0.000 A 
ATOM      6  C   UNL     1      -1.029  10.509  18.660  0.00  0.00    +0.000 A 
ATOM      7  C   UNL     1      -1.169  10.361  20.055  0.00  0.00    +0.000 A 
ATOM      8  C   UNL     1      -0.173   9.760  20.869  0.00  0.00    +0.000 A 
ATOM      9  C   UNL     1       2.155   8.585  18.339  0.00  0.00    +0.000 C 
ATOM     10  O   UNL     1       2.494   8.508  17.172  0.00  0.00    +0.000 OA
ENDROOT
BRANCH   1  15
ATOM     11  C   UNL     1       2.713   4.313  18.953  0.00  0.00    +0.000 A 
ATOM     12  C   UNL     1       2.363   3.986  20.279  0.00  0.00    +0.000 A 
ATOM     13  C   UNL     1       1.508   4.786  21.015  0.00  0.00    +0.000 A 
ATOM     14  C   UNL     1       1.109   5.995  20.480  0.00  0.00    +0.000 A 
ATOM     15  C   UNL     1       1.764   6.471  19.330  0.00  0.00    +0.000 A 
ATOM     16  C   UNL     1       2.387   5.581  18.484  0.00  0.00    +0.000 A 
BRANCH  11  17
ATOM     17  C   UNL     1       3.441   3.288  18.020  0.00  0.00    +0.000 C 
ATOM     18  C   UNL     1       4.229   2.195  18.788  0.00  0.00    +0.000 C 
ATOM     19  O   UNL     1       3.329   1.149  18.366  0.00  0.00    +0.000 OA
ATOM     20  C   UNL     1       2.544   2.076  17.585  0.00  0.00    +0.000 C 
BRANCH  17  21
ATOM     21  C   UNL     1       4.173   4.009  16.866  0.00  0.00    +0.000 C 
BRANCH  21  27
ATOM     22  C   UNL     1       6.102   5.423  19.303  0.00  0.00    +0.000 C 
ATOM     23  N   UNL     1       6.400   4.621  18.147  0.00  0.00    +0.000 N 
ATOM     24  C   UNL     1       7.757   4.684  17.661  0.00  0.00    +0.000 C 
ATOM     25  N   UNL     1       7.686   4.460  16.228  0.00  0.00    +0.000 N 
ATOM     26  N   UNL     1       6.381   4.125  15.918  0.00  0.00    +0.000 NA
ATOM     27  C   UNL     1       5.667   4.260  16.997  0.00  0.00    +0.000 C 
ATOM     28  H   UNL     1       8.332   3.737  15.932  0.00  0.00    +0.000 HD
ENDBRANCH  21  27
ENDBRANCH  17  21
ENDBRANCH  11  17
ENDBRANCH   1  15
BRANCH   8  29
ATOM     29  C   UNL     1      -0.416   9.536  22.335  0.00  0.00    +0.000 C 
ATOM     30  F   UNL     1       0.716   9.619  23.088  0.00  0.00    +0.000 F 
ATOM     31  F   UNL     1      -1.275  10.444  22.868  0.00  0.00    +0.000 F 
ATOM     32  F   UNL     1      -0.949   8.310  22.607  0.00  0.00    +0.000 F 
ENDBRANCH   8  29
BRANCH   6  33
ATOM     33  C   UNL     1      -2.086  11.192  17.809  0.00  0.00    +0.000 C 
BRANCH  33  34
ATOM     34  N   UNL     1      -3.435  11.223  18.415  0.00  0.00    +0.000 NA
ATOM     35  C   UNL     1      -3.632  12.371  19.316  0.00  0.00    +0.000 C 
ATOM     36  C   UNL     1      -5.078  12.602  19.762  0.00  0.00    +0.000 C 
ATOM     37  C   UNL     1      -6.046  12.568  18.589  0.00  0.00    +0.000 C 
ATOM     38  C   UNL     1      -5.904  11.245  17.858  0.00  0.00    +0.000 C 
ATOM     39  C   UNL     1      -4.467  11.021  17.379  0.00  0.00    +0.000 C 
ENDBRANCH  33  34
ENDBRANCH   6  33
TORSDOF 7
ENDMDL
MODEL 2
REMARK VINA RESULT:      -9.1      3.464      4.690
REMARK  Name = 
REMARK  8 active torsions:
REMARK  status: ('A' for Active; 'I' for Inactive)
REMARK    1  A    between atoms: C_1  and  N_2
REMARK    2  A    between atoms: C_6  and  C_7
REMARK    3  A    between atoms: C_7  and  C_8
REMARK    4  A    between atoms: C_8  and  C_9
REMARK    5  A    between atoms: C_13  and  N_14
REMARK    6  A    between atoms: C_19  and  C_20
REMARK    7  A    between atoms: C_20  and  N_21
REMARK    8  A    between atoms: C_28  and  C_29
REMARK                            x       y       z     vdW  Elec       q    Type
REMARK                         _______ _______ _______ _____ _____    ______ ____
ROOT
ATOM      1  N   UNL     1       0.855   8.338  21.116  0.00  0.00    +0.000 N 
ATOM      2  C   UNL     1      -0.388   8.591  20.318  0.00  0.00    +0.000 C 
ATOM      3  C   UNL     1      -0.341  10.085  20.117  0.00  0.00    +0.000 A 
ATOM      4  C   UNL     1       0.470  10.572  21.123  0.00  0.00    +0.000 A 
ATOM      5  C   UNL     1       0.967  11.870  21.121  0.00  0.00    +0.000 A 
ATOM      6  C   UNL     1       0.542  12.741  20.122  0.00  0.00    +0.000 A 
ATOM      7  C   UNL     1      -0.273  12.238  19.088  0.00  0.00    +0.000 A 
ATOM      8  C   UNL     1      -0.726  10.893  19.050  0.00  0.00    +0.000 A 
ATOM      9  C   UNL     1       1.098   9.482  21.858  0.00  0.00    +0.000 C 
ATOM     10  O   UNL     1       1.848   9.624  22.807  0.00  0.00    +0.000 OA
ENDROOT
BRANCH   1  15
ATOM     11  C   UNL     1       2.251   5.914  19.086  0.00  0.00    +0.000 A 
ATOM     12  C   UNL     1       2.025   6.606  17.878  0.00  0.00    +0.000 A 
ATOM     13  C   UNL     1       2.019   7.988  17.830  0.00  0.00    +0.000 A 
ATOM     14  C   UNL     1       2.098   8.691  19.017  0.00  0.00    +0.000 A 
ATOM     15  C   UNL     1       1.942   7.989  20.226  0.00  0.00    +0.000 A 
ATOM     16  C   UNL     1       2.218   6.641  20.271  0.00  0.00    +0.000 A 
BRANCH  11  17
ATOM     17  C   UNL     1       2.540   4.377  19.109  0.00  0.00    +0.000 C 
ATOM     18  C   UNL     1       2.594   3.772  20.536  0.00  0.00    +0.000 C 
ATOM     19  O   UNL     1       1.382   3.014  20.339  0.00  0.00    +0.000 OA
ATOM     20  C   UNL     1       1.253   3.486  18.980  0.00  0.00    +0.000 C 
BRANCH  17  21
ATOM     21  C   UNL     1       3.689   4.011  18.142  0.00  0.00    +0.000 C 
BRANCH  21  27
ATOM     22  C   UNL     1       5.405   6.344  16.335  0.00  0.00    +0.000 C 
ATOM     23  N   UNL     1       5.552   5.821  17.666  0.00  0.00    +0.000 N 
ATOM     24  C   UNL     1       6.846   5.999  18.281  0.00  0.00    +0.000 C 
ATOM     25  N   UNL     1       7.024   4.874  19.183  0.00  0.00    +0.000 N 
ATOM     26  N   UNL     1       5.838   4.167  19.213  0.00  0.00    +0.000 NA
ATOM     27  C   UNL     1       5.038   4.686  18.329  0.00  0.00    +0.000 C 
ATOM     28  H   UNL     1       7.295   5.180  20.110  0.00  0.00    +0.000 HD
ENDBRANCH  21  27
ENDBRANCH  17  21
ENDBRANCH  11  17
ENDBRANCH   1  15
BRANCH   8  29
ATOM     29  C   UNL     1      -1.509  10.382  17.873  0.00  0.00    +0.000 C 
ATOM     30  F   UNL     1      -2.646   9.723  18.228  0.00  0.00    +0.000 F 
ATOM     31  F   UNL     1      -1.911  11.378  17.040  0.00  0.00    +0.000 F 
ATOM     32  F   UNL     1      -0.803   9.508  17.101  0.00  0.00    +0.000 F 
ENDBRANCH   8  29
BRANCH   6  33
ATOM     33  C   UNL     1       0.984  14.194  20.170  0.00  0.00    +0.000 C 
BRANCH  33  34
ATOM     34  N   UNL     1       1.810  14.621  19.020  0.00  0.00    +0.000 NA
ATOM     35  C   UNL     1       1.603  16.033  18.659  0.00  0.00    +0.000 C 
ATOM     36  C   UNL     1       2.612  16.600  17.657  0.00  0.00    +0.000 C 
ATOM     37  C   UNL     1       4.045  16.270  18.048  0.00  0.00    +0.000 C 
ATOM     38  C   UNL     1       4.196  14.765  18.184  0.00  0.00    +0.000 C 
ATOM     39  C   UNL     1       3.211  14.194  19.209  0.00  0.00    +0.000 C 
ENDBRANCH  33  34
ENDBRANCH   6  33
TORSDOF 7
ENDMDL
MODEL 3
REMARK VINA RESULT:      -8.9      3.414      4.383
REMARK  Name = 
REMARK  8 active torsions:
REMARK  status: ('A' for Active; 'I' for Inactive)
REMARK    1  A    between atoms: C_1  and  N_2
REMARK    2  A    between atoms: C_6  and  C_7
REMARK    3  A    between atoms: C_7  and  C_8
REMARK    4  A    between atoms: C_8  and  C_9
REMARK    5  A    between atoms: C_13  and  N_14
REMARK    6  A    between atoms: C_19  and  C_20
REMARK    7  A    between atoms: C_20  and  N_21
REMARK    8  A    between atoms: C_28  and  C_29
REMARK                            x       y       z     vdW  Elec       q    Type
REMARK                         _______ _______ _______ _____ _____    ______ ____
ROOT
ATOM      1  N   UNL     1       0.734   8.418  21.125  0.00  0.00    +0.000 N 
ATOM      2  C   UNL     1      -0.487   8.718  20.310  0.00  0.00    +0.000 C 
ATOM      3  C   UNL     1      -0.428  10.221  20.186  0.00  0.00    +0.000 A 
ATOM      4  C   UNL     1       0.361  10.651  21.234  0.00  0.00    +0.000 A 
ATOM      5  C   UNL     1       0.864  11.945  21.309  0.00  0.00    +0.000 A 
ATOM      6  C   UNL     1       0.469  12.867  20.344  0.00  0.00    +0.000 A 
ATOM      7  C   UNL     1      -0.322  12.421  19.266  0.00  0.00    +0.000 A 
ATOM      8  C   UNL     1      -0.781  11.082  19.151  0.00  0.00    +0.000 A 
ATOM      9  C   UNL     1       0.964   9.523  21.929  0.00  0.00    +0.000 C 
ATOM     10  O   UNL     1       1.691   9.612  22.902  0.00  0.00    +0.000 OA
ENDROOT
BRANCH   1  15
ATOM     11  C   UNL     1       2.218   6.053  19.088  0.00  0.00    +0.000 A 
ATOM     12  C   UNL     1       1.991   6.752  17.885  0.00  0.00    +0.000 A 
ATOM     13  C   UNL     1       1.950   8.134  17.852  0.00  0.00    +0.000 A 
ATOM     14  C   UNL     1       1.995   8.825  19.048  0.00  0.00    +0.000 A 
ATOM     15  C   UNL     1       1.842   8.107  20.247  0.00  0.00    +0.000 A 
ATOM     16  C   UNL     1       2.151   6.766  20.281  0.00  0.00    +0.000 A 
BRANCH  11  17
ATOM     17  C   UNL     1       2.546   4.523  19.099  0.00  0.00    +0.000 C 
ATOM     18  C   UNL     1       2.661   3.918  20.522  0.00  0.00    +0.000 C 
ATOM     19  O   UNL     1       1.462   3.131  20.363  0.00  0.00    +0.000 OA
ATOM     20  C   UNL     1       1.278   3.601  19.010  0.00  0.00    +0.000 C 
BRANCH  17  21
ATOM     21  C   UNL     1       3.671   4.188  18.094  0.00  0.00    +0.000 C 
BRANCH  21  27
ATOM     22  C   UNL     1       5.424   6.602  16.434  0.00  0.00    +0.000 C 
ATOM     23  N   UNL     1       5.578   5.976  17.720  0.00  0.00    +0.000 N 
ATOM     24  C   UNL     1       6.886   6.070  18.322  0.00  0.00    +0.000 C 
ATOM     25  N   UNL     1       7.047   4.876  19.133  0.00  0.00    +0.000 N 
ATOM     26  N   UNL     1       5.841   4.202  19.133  0.00  0.00    +0.000 NA
ATOM     27  C   UNL     1       5.043   4.808  18.305  0.00  0.00    +0.000 C 
ATOM     28  H   UNL     1       7.342   5.103  20.075  0.00  0.00    +0.000 HD
ENDBRANCH  21  27
ENDBRANCH  17  21
ENDBRANCH  11  17
ENDBRANCH   1  15
BRANCH   8  29
ATOM     29  C   UNL     1      -1.537  10.636  17.931  0.00  0.00    +0.000 C 
ATOM     30  F   UNL     1      -1.826  11.655  17.074  0.00  0.00    +0.000 F 
ATOM     31  F   UNL     1      -0.850   9.724  17.193  0.00  0.00    +0.000 F 
ATOM     32  F   UNL     1      -2.734  10.054  18.227  0.00  0.00    +0.000 F 
ENDBRANCH   8  29
BRANCH   6  33
ATOM     33  C   UNL     1       0.917  14.313  20.476  0.00  0.00    +0.000 C 
BRANCH  33  34
ATOM     34  N   UNL     1       0.828  15.098  19.225  0.00  0.00    +0.000 NA
ATOM     35  C   UNL     1      -0.349  15.981  19.185  0.00  0.00    +0.000 C 
ATOM     36  C   UNL     1      -0.354  17.002  18.044  0.00  0.00    +0.000 C 
ATOM     37  C   UNL     1       0.971  17.740  17.939  0.00  0.00    +0.000 C 
ATOM     38  C   UNL     1       2.096  16.734  17.767  0.00  0.00    +0.000 C 
ATOM     39  C   UNL     1       2.128  15.728  18.921  0.00  0.00    +0.000 C 
ENDBRANCH  33  34
ENDBRANCH   6  33
TORSDOF 7
ENDMDL
MODEL 4
REMARK VINA RESULT:      -8.8      3.699      5.130
REMARK  Name = 
REMARK  8 active torsions:
REMARK  status: ('A' for Active; 'I' for Inactive)
REMARK    1  A    between atoms: C_1  and  N_2
REMARK    2  A    between atoms: C_6  and  C_7
REMARK    3  A    between atoms: C_7  and  C_8
REMARK    4  A    between atoms: C_8  and  C_9
REMARK    5  A    between atoms: C_13  and  N_14
REMARK    6  A    between atoms: C_19  and  C_20
REMARK    7  A    between atoms: C_20  and  N_21
REMARK    8  A    between atoms: C_28  and  C_29
REMARK                            x       y       z     vdW  Elec       q    Type
REMARK                         _______ _______ _______ _____ _____    ______ ____
ROOT
ATOM      1  N   UNL     1       0.267   9.085  20.951  0.00  0.00    +0.000 N 
ATOM      2  C   UNL     1      -0.863   9.020  19.969  0.00  0.00    +0.000 C 
ATOM      3  C   UNL     1      -1.243  10.473  19.822  0.00  0.00    +0.000 A 
ATOM      4  C   UNL     1      -0.773  11.099  20.959  0.00  0.00    +0.000 A 
ATOM      5  C   UNL     1      -0.700  12.482  21.076  0.00  0.00    +0.000 A 
ATOM      6  C   UNL     1      -1.218  13.262  20.047  0.00  0.00    +0.000 A 
ATOM      7  C   UNL     1      -1.681  12.621  18.880  0.00  0.00    +0.000 A 
ATOM      8  C   UNL     1      -1.694  11.210  18.730  0.00  0.00    +0.000 A 
ATOM      9  C   UNL     1       0.040  10.190  21.755  0.00  0.00    +0.000 C 
ATOM     10  O   UNL     1       0.564  10.473  22.817  0.00  0.00    +0.000 OA
ENDROOT
BRANCH   1  15
ATOM     11  C   UNL     1       2.348   7.560  18.651  0.00  0.00    +0.000 A 
ATOM     12  C   UNL     1       2.214   8.560  17.667  0.00  0.00    +0.000 A 
ATOM     13  C   UNL     1       1.994   9.882  18.009  0.00  0.00    +0.000 A 
ATOM     14  C   UNL     1       1.763  10.192  19.335  0.00  0.00    +0.000 A 
ATOM     15  C   UNL     1       1.527   9.142  20.240  0.00  0.00    +0.000 A 
ATOM     16  C   UNL     1       2.005   7.881  19.960  0.00  0.00    +0.000 A 
BRANCH  11  17
ATOM     17  C   UNL     1       2.873   6.128  18.300  0.00  0.00    +0.000 C 
ATOM     18  C   UNL     1       4.169   6.129  17.449  0.00  0.00    +0.000 C 
ATOM     19  O   UNL     1       4.963   5.590  18.526  0.00  0.00    +0.000 OA
ATOM     20  C   UNL     1       3.813   5.509  19.395  0.00  0.00    +0.000 C 
BRANCH  17  21
ATOM     21  C   UNL     1       1.720   5.212  17.832  0.00  0.00    +0.000 C 
BRANCH  21  27
ATOM     22  C   UNL     1       1.132   3.495  20.725  0.00  0.00    +0.000 C 
ATOM     23  N   UNL     1       1.267   3.098  19.349  0.00  0.00    +0.000 N 
ATOM     24  C   UNL     1       1.582   1.709  19.115  0.00  0.00    +0.000 C 
ATOM     25  N   UNL     1       2.349   1.669  17.882  0.00  0.00    +0.000 N 
ATOM     26  N   UNL     1       2.345   2.941  17.343  0.00  0.00    +0.000 NA
ATOM     27  C   UNL     1       1.770   3.737  18.196  0.00  0.00    +0.000 C 
ATOM     28  H   UNL     1       1.970   0.991  17.231  0.00  0.00    +0.000 HD
ENDBRANCH  21  27
ENDBRANCH  17  21
ENDBRANCH  11  17
ENDBRANCH   1  15
BRANCH   8  29
ATOM     29  C   UNL     1      -2.104  10.583  17.427  0.00  0.00    +0.000 C 
ATOM     30  F   UNL     1      -1.176   9.719  16.930  0.00  0.00    +0.000 F 
ATOM     31  F   UNL     1      -3.253   9.865  17.530  0.00  0.00    +0.000 F 
ATOM     32  F   UNL     1      -2.321  11.498  16.439  0.00  0.00    +0.000 F 
ENDBRANCH   8  29
BRANCH   6  33
ATOM     33  C   UNL     1      -1.250  14.773  20.208  0.00  0.00    +0.000 C 
BRANCH  33  34
ATOM     34  N   UNL     1      -0.527  15.517  19.153  0.00  0.00    +0.000 NA
ATOM     35  C   UNL     1      -1.046  16.881  18.956  0.00  0.00    +0.000 C 
ATOM     36  C   UNL     1      -0.179  17.781  18.073  0.00  0.00    +0.000 C 
ATOM     37  C   UNL     1       1.286  17.734  18.479  0.00  0.00    +0.000 C 
ATOM     38  C   UNL     1       1.773  16.296  18.438  0.00  0.00    +0.000 C 
ATOM     39  C   UNL     1       0.931  15.394  19.345  0.00  0.00    +0.000 C 
ENDBRANCH  33  34
ENDBRANCH   6  33
TORSDOF 7
ENDMDL
MODEL 5
REMARK VINA RESULT:      -8.8      3.489      4.969
REMARK  Name = 
REMARK  8 active torsions:
REMARK  status: ('A' for Active; 'I' for Inactive)
REMARK    1  A    between atoms: C_1  and  N_2
REMARK    2  A    between atoms: C_6  and  C_7
REMARK    3  A    between atoms: C_7  and  C_8
REMARK    4  A    between atoms: C_8  and  C_9
REMARK    5  A    between atoms: C_13  and  N_14
REMARK    6  A    between atoms: C_19  and  C_20
REMARK    7  A    between atoms: C_20  and  N_21
REMARK    8  A    between atoms: C_28  and  C_29
REMARK                            x       y       z     vdW  Elec       q    Type
REMARK                         _______ _______ _______ _____ _____    ______ ____
ROOT
ATOM      1  N   UNL     1       0.860   8.207  21.192  0.00  0.00    +0.000 N 
ATOM      2  C   UNL     1      -0.364   8.492  20.376  0.00  0.00    +0.000 C 
ATOM      3  C   UNL     1      -0.225   9.968  20.096  0.00  0.00    +0.000 A 
ATOM      4  C   UNL     1       0.614  10.457  21.077  0.00  0.00    +0.000 A 
ATOM      5  C   UNL     1       1.190  11.720  21.008  0.00  0.00    +0.000 A 
ATOM      6  C   UNL     1       0.820  12.561  19.961  0.00  0.00    +0.000 A 
ATOM      7  C   UNL     1      -0.023  12.053  18.952  0.00  0.00    +0.000 A 
ATOM      8  C   UNL     1      -0.558  10.739  18.985  0.00  0.00    +0.000 A 
ATOM      9  C   UNL     1       1.172   9.372  21.872  0.00  0.00    +0.000 C 
ATOM     10  O   UNL     1       1.929   9.518  22.816  0.00  0.00    +0.000 OA
ENDROOT
BRANCH   1  15
ATOM     11  C   UNL     1       2.087   5.608  19.272  0.00  0.00    +0.000 A 
ATOM     12  C   UNL     1       1.921   6.266  18.036  0.00  0.00    +0.000 A 
ATOM     13  C   UNL     1       2.018   7.642  17.934  0.00  0.00    +0.000 A 
ATOM     14  C   UNL     1       2.139   8.384  19.093  0.00  0.00    +0.000 A 
ATOM     15  C   UNL     1       1.925   7.744  20.327  0.00  0.00    +0.000 A 
ATOM     16  C   UNL     1       2.100   6.382  20.427  0.00  0.00    +0.000 A 
BRANCH  11  17
ATOM     17  C   UNL     1       2.262   4.056  19.357  0.00  0.00    +0.000 C 
ATOM     18  C   UNL     1       2.587   3.541  20.784  0.00  0.00    +0.000 C 
ATOM     19  O   UNL     1       1.310   2.883  20.916  0.00  0.00    +0.000 OA
ATOM     20  C   UNL     1       0.917   3.276  19.582  0.00  0.00    +0.000 C 
BRANCH  17  21
ATOM     21  C   UNL     1       3.138   3.529  18.199  0.00  0.00    +0.000 C 
BRANCH  21  27
ATOM     22  C   UNL     1       5.158   4.301  15.557  0.00  0.00    +0.000 C 
ATOM     23  N   UNL     1       5.242   4.548  16.971  0.00  0.00    +0.000 N 
ATOM     24  C   UNL     1       6.555   4.852  17.487  0.00  0.00    +0.000 C 
ATOM     25  N   UNL     1       6.577   4.363  18.855  0.00  0.00    +0.000 N 
ATOM     26  N   UNL     1       5.299   3.943  19.172  0.00  0.00    +0.000 NA
ATOM     27  C   UNL     1       4.575   4.015  18.094  0.00  0.00    +0.000 C 
ATOM     28  H   UNL     1       6.901   5.075  19.500  0.00  0.00    +0.000 HD
ENDBRANCH  21  27
ENDBRANCH  17  21
ENDBRANCH  11  17
ENDBRANCH   1  15
BRANCH   8  29
ATOM     29  C   UNL     1      -1.370  10.215  17.834  0.00  0.00    +0.000 C 
ATOM     30  F   UNL     1      -0.696   9.316  17.065  0.00  0.00    +0.000 F 
ATOM     31  F   UNL     1      -2.499   9.575  18.237  0.00  0.00    +0.000 F 
ATOM     32  F   UNL     1      -1.779  11.196  16.979  0.00  0.00    +0.000 F 
ENDBRANCH   8  29
BRANCH   6  33
ATOM     33  C   UNL     1       1.351  13.984  19.933  0.00  0.00    +0.000 C 
BRANCH  33  34
ATOM     34  N   UNL     1       2.809  14.090  19.706  0.00  0.00    +0.000 NA
ATOM     35  C   UNL     1       3.156  14.261  18.285  0.00  0.00    +0.000 C 
ATOM     36  C   UNL     1       4.616  14.637  18.016  0.00  0.00    +0.000 C 
ATOM     37  C   UNL     1       5.078  15.782  18.904  0.00  0.00    +0.000 C 
ATOM     38  C   UNL     1       4.870  15.406  20.360  0.00  0.00    +0.000 C 
ATOM     39  C   UNL     1       3.406  15.059  20.645  0.00  0.00    +0.000 C 
ENDBRANCH  33  34
ENDBRANCH   6  33
TORSDOF 7
ENDMDL
MODEL 6
REMARK VINA RESULT:      -8.7      3.684      5.229
REMARK  Name = 
REMARK  8 active torsions:
REMARK  status: ('A' for Active; 'I' for Inactive)
REMARK    1  A    between atoms: C_1  and  N_2
REMARK    2  A    between atoms: C_6  and  C_7
REMARK    3  A    between atoms: C_7  and  C_8
REMARK    4  A    between atoms: C_8  and  C_9
REMARK    5  A    between atoms: C_13  and  N_14
REMARK    6  A    between atoms: C_19  and  C_20
REMARK    7  A    between atoms: C_20  and  N_21
REMARK    8  A    between atoms: C_28  and  C_29
REMARK                            x       y       z     vdW  Elec       q    Type
REMARK                         _______ _______ _______ _____ _____    ______ ____
ROOT
ATOM      1  N   UNL     1       0.357   8.998  20.858  0.00  0.00    +0.000 N 
ATOM      2  C   UNL     1      -0.797   8.935  19.904  0.00  0.00    +0.000 C 
ATOM      3  C   UNL     1      -1.174  10.389  19.763  0.00  0.00    +0.000 A 
ATOM      4  C   UNL     1      -0.675  11.015  20.887  0.00  0.00    +0.000 A 
ATOM      5  C   UNL     1      -0.593  12.398  20.999  0.00  0.00    +0.000 A 
ATOM      6  C   UNL     1      -1.133  13.179  19.981  0.00  0.00    +0.000 A 
ATOM      7  C   UNL     1      -1.627  12.537  18.827  0.00  0.00    +0.000 A 
ATOM      8  C   UNL     1      -1.649  11.126  18.681  0.00  0.00    +0.000 A 
ATOM      9  C   UNL     1       0.154  10.105  21.665  0.00  0.00    +0.000 C 
ATOM     10  O   UNL     1       0.705  10.388  22.714  0.00  0.00    +0.000 OA
ENDROOT
BRANCH   1  15
ATOM     11  C   UNL     1       2.450   7.384  18.630  0.00  0.00    +0.000 A 
ATOM     12  C   UNL     1       2.258   8.303  17.578  0.00  0.00    +0.000 A 
ATOM     13  C   UNL     1       1.994   9.637  17.827  0.00  0.00    +0.000 A 
ATOM     14  C   UNL     1       1.777  10.035  19.132  0.00  0.00    +0.000 A 
ATOM     15  C   UNL     1       1.600   9.048  20.117  0.00  0.00    +0.000 A 
ATOM     16  C   UNL     1       2.120   7.788  19.919  0.00  0.00    +0.000 A 
BRANCH  11  17
ATOM     17  C   UNL     1       3.022   5.950  18.373  0.00  0.00    +0.000 C 
ATOM     18  C   UNL     1       4.137   5.906  17.296  0.00  0.00    +0.000 C 
ATOM     19  O   UNL     1       5.157   5.575  18.261  0.00  0.00    +0.000 OA
ATOM     20  C   UNL     1       4.195   5.551  19.338  0.00  0.00    +0.000 C 
BRANCH  17  21
ATOM     21  C   UNL     1       1.886   4.909  18.259  0.00  0.00    +0.000 C 
BRANCH  21  27
ATOM     22  C   UNL     1       3.183   1.773  18.629  0.00  0.00    +0.000 C 
ATOM     23  N   UNL     1       2.531   2.685  19.528  0.00  0.00    +0.000 N 
ATOM     24  C   UNL     1       1.964   2.106  20.723  0.00  0.00    +0.000 C 
ATOM     25  N   UNL     1       0.824   2.934  21.073  0.00  0.00    +0.000 N 
ATOM     26  N   UNL     1       0.820   4.026  20.227  0.00  0.00    +0.000 NA
ATOM     27  C   UNL     1       1.757   3.851  19.343  0.00  0.00    +0.000 C 
ATOM     28  H   UNL     1       0.857   3.222  22.045  0.00  0.00    +0.000 HD
ENDBRANCH  21  27
ENDBRANCH  17  21
ENDBRANCH  11  17
ENDBRANCH   1  15
BRANCH   8  29
ATOM     29  C   UNL     1      -2.092  10.498  17.389  0.00  0.00    +0.000 C 
ATOM     30  F   UNL     1      -1.172   9.643  16.862  0.00  0.00    +0.000 F 
ATOM     31  F   UNL     1      -3.231   9.768  17.525  0.00  0.00    +0.000 F 
ATOM     32  F   UNL     1      -2.348  11.413  16.410  0.00  0.00    +0.000 F 
ENDBRANCH   8  29
BRANCH   6  33
ATOM     33  C   UNL     1      -1.155  14.690  20.140  0.00  0.00    +0.000 C 
BRANCH  33  34
ATOM     34  N   UNL     1      -0.397  15.426  19.104  0.00  0.00    +0.000 NA
ATOM     35  C   UNL     1      -0.911  16.786  18.876  0.00  0.00    +0.000 C 
ATOM     36  C   UNL     1      -0.015  17.681  18.015  0.00  0.00    +0.000 C 
ATOM     37  C   UNL     1       1.434  17.640  18.474  0.00  0.00    +0.000 C 
ATOM     38  C   UNL     1       1.925  16.204  18.464  0.00  0.00    +0.000 C 
ATOM     39  C   UNL     1       1.054  15.308  19.349  0.00  0.00    +0.000 C 
ENDBRANCH  33  34
ENDBRANCH   6  33
TORSDOF 7
ENDMDL
MODEL 7
REMARK VINA RESULT:      -8.7      3.128      3.981
REMARK  Name = 
REMARK  8 active torsions:
REMARK  status: ('A' for Active; 'I' for Inactive)
REMARK    1  A    between atoms: C_1  and  N_2
REMARK    2  A    between atoms: C_6  and  C_7
REMARK    3  A    between atoms: C_7  and  C_8
REMARK    4  A    between atoms: C_8  and  C_9
REMARK    5  A    between atoms: C_13  and  N_14
REMARK    6  A    between atoms: C_19  and  C_20
REMARK    7  A    between atoms: C_20  and  N_21
REMARK    8  A    between atoms: C_28  and  C_29
REMARK                            x       y       z     vdW  Elec       q    Type
REMARK                         _______ _______ _______ _____ _____    ______ ____
ROOT
ATOM      1  N   UNL     1       0.750   8.358  21.080  0.00  0.00    +0.000 N 
ATOM      2  C   UNL     1      -0.490   8.549  20.261  0.00  0.00    +0.000 C 
ATOM      3  C   UNL     1      -0.498  10.041  20.037  0.00  0.00    +0.000 A 
ATOM      4  C   UNL     1       0.280  10.575  21.046  0.00  0.00    +0.000 A 
ATOM      5  C   UNL     1       0.725  11.891  21.030  0.00  0.00    +0.000 A 
ATOM      6  C   UNL     1       0.282  12.729  20.012  0.00  0.00    +0.000 A 
ATOM      7  C   UNL     1      -0.497  12.178  18.974  0.00  0.00    +0.000 A 
ATOM      8  C   UNL     1      -0.897  10.817  18.952  0.00  0.00    +0.000 A 
ATOM      9  C   UNL     1       0.938   9.522  21.807  0.00  0.00    +0.000 C 
ATOM     10  O   UNL     1       1.667   9.707  22.765  0.00  0.00    +0.000 OA
ENDROOT
BRANCH   1  15
ATOM     11  C   UNL     1       2.211   5.998  19.021  0.00  0.00    +0.000 A 
ATOM     12  C   UNL     1       2.017   6.724  17.828  0.00  0.00    +0.000 A 
ATOM     13  C   UNL     1       2.008   8.107  17.821  0.00  0.00    +0.000 A 
ATOM     14  C   UNL     1       2.051   8.774  19.029  0.00  0.00    +0.000 A 
ATOM     15  C   UNL     1       1.864   8.038  20.212  0.00  0.00    +0.000 A 
ATOM     16  C   UNL     1       2.142   6.689  20.226  0.00  0.00    +0.000 A 
BRANCH  11  17
ATOM     17  C   UNL     1       2.504   4.461  19.007  0.00  0.00    +0.000 C 
ATOM     18  C   UNL     1       2.766   3.861  20.414  0.00  0.00    +0.000 C 
ATOM     19  O   UNL     1       1.540   3.101  20.398  0.00  0.00    +0.000 OA
ATOM     20  C   UNL     1       1.214   3.567  19.070  0.00  0.00    +0.000 C 
BRANCH  17  21
ATOM     21  C   UNL     1       3.501   4.094  17.885  0.00  0.00    +0.000 C 
BRANCH  21  27
ATOM     22  C   UNL     1       5.298   6.477  16.227  0.00  0.00    +0.000 C 
ATOM     23  N   UNL     1       5.515   5.743  17.444  0.00  0.00    +0.000 N 
ATOM     24  C   UNL     1       6.878   5.684  17.917  0.00  0.00    +0.000 C 
ATOM     25  N   UNL     1       7.007   4.422  18.624  0.00  0.00    +0.000 N 
ATOM     26  N   UNL     1       5.752   3.850  18.699  0.00  0.00    +0.000 NA
ATOM     27  C   UNL     1       4.936   4.582  17.999  0.00  0.00    +0.000 C 
ATOM     28  H   UNL     1       7.409   4.551  19.546  0.00  0.00    +0.000 HD
ENDBRANCH  21  27
ENDBRANCH  17  21
ENDBRANCH  11  17
ENDBRANCH   1  15
BRANCH   8  29
ATOM     29  C   UNL     1      -1.642  10.258  17.772  0.00  0.00    +0.000 C 
ATOM     30  F   UNL     1      -2.772   9.582  18.119  0.00  0.00    +0.000 F 
ATOM     31  F   UNL     1      -2.047  11.222  16.904  0.00  0.00    +0.000 F 
ATOM     32  F   UNL     1      -0.899   9.380  17.038  0.00  0.00    +0.000 F 
ENDBRANCH   8  29
BRANCH   6  33
ATOM     33  C   UNL     1       0.667  14.199  20.043  0.00  0.00    +0.000 C 
BRANCH  33  34
ATOM     34  N   UNL     1      -0.377  15.116  19.536  0.00  0.00    +0.000 NA
ATOM     35  C   UNL     1      -1.254  15.631  20.600  0.00  0.00    +0.000 C 
ATOM     36  C   UNL     1      -2.177  16.777  20.180  0.00  0.00    +0.000 C 
ATOM     37  C   UNL     1      -1.426  17.863  19.425  0.00  0.00    +0.000 C 
ATOM     38  C   UNL     1      -0.732  17.251  18.221  0.00  0.00    +0.000 C 
ATOM     39  C   UNL     1       0.218  16.124  18.636  0.00  0.00    +0.000 C 
ENDBRANCH  33  34
ENDBRANCH   6  33
TORSDOF 7
ENDMDL
MODEL 8
REMARK VINA RESULT:      -8.7      5.701      9.673
REMARK  Name = 
REMARK  8 active torsions:
REMARK  status: ('A' for Active; 'I' for Inactive)
REMARK    1  A    between atoms: C_1  and  N_2
REMARK    2  A    between atoms: C_6  and  C_7
REMARK    3  A    between atoms: C_7  and  C_8
REMARK    4  A    between atoms: C_8  and  C_9
REMARK    5  A    between atoms: C_13  and  N_14
REMARK    6  A    between atoms: C_19  and  C_20
REMARK    7  A    between atoms: C_20  and  N_21
REMARK    8  A    between atoms: C_28  and  C_29
REMARK                            x       y       z     vdW  Elec       q    Type
REMARK                         _______ _______ _______ _____ _____    ______ ____
ROOT
ATOM      1  N   UNL     1      -0.336  11.044  18.364  0.00  0.00    +0.000 N 
ATOM      2  C   UNL     1       0.411  10.371  19.476  0.00  0.00    +0.000 C 
ATOM      3  C   UNL     1      -0.040  11.153  20.684  0.00  0.00    +0.000 A 
ATOM      4  C   UNL     1      -0.486  12.367  20.198  0.00  0.00    +0.000 A 
ATOM      5  C   UNL     1      -1.219  13.259  20.972  0.00  0.00    +0.000 A 
ATOM      6  C   UNL     1      -1.419  12.960  22.317  0.00  0.00    +0.000 A 
ATOM      7  C   UNL     1      -0.978  11.714  22.806  0.00  0.00    +0.000 A 
ATOM      8  C   UNL     1      -0.288  10.771  22.000  0.00  0.00    +0.000 A 
ATOM      9  C   UNL     1      -0.520  12.363  18.742  0.00  0.00    +0.000 C 
ATOM     10  O   UNL     1      -0.855  13.308  18.052  0.00  0.00    +0.000 OA
ENDROOT
BRANCH   1  15
ATOM     11  C   UNL     1      -3.764  11.288  17.992  0.00  0.00    +0.000 A 
ATOM     12  C   UNL     1      -3.773  10.955  16.622  0.00  0.00    +0.000 A 
ATOM     13  C   UNL     1      -2.823  10.108  16.081  0.00  0.00    +0.000 A 
ATOM     14  C   UNL     1      -1.770   9.700  16.877  0.00  0.00    +0.000 A 
ATOM     15  C   UNL     1      -1.576  10.339  18.115  0.00  0.00    +0.000 A 
ATOM     16  C   UNL     1      -2.639  10.953  18.738  0.00  0.00    +0.000 A 
BRANCH  11  17
ATOM     17  C   UNL     1      -4.978  12.006  18.670  0.00  0.00    +0.000 C 
ATOM     18  C   UNL     1      -5.924  12.715  17.667  0.00  0.00    +0.000 C 
ATOM     19  O   UNL     1      -7.001  11.788  17.916  0.00  0.00    +0.000 OA
ATOM     20  C   UNL     1      -6.220  11.074  18.899  0.00  0.00    +0.000 C 
BRANCH  17  21
ATOM     21  C   UNL     1      -4.527  12.813  19.908  0.00  0.00    +0.000 C 
BRANCH  21  27
ATOM     22  C   UNL     1      -7.218  14.803  20.579  0.00  0.00    +0.000 C 
ATOM     23  N   UNL     1      -6.709  13.596  21.172  0.00  0.00    +0.000 N 
ATOM     24  C   UNL     1      -7.149  13.312  22.517  0.00  0.00    +0.000 C 
ATOM     25  N   UNL     1      -6.069  12.576  23.150  0.00  0.00    +0.000 N 
ATOM     26  N   UNL     1      -5.120  12.305  22.183  0.00  0.00    +0.000 NA
ATOM     27  C   UNL     1      -5.474  12.918  21.092  0.00  0.00    +0.000 C 
ATOM     28  H   UNL     1      -6.404  11.724  23.586  0.00  0.00    +0.000 HD
ENDBRANCH  21  27
ENDBRANCH  17  21
ENDBRANCH  11  17
ENDBRANCH   1  15
BRANCH   8  29
ATOM     29  C   UNL     1       0.070   9.417  22.544  0.00  0.00    +0.000 C 
ATOM     30  F   UNL     1      -0.693   8.411  22.032  0.00  0.00    +0.000 F 
ATOM     31  F   UNL     1       1.356   9.069  22.279  0.00  0.00    +0.000 F 
ATOM     32  F   UNL     1      -0.071   9.331  23.898  0.00  0.00    +0.000 F 
ENDBRANCH   8  29
BRANCH   6  33
ATOM     33  C   UNL     1      -2.119  13.977  23.204  0.00  0.00    +0.000 C 
BRANCH  33  34
ATOM     34  N   UNL     1      -1.220  14.712  24.120  0.00  0.00    +0.000 NA
ATOM     35  C   UNL     1      -0.472  15.788  23.449  0.00  0.00    +0.000 C 
ATOM     36  C   UNL     1       0.268  16.744  24.388  0.00  0.00    +0.000 C 
ATOM     37  C   UNL     1      -0.624  17.229  25.521  0.00  0.00    +0.000 C 
ATOM     38  C   UNL     1      -1.169  16.032  26.280  0.00  0.00    +0.000 C 
ATOM     39  C   UNL     1      -1.940  15.086  25.353  0.00  0.00    +0.000 C 
ENDBRANCH  33  34
ENDBRANCH   6  33
TORSDOF 7
ENDMDL
MODEL 9
REMARK VINA RESULT:      -8.7      3.113      4.023
REMARK  Name = 
REMARK  8 active torsions:
REMARK  status: ('A' for Active; 'I' for Inactive)
REMARK    1  A    between atoms: C_1  and  N_2
REMARK    2  A    between atoms: C_6  and  C_7
REMARK    3  A    between atoms: C_7  and  C_8
REMARK    4  A    between atoms: C_8  and  C_9
REMARK    5  A    between atoms: C_13  and  N_14
REMARK    6  A    between atoms: C_19  and  C_20
REMARK    7  A    between atoms: C_20  and  N_21
REMARK    8  A    between atoms: C_28  and  C_29
REMARK                            x       y       z     vdW  Elec       q    Type
REMARK                         _______ _______ _______ _____ _____    ______ ____
ROOT
ATOM      1  N   UNL     1       0.857   8.279  21.101  0.00  0.00    +0.000 N 
ATOM      2  C   UNL     1      -0.388   8.475  20.288  0.00  0.00    +0.000 C 
ATOM      3  C   UNL     1      -0.387   9.966  20.058  0.00  0.00    +0.000 A 
ATOM      4  C   UNL     1       0.400  10.499  21.059  0.00  0.00    +0.000 A 
ATOM      5  C   UNL     1       0.854  11.813  21.035  0.00  0.00    +0.000 A 
ATOM      6  C   UNL     1       0.410  12.649  20.015  0.00  0.00    +0.000 A 
ATOM      7  C   UNL     1      -0.380  12.099  18.985  0.00  0.00    +0.000 A 
ATOM      8  C   UNL     1      -0.789  10.739  18.972  0.00  0.00    +0.000 A 
ATOM      9  C   UNL     1       1.056   9.445  21.821  0.00  0.00    +0.000 C 
ATOM     10  O   UNL     1       1.793   9.630  22.773  0.00  0.00    +0.000 OA
ENDROOT
BRANCH   1  15
ATOM     11  C   UNL     1       2.248   5.932  18.980  0.00  0.00    +0.000 A 
ATOM     12  C   UNL     1       2.082   6.697  17.807  0.00  0.00    +0.000 A 
ATOM     13  C   UNL     1       2.118   8.079  17.839  0.00  0.00    +0.000 A 
ATOM     14  C   UNL     1       2.177   8.711  19.066  0.00  0.00    +0.000 A 
ATOM     15  C   UNL     1       1.962   7.948  20.227  0.00  0.00    +0.000 A 
ATOM     16  C   UNL     1       2.197   6.592  20.203  0.00  0.00    +0.000 A 
BRANCH  11  17
ATOM     17  C   UNL     1       2.492   4.387  18.924  0.00  0.00    +0.000 C 
ATOM     18  C   UNL     1       1.318   3.548  19.491  0.00  0.00    +0.000 C 
ATOM     19  O   UNL     1       0.976   3.017  18.194  0.00  0.00    +0.000 OA
ATOM     20  C   UNL     1       2.066   3.725  17.565  0.00  0.00    +0.000 C 
BRANCH  17  21
ATOM     21  C   UNL     1       3.915   4.031  19.408  0.00  0.00    +0.000 C 
BRANCH  21  27
ATOM     22  C   UNL     1       5.098   4.369  16.224  0.00  0.00    +0.000 C 
ATOM     23  N   UNL     1       5.358   5.066  17.454  0.00  0.00    +0.000 N 
ATOM     24  C   UNL     1       6.590   5.816  17.513  0.00  0.00    +0.000 C 
ATOM     25  N   UNL     1       7.004   5.807  18.905  0.00  0.00    +0.000 N 
ATOM     26  N   UNL     1       5.991   5.224  19.642  0.00  0.00    +0.000 NA
ATOM     27  C   UNL     1       5.096   4.779  18.811  0.00  0.00    +0.000 C 
ATOM     28  H   UNL     1       7.210   6.742  19.238  0.00  0.00    +0.000 HD
ENDBRANCH  21  27
ENDBRANCH  17  21
ENDBRANCH  11  17
ENDBRANCH   1  15
BRANCH   8  29
ATOM     29  C   UNL     1      -1.545  10.180  17.799  0.00  0.00    +0.000 C 
ATOM     30  F   UNL     1      -0.819   9.292  17.065  0.00  0.00    +0.000 F 
ATOM     31  F   UNL     1      -2.669   9.514  18.170  0.00  0.00    +0.000 F 
ATOM     32  F   UNL     1      -1.951  11.140  16.919  0.00  0.00    +0.000 F 
ENDBRANCH   8  29
BRANCH   6  33
ATOM     33  C   UNL     1       0.804  14.116  20.038  0.00  0.00    +0.000 C 
BRANCH  33  34
ATOM     34  N   UNL     1      -0.234  15.037  19.525  0.00  0.00    +0.000 NA
ATOM     35  C   UNL     1      -1.150  15.510  20.576  0.00  0.00    +0.000 C 
ATOM     36  C   UNL     1      -2.073  16.659  20.160  0.00  0.00    +0.000 C 
ATOM     37  C   UNL     1      -1.310  17.775  19.463  0.00  0.00    +0.000 C 
ATOM     38  C   UNL     1      -0.572  17.207  18.265  0.00  0.00    +0.000 C 
ATOM     39  C   UNL     1       0.378  16.078  18.675  0.00  0.00    +0.000 C 
ENDBRANCH  33  34
ENDBRANCH   6  33
TORSDOF 7
ENDMDL
