MODEL 1
REMARK VINA RESULT:      -8.4      0.000      0.000
REMARK  Name = 
REMARK  7 active torsions:
REMARK  status: ('A' for Active; 'I' for Inactive)
REMARK    1  A    between atoms: C_1  and  C_2
REMARK    2  A    between atoms: C_5  and  C_6
REMARK    3  A    between atoms: C_9  and  C_10
REMARK    4  A    between atoms: C_10  and  N_11
REMARK    5  A    between atoms: N_11  and  S_12
REMARK    6  A    between atoms: S_12  and  C_15
REMARK    7  A    between atoms: C_15  and  C_16
REMARK                            x       y       z     vdW  Elec       q    Type
REMARK                         _______ _______ _______ _____ _____    ______ ____
ROOT
ATOM      1  N   UNL     1       3.719   4.020  18.462  0.00  0.00    +0.000 NA
ATOM      2  H   UNL     1       3.665   3.038  18.187  0.00  0.00    +0.000 HD
ENDROOT
BRANCH   1   3
ATOM      3  S   UNL     1       2.155   4.497  18.956  0.00  0.00    +0.000 S 
ATOM      4  O   UNL     1       1.556   5.085  17.772  0.00  0.00    +0.000 OA
ATOM      5  O   UNL     1       1.572   3.328  19.570  0.00  0.00    +0.000 OA
BRANCH   3   6
ATOM      6  C   UNL     1       2.490   5.804  20.170  0.00  0.00    +0.000 C 
BRANCH   6   7
ATOM      7  C   UNL     1       2.260   7.136  19.499  0.00  0.00    +0.000 A 
ATOM      8  C   UNL     1       2.843   7.379  18.240  0.00  0.00    +0.000 A 
ATOM      9  C   UNL     1       2.576   8.557  17.554  0.00  0.00    +0.000 A 
ATOM     10  C   UNL     1       1.728   9.502  18.116  0.00  0.00    +0.000 A 
ATOM     11  C   UNL     1       1.166   9.284  19.384  0.00  0.00    +0.000 A 
ATOM     12  C   UNL     1       0.324  10.242  19.966  0.00  0.00    +0.000 A 
ATOM     13  C   UNL     1      -0.213  10.017  21.225  0.00  0.00    +0.000 A 
ATOM     14  C   UNL     1       0.111   8.835  21.860  0.00  0.00    +0.000 A 
ATOM     15  N   UNL     1       0.919   7.886  21.329  0.00  0.00    +0.000 NA
ATOM     16  C   UNL     1       1.433   8.094  20.100  0.00  0.00    +0.000 A 
ENDBRANCH   6   7
ENDBRANCH   3   6
ENDBRANCH   1   3
BRANCH   1  17
ATOM     17  C   UNL     1       4.799   4.347  19.426  0.00  0.00    +0.000 C 
BRANCH  17  21
ATOM     18  C   UNL     1       6.939   5.651  16.912  0.00  0.00    +0.000 C 
ATOM     19  C   UNL     1       7.792   4.764  17.800  0.00  0.00    +0.000 C 
ATOM     20  C   UNL     1       7.272   5.100  19.176  0.00  0.00    +0.000 C 
ATOM     21  C   UNL     1       5.800   5.403  18.933  0.00  0.00    +0.000 C 
ATOM     22  O   UNL     1       5.635   5.663  17.528  0.00  0.00    +0.000 OA
BRANCH  18  27
ATOM     23  C   UNL     1       5.717   3.370  12.708  0.00  0.00    +0.000 C 
ATOM     24  C   UNL     1       6.380   4.230  13.699  0.00  0.00    +0.000 A 
ATOM     25  N   UNL     1       7.425   5.016  13.399  0.00  0.00    +0.000 NA
ATOM     26  O   UNL     1       7.714   5.638  14.615  0.00  0.00    +0.000 OA
ATOM     27  C   UNL     1       6.808   5.158  15.521  0.00  0.00    +0.000 A 
ATOM     28  N   UNL     1       5.979   4.274  15.005  0.00  0.00    +0.000 NA
ENDBRANCH  18  27
ENDBRANCH  17  21
ENDBRANCH   1  17
TORSDOF 6
ENDMDL
MODEL 2
REMARK VINA RESULT:      -8.4      1.915      2.953
REMARK  Name = 
REMARK  7 active torsions:
REMARK  status: ('A' for Active; 'I' for Inactive)
REMARK    1  A    between atoms: C_1  and  C_2
REMARK    2  A    between atoms: C_5  and  C_6
REMARK    3  A    between atoms: C_9  and  C_10
REMARK    4  A    between atoms: C_10  and  N_11
REMARK    5  A    between atoms: N_11  and  S_12
REMARK    6  A    between atoms: S_12  and  C_15
REMARK    7  A    between atoms: C_15  and  C_16
REMARK                            x       y       z     vdW  Elec       q    Type
REMARK                         _______ _______ _______ _____ _____    ______ ____
ROOT
ATOM      1  N   UNL     1       3.665   3.713  18.437  0.00  0.00    +0.000 NA
ATOM      2  H   UNL     1       4.431   4.236  18.865  0.00  0.00    +0.000 HD
ENDROOT
BRANCH   1   3
ATOM      3  S   UNL     1       2.215   4.239  19.172  0.00  0.00    +0.000 S 
ATOM      4  O   UNL     1       1.410   4.749  18.079  0.00  0.00    +0.000 OA
ATOM      5  O   UNL     1       1.756   3.121  19.962  0.00  0.00    +0.000 OA
BRANCH   3   6
ATOM      6  C   UNL     1       2.762   5.623  20.211  0.00  0.00    +0.000 C 
BRANCH   6   7
ATOM      7  C   UNL     1       2.530   6.903  19.445  0.00  0.00    +0.000 A 
ATOM      8  C   UNL     1       3.147   7.073  18.191  0.00  0.00    +0.000 A 
ATOM      9  C   UNL     1       2.880   8.196  17.419  0.00  0.00    +0.000 A 
ATOM     10  C   UNL     1       1.999   9.161  17.891  0.00  0.00    +0.000 A 
ATOM     11  C   UNL     1       1.402   9.017  19.154  0.00  0.00    +0.000 A 
ATOM     12  C   UNL     1       0.527   9.996  19.645  0.00  0.00    +0.000 A 
ATOM     13  C   UNL     1      -0.044   9.845  20.900  0.00  0.00    +0.000 A 
ATOM     14  C   UNL     1       0.280   8.715  21.622  0.00  0.00    +0.000 A 
ATOM     15  N   UNL     1       1.120   7.748  21.180  0.00  0.00    +0.000 NA
ATOM     16  C   UNL     1       1.668   7.883  19.956  0.00  0.00    +0.000 A 
ENDBRANCH   6   7
ENDBRANCH   3   6
ENDBRANCH   1   3
BRANCH   1  17
ATOM     17  C   UNL     1       3.645   3.725  16.953  0.00  0.00    +0.000 C 
BRANCH  17  21
ATOM     18  C   UNL     1       6.868   5.061  16.297  0.00  0.00    +0.000 C 
ATOM     19  C   UNL     1       5.973   5.483  15.146  0.00  0.00    +0.000 C 
ATOM     20  C   UNL     1       5.158   4.237  14.905  0.00  0.00    +0.000 C 
ATOM     21  C   UNL     1       5.029   3.624  16.293  0.00  0.00    +0.000 C 
ATOM     22  O   UNL     1       6.047   4.211  17.123  0.00  0.00    +0.000 OA
BRANCH  18  27
ATOM     23  C   UNL     1       8.331   9.412  18.113  0.00  0.00    +0.000 C 
ATOM     24  C   UNL     1       8.029   7.981  17.965  0.00  0.00    +0.000 A 
ATOM     25  N   UNL     1       8.278   7.079  18.927  0.00  0.00    +0.000 NA
ATOM     26  O   UNL     1       7.835   5.882  18.362  0.00  0.00    +0.000 OA
ATOM     27  C   UNL     1       7.364   6.191  17.115  0.00  0.00    +0.000 A 
ATOM     28  N   UNL     1       7.481   7.470  16.821  0.00  0.00    +0.000 NA
ENDBRANCH  18  27
ENDBRANCH  17  21
ENDBRANCH   1  17
TORSDOF 6
ENDMDL
MODEL 3
REMARK VINA RESULT:      -8.2      2.745      7.022
REMARK  Name = 
REMARK  7 active torsions:
REMARK  status: ('A' for Active; 'I' for Inactive)
REMARK    1  A    between atoms: C_1  and  C_2
REMARK    2  A    between atoms: C_5  and  C_6
REMARK    3  A    between atoms: C_9  and  C_10
REMARK    4  A    between atoms: C_10  and  N_11
REMARK    5  A    between atoms: N_11  and  S_12
REMARK    6  A    between atoms: S_12  and  C_15
REMARK    7  A    between atoms: C_15  and  C_16
REMARK                            x       y       z     vdW  Elec       q    Type
REMARK                         _______ _______ _______ _____ _____    ______ ____
ROOT
ATOM      1  N   UNL     1       1.799   4.611  18.594  0.00  0.00    +0.000 NA
ATOM      2  H   UNL     1       2.179   4.970  17.716  0.00  0.00    +0.000 HD
ENDROOT
BRANCH   1   3
ATOM      3  S   UNL     1       2.304   2.985  18.739  0.00  0.00    +0.000 S 
ATOM      4  O   UNL     1       1.590   2.479  19.896  0.00  0.00    +0.000 OA
ATOM      5  O   UNL     1       2.098   2.400  17.436  0.00  0.00    +0.000 OA
BRANCH   3   6
ATOM      6  C   UNL     1       4.066   3.138  19.142  0.00  0.00    +0.000 C 
BRANCH   6   7
ATOM      7  C   UNL     1       4.746   3.858  18.002  0.00  0.00    +0.000 A 
ATOM      8  C   UNL     1       4.257   3.684  16.693  0.00  0.00    +0.000 A 
ATOM      9  C   UNL     1       4.799   4.403  15.636  0.00  0.00    +0.000 A 
ATOM     10  C   UNL     1       5.833   5.300  15.873  0.00  0.00    +0.000 A 
ATOM     11  C   UNL     1       6.349   5.459  17.169  0.00  0.00    +0.000 A 
ATOM     12  C   UNL     1       7.404   6.348  17.413  0.00  0.00    +0.000 A 
ATOM     13  C   UNL     1       7.911   6.484  18.697  0.00  0.00    +0.000 A 
ATOM     14  C   UNL     1       7.340   5.724  19.698  0.00  0.00    +0.000 A 
ATOM     15  N   UNL     1       6.318   4.856  19.500  0.00  0.00    +0.000 NA
ATOM     16  C   UNL     1       5.813   4.729  18.256  0.00  0.00    +0.000 A 
ENDBRANCH   6   7
ENDBRANCH   3   6
ENDBRANCH   1   3
BRANCH   1  17
ATOM     17  C   UNL     1       2.065   5.451  19.788  0.00  0.00    +0.000 C 
BRANCH  17  21
ATOM     18  C   UNL     1       1.963   8.912  19.012  0.00  0.00    +0.000 C 
ATOM     19  C   UNL     1       2.071   8.169  17.694  0.00  0.00    +0.000 C 
ATOM     20  C   UNL     1       3.060   7.079  18.026  0.00  0.00    +0.000 C 
ATOM     21  C   UNL     1       2.777   6.779  19.492  0.00  0.00    +0.000 C 
ATOM     22  O   UNL     1       2.045   7.895  20.030  0.00  0.00    +0.000 OA
BRANCH  18  27
ATOM     23  C   UNL     1      -2.284  11.371  18.467  0.00  0.00    +0.000 C 
ATOM     24  C   UNL     1      -1.098  10.725  19.050  0.00  0.00    +0.000 A 
ATOM     25  N   UNL     1      -0.845  10.717  20.368  0.00  0.00    +0.000 NA
ATOM     26  O   UNL     1       0.351  10.003  20.457  0.00  0.00    +0.000 OA
ATOM     27  C   UNL     1       0.693   9.656  19.179  0.00  0.00    +0.000 A 
ATOM     28  N   UNL     1      -0.162  10.095  18.277  0.00  0.00    +0.000 NA
ENDBRANCH  18  27
ENDBRANCH  17  21
ENDBRANCH   1  17
TORSDOF 6
ENDMDL
MODEL 4
REMARK VINA RESULT:      -8.1      2.963      7.294
REMARK  Name = 
REMARK  7 active torsions:
REMARK  status: ('A' for Active; 'I' for Inactive)
REMARK    1  A    between atoms: C_1  and  C_2
REMARK    2  A    between atoms: C_5  and  C_6
REMARK    3  A    between atoms: C_9  and  C_10
REMARK    4  A    between atoms: C_10  and  N_11
REMARK    5  A    between atoms: N_11  and  S_12
REMARK    6  A    between atoms: S_12  and  C_15
REMARK    7  A    between atoms: C_15  and  C_16
REMARK                            x       y       z     vdW  Elec       q    Type
REMARK                         _______ _______ _______ _____ _____    ______ ____
ROOT
ATOM      1  N   UNL     1       2.546   5.432  19.298  0.00  0.00    +0.000 NA
ATOM      2  H   UNL     1       3.527   5.624  19.088  0.00  0.00    +0.000 HD
ENDROOT
BRANCH   1   3
ATOM      3  S   UNL     1       2.477   3.905  20.061  0.00  0.00    +0.000 S 
ATOM      4  O   UNL     1       2.375   4.204  21.477  0.00  0.00    +0.000 OA
ATOM      5  O   UNL     1       1.424   3.184  19.385  0.00  0.00    +0.000 OA
BRANCH   3   6
ATOM      6  C   UNL     1       4.112   3.199  19.713  0.00  0.00    +0.000 C 
BRANCH   6   7
ATOM      7  C   UNL     1       4.638   3.836  18.450  0.00  0.00    +0.000 A 
ATOM      8  C   UNL     1       3.979   3.585  17.231  0.00  0.00    +0.000 A 
ATOM      9  C   UNL     1       4.379   4.228  16.067  0.00  0.00    +0.000 A 
ATOM     10  C   UNL     1       5.439   5.124  16.106  0.00  0.00    +0.000 A 
ATOM     11  C   UNL     1       6.124   5.359  17.310  0.00  0.00    +0.000 A 
ATOM     12  C   UNL     1       7.206   6.247  17.354  0.00  0.00    +0.000 A 
ATOM     13  C   UNL     1       7.880   6.458  18.548  0.00  0.00    +0.000 A 
ATOM     14  C   UNL     1       7.443   5.771  19.662  0.00  0.00    +0.000 A 
ATOM     15  N   UNL     1       6.400   4.905  19.659  0.00  0.00    +0.000 NA
ATOM     16  C   UNL     1       5.734   4.707  18.503  0.00  0.00    +0.000 A 
ENDBRANCH   6   7
ENDBRANCH   3   6
ENDBRANCH   1   3
BRANCH   1  17
ATOM     17  C   UNL     1       1.831   6.516  20.017  0.00  0.00    +0.000 C 
BRANCH  17  21
ATOM     18  C   UNL     1       1.114   9.749  18.740  0.00  0.00    +0.000 C 
ATOM     19  C   UNL     1       1.617   8.916  17.574  0.00  0.00    +0.000 C 
ATOM     20  C   UNL     1       2.744   8.138  18.205  0.00  0.00    +0.000 C 
ATOM     21  C   UNL     1       2.276   7.937  19.640  0.00  0.00    +0.000 C 
ATOM     22  O   UNL     1       1.234   8.895  19.895  0.00  0.00    +0.000 OA
BRANCH  18  27
ATOM     23  C   UNL     1      -3.556  10.577  17.370  0.00  0.00    +0.000 C 
ATOM     24  C   UNL     1      -2.277  10.608  18.095  0.00  0.00    +0.000 A 
ATOM     25  N   UNL     1      -2.078  11.357  19.191  0.00  0.00    +0.000 NA
ATOM     26  O   UNL     1      -0.755  11.072  19.533  0.00  0.00    +0.000 OA
ATOM     27  C   UNL     1      -0.297  10.178  18.605  0.00  0.00    +0.000 A 
ATOM     28  N   UNL     1      -1.195   9.878  17.689  0.00  0.00    +0.000 NA
ENDBRANCH  18  27
ENDBRANCH  17  21
ENDBRANCH   1  17
TORSDOF 6
ENDMDL
MODEL 5
REMARK VINA RESULT:      -7.8      2.572      7.153
REMARK  Name = 
REMARK  7 active torsions:
REMARK  status: ('A' for Active; 'I' for Inactive)
REMARK    1  A    between atoms: C_1  and  C_2
REMARK    2  A    between atoms: C_5  and  C_6
REMARK    3  A    between atoms: C_9  and  C_10
REMARK    4  A    between atoms: C_10  and  N_11
REMARK    5  A    between atoms: N_11  and  S_12
REMARK    6  A    between atoms: S_12  and  C_15
REMARK    7  A    between atoms: C_15  and  C_16
REMARK                            x       y       z     vdW  Elec       q    Type
REMARK                         _______ _______ _______ _____ _____    ______ ____
ROOT
ATOM      1  N   UNL     1       2.300   4.358  20.311  0.00  0.00    +0.000 NA
ATOM      2  H   UNL     1       1.884   3.819  21.073  0.00  0.00    +0.000 HD
ENDROOT
BRANCH   1   3
ATOM      3  S   UNL     1       2.605   3.274  19.027  0.00  0.00    +0.000 S 
ATOM      4  O   UNL     1       2.002   2.023  19.448  0.00  0.00    +0.000 OA
ATOM      5  O   UNL     1       2.142   3.947  17.837  0.00  0.00    +0.000 OA
BRANCH   3   6
ATOM      6  C   UNL     1       4.411   3.106  19.052  0.00  0.00    +0.000 C 
BRANCH   6   7
ATOM      7  C   UNL     1       4.973   3.930  17.919  0.00  0.00    +0.000 A 
ATOM      8  C   UNL     1       4.421   3.792  16.631  0.00  0.00    +0.000 A 
ATOM      9  C   UNL     1       4.851   4.602  15.588  0.00  0.00    +0.000 A 
ATOM     10  C   UNL     1       5.835   5.554  15.818  0.00  0.00    +0.000 A 
ATOM     11  C   UNL     1       6.415   5.680  17.091  0.00  0.00    +0.000 A 
ATOM     12  C   UNL     1       7.423   6.625  17.325  0.00  0.00    +0.000 A 
ATOM     13  C   UNL     1       7.994   6.727  18.585  0.00  0.00    +0.000 A 
ATOM     14  C   UNL     1       7.535   5.878  19.571  0.00  0.00    +0.000 A 
ATOM     15  N   UNL     1       6.563   4.953  19.382  0.00  0.00    +0.000 NA
ATOM     16  C   UNL     1       5.995   4.858  18.162  0.00  0.00    +0.000 A 
ENDBRANCH   6   7
ENDBRANCH   3   6
ENDBRANCH   1   3
BRANCH   1  17
ATOM     17  C   UNL     1       1.555   5.582  19.924  0.00  0.00    +0.000 C 
BRANCH  17  21
ATOM     18  C   UNL     1       1.909   9.028  19.152  0.00  0.00    +0.000 C 
ATOM     19  C   UNL     1       1.973   8.273  17.837  0.00  0.00    +0.000 C 
ATOM     20  C   UNL     1       2.807   7.071  18.203  0.00  0.00    +0.000 C 
ATOM     21  C   UNL     1       2.436   6.812  19.657  0.00  0.00    +0.000 C 
ATOM     22  O   UNL     1       1.828   8.010  20.170  0.00  0.00    +0.000 OA
BRANCH  18  27
ATOM     23  C   UNL     1      -1.763  11.979  20.629  0.00  0.00    +0.000 C 
ATOM     24  C   UNL     1      -0.864  11.159  19.803  0.00  0.00    +0.000 A 
ATOM     25  N   UNL     1      -1.040  10.986  18.484  0.00  0.00    +0.000 NA
ATOM     26  O   UNL     1       0.027  10.160  18.127  0.00  0.00    +0.000 OA
ATOM     27  C   UNL     1       0.735   9.923  19.273  0.00  0.00    +0.000 A 
ATOM     28  N   UNL     1       0.212  10.503  20.334  0.00  0.00    +0.000 NA
ENDBRANCH  18  27
ENDBRANCH  17  21
ENDBRANCH   1  17
TORSDOF 6
ENDMDL
MODEL 6
REMARK VINA RESULT:      -7.8      3.188      4.838
REMARK  Name = 
REMARK  7 active torsions:
REMARK  status: ('A' for Active; 'I' for Inactive)
REMARK    1  A    between atoms: C_1  and  C_2
REMARK    2  A    between atoms: C_5  and  C_6
REMARK    3  A    between atoms: C_9  and  C_10
REMARK    4  A    between atoms: C_10  and  N_11
REMARK    5  A    between atoms: N_11  and  S_12
REMARK    6  A    between atoms: S_12  and  C_15
REMARK    7  A    between atoms: C_15  and  C_16
REMARK                            x       y       z     vdW  Elec       q    Type
REMARK                         _______ _______ _______ _____ _____    ______ ____
ROOT
ATOM      1  N   UNL     1       2.058   8.086  21.011  0.00  0.00    +0.000 NA
ATOM      2  H   UNL     1       2.913   8.642  21.068  0.00  0.00    +0.000 HD
ENDROOT
BRANCH   1   3
ATOM      3  S   UNL     1       0.739   9.167  21.121  0.00  0.00    +0.000 S 
ATOM      4  O   UNL     1      -0.392   8.335  21.485  0.00  0.00    +0.000 OA
ATOM      5  O   UNL     1       1.182  10.227  21.996  0.00  0.00    +0.000 OA
BRANCH   3   6
ATOM      6  C   UNL     1       0.536   9.740  19.412  0.00  0.00    +0.000 C 
BRANCH   6   7
ATOM      7  C   UNL     1      -0.030  11.139  19.451  0.00  0.00    +0.000 A 
ATOM      8  C   UNL     1      -1.352  11.331  19.897  0.00  0.00    +0.000 A 
ATOM      9  C   UNL     1      -1.871  12.611  20.035  0.00  0.00    +0.000 A 
ATOM     10  C   UNL     1      -1.081  13.711  19.727  0.00  0.00    +0.000 A 
ATOM     11  C   UNL     1       0.229  13.530  19.252  0.00  0.00    +0.000 A 
ATOM     12  C   UNL     1       1.026  14.634  18.922  0.00  0.00    +0.000 A 
ATOM     13  C   UNL     1       2.313  14.438  18.442  0.00  0.00    +0.000 A 
ATOM     14  C   UNL     1       2.759  13.139  18.310  0.00  0.00    +0.000 A 
ATOM     15  N   UNL     1       2.018  12.048  18.620  0.00  0.00    +0.000 NA
ATOM     16  C   UNL     1       0.771  12.233  19.099  0.00  0.00    +0.000 A 
ENDBRANCH   6   7
ENDBRANCH   3   6
ENDBRANCH   1   3
BRANCH   1  17
ATOM     17  C   UNL     1       1.992   7.145  19.865  0.00  0.00    +0.000 C 
BRANCH  17  21
ATOM     18  C   UNL     1       3.996   4.290  19.212  0.00  0.00    +0.000 C 
ATOM     19  C   UNL     1       2.691   4.092  18.464  0.00  0.00    +0.000 C 
ATOM     20  C   UNL     1       1.677   4.599  19.459  0.00  0.00    +0.000 C 
ATOM     21  C   UNL     1       2.423   5.707  20.191  0.00  0.00    +0.000 C 
ATOM     22  O   UNL     1       3.828   5.516  19.951  0.00  0.00    +0.000 OA
BRANCH  18  27
ATOM     23  C   UNL     1       7.186   4.697  15.464  0.00  0.00    +0.000 C 
ATOM     24  C   UNL     1       6.607   4.570  16.811  0.00  0.00    +0.000 A 
ATOM     25  N   UNL     1       7.354   4.492  17.922  0.00  0.00    +0.000 NA
ATOM     26  O   UNL     1       6.403   4.392  18.938  0.00  0.00    +0.000 OA
ATOM     27  C   UNL     1       5.179   4.421  18.329  0.00  0.00    +0.000 A 
ATOM     28  N   UNL     1       5.256   4.512  17.017  0.00  0.00    +0.000 NA
ENDBRANCH  18  27
ENDBRANCH  17  21
ENDBRANCH   1  17
TORSDOF 6
ENDMDL
MODEL 7
REMARK VINA RESULT:      -7.8      2.769      7.931
REMARK  Name = 
REMARK  7 active torsions:
REMARK  status: ('A' for Active; 'I' for Inactive)
REMARK    1  A    between atoms: C_1  and  C_2
REMARK    2  A    between atoms: C_5  and  C_6
REMARK    3  A    between atoms: C_9  and  C_10
REMARK    4  A    between atoms: C_10  and  N_11
REMARK    5  A    between atoms: N_11  and  S_12
REMARK    6  A    between atoms: S_12  and  C_15
REMARK    7  A    between atoms: C_15  and  C_16
REMARK                            x       y       z     vdW  Elec       q    Type
REMARK                         _______ _______ _______ _____ _____    ______ ____
ROOT
ATOM      1  N   UNL     1       2.733   5.566  18.903  0.00  0.00    +0.000 NA
ATOM      2  H   UNL     1       3.698   5.881  19.020  0.00  0.00    +0.000 HD
ENDROOT
BRANCH   1   3
ATOM      3  S   UNL     1       2.591   4.056  19.691  0.00  0.00    +0.000 S 
ATOM      4  O   UNL     1       2.501   4.382  21.101  0.00  0.00    +0.000 OA
ATOM      5  O   UNL     1       1.507   3.375  19.024  0.00  0.00    +0.000 OA
BRANCH   3   6
ATOM      6  C   UNL     1       4.192   3.269  19.358  0.00  0.00    +0.000 C 
BRANCH   6   7
ATOM      7  C   UNL     1       4.811   3.954  18.164  0.00  0.00    +0.000 A 
ATOM      8  C   UNL     1       4.255   3.742  16.888  0.00  0.00    +0.000 A 
ATOM      9  C   UNL     1       4.741   4.429  15.783  0.00  0.00    +0.000 A 
ATOM     10  C   UNL     1       5.786   5.330  15.939  0.00  0.00    +0.000 A 
ATOM     11  C   UNL     1       6.369   5.526  17.202  0.00  0.00    +0.000 A 
ATOM     12  C   UNL     1       7.436   6.420  17.364  0.00  0.00    +0.000 A 
ATOM     13  C   UNL     1       8.009   6.592  18.615  0.00  0.00    +0.000 A 
ATOM     14  C   UNL     1       7.492   5.863  19.666  0.00  0.00    +0.000 A 
ATOM     15  N   UNL     1       6.460   4.992  19.548  0.00  0.00    +0.000 NA
ATOM     16  C   UNL     1       5.891   4.830  18.336  0.00  0.00    +0.000 A 
ENDBRANCH   6   7
ENDBRANCH   3   6
ENDBRANCH   1   3
BRANCH   1  17
ATOM     17  C   UNL     1       1.695   6.558  19.277  0.00  0.00    +0.000 C 
BRANCH  17  21
ATOM     18  C   UNL     1       1.298   9.973  20.159  0.00  0.00    +0.000 C 
ATOM     19  C   UNL     1       0.586   9.775  18.833  0.00  0.00    +0.000 C 
ATOM     20  C   UNL     1       1.538   8.867  18.096  0.00  0.00    +0.000 C 
ATOM     21  C   UNL     1       2.153   8.023  19.205  0.00  0.00    +0.000 C 
ATOM     22  O   UNL     1       1.918   8.704  20.450  0.00  0.00    +0.000 OA
BRANCH  18  27
ATOM     23  C   UNL     1      -2.224  11.773  23.114  0.00  0.00    +0.000 C 
ATOM     24  C   UNL     1      -1.039  11.062  22.610  0.00  0.00    +0.000 A 
ATOM     25  N   UNL     1      -0.225  10.347  23.402  0.00  0.00    +0.000 NA
ATOM     26  O   UNL     1       0.734   9.859  22.514  0.00  0.00    +0.000 OA
ATOM     27  C   UNL     1       0.394  10.333  21.276  0.00  0.00    +0.000 A 
ATOM     28  N   UNL     1      -0.681  11.094  21.291  0.00  0.00    +0.000 NA
ENDBRANCH  18  27
ENDBRANCH  17  21
ENDBRANCH   1  17
TORSDOF 6
ENDMDL
MODEL 8
REMARK VINA RESULT:      -7.7      2.663      8.169
REMARK  Name = 
REMARK  7 active torsions:
REMARK  status: ('A' for Active; 'I' for Inactive)
REMARK    1  A    between atoms: C_1  and  C_2
REMARK    2  A    between atoms: C_5  and  C_6
REMARK    3  A    between atoms: C_9  and  C_10
REMARK    4  A    between atoms: C_10  and  N_11
REMARK    5  A    between atoms: N_11  and  S_12
REMARK    6  A    between atoms: S_12  and  C_15
REMARK    7  A    between atoms: C_15  and  C_16
REMARK                            x       y       z     vdW  Elec       q    Type
REMARK                         _______ _______ _______ _____ _____    ______ ____
ROOT
ATOM      1  N   UNL     1       2.309   5.387  20.811  0.00  0.00    +0.000 NA
ATOM      2  H   UNL     1       2.323   4.837  21.672  0.00  0.00    +0.000 HD
ENDROOT
BRANCH   1   3
ATOM      3  S   UNL     1       2.165   4.291  19.509  0.00  0.00    +0.000 S 
ATOM      4  O   UNL     1       1.177   3.324  19.947  0.00  0.00    +0.000 OA
ATOM      5  O   UNL     1       1.926   5.108  18.343  0.00  0.00    +0.000 OA
BRANCH   3   6
ATOM      6  C   UNL     1       3.797   3.499  19.458  0.00  0.00    +0.000 C 
BRANCH   6   7
ATOM      7  C   UNL     1       4.526   4.009  18.239  0.00  0.00    +0.000 A 
ATOM      8  C   UNL     1       4.009   3.721  16.961  0.00  0.00    +0.000 A 
ATOM      9  C   UNL     1       4.603   4.252  15.824  0.00  0.00    +0.000 A 
ATOM     10  C   UNL     1       5.716   5.072  15.948  0.00  0.00    +0.000 A 
ATOM     11  C   UNL     1       6.259   5.341  17.215  0.00  0.00    +0.000 A 
ATOM     12  C   UNL     1       7.395   6.152  17.348  0.00  0.00    +0.000 A 
ATOM     13  C   UNL     1       7.926   6.397  18.606  0.00  0.00    +0.000 A 
ATOM     14  C   UNL     1       7.299   5.821  19.692  0.00  0.00    +0.000 A 
ATOM     15  N   UNL     1       6.200   5.033  19.603  0.00  0.00    +0.000 NA
ATOM     16  C   UNL     1       5.672   4.802  18.384  0.00  0.00    +0.000 A 
ENDBRANCH   6   7
ENDBRANCH   3   6
ENDBRANCH   1   3
BRANCH   1  17
ATOM     17  C   UNL     1       1.330   6.503  20.792  0.00  0.00    +0.000 C 
BRANCH  17  21
ATOM     18  C   UNL     1       1.085  10.043  20.802  0.00  0.00    +0.000 C 
ATOM     19  C   UNL     1       0.717   9.581  19.405  0.00  0.00    +0.000 C 
ATOM     20  C   UNL     1       1.723   8.484  19.160  0.00  0.00    +0.000 C 
ATOM     21  C   UNL     1       1.943   7.889  20.544  0.00  0.00    +0.000 C 
ATOM     22  O   UNL     1       1.472   8.848  21.508  0.00  0.00    +0.000 OA
BRANCH  18  27
ATOM     23  C   UNL     1      -2.950  12.508  22.226  0.00  0.00    +0.000 C 
ATOM     24  C   UNL     1      -1.701  11.731  22.234  0.00  0.00    +0.000 A 
ATOM     25  N   UNL     1      -1.093  11.338  23.364  0.00  0.00    +0.000 NA
ATOM     26  O   UNL     1       0.024  10.642  22.898  0.00  0.00    +0.000 OA
ATOM     27  C   UNL     1      -0.030  10.691  21.532  0.00  0.00    +0.000 A 
ATOM     28  N   UNL     1      -1.066  11.367  21.079  0.00  0.00    +0.000 NA
ENDBRANCH  18  27
ENDBRANCH  17  21
ENDBRANCH   1  17
TORSDOF 6
ENDMDL
MODEL 9
REMARK VINA RESULT:      -7.7      2.477      7.423
REMARK  Name = 
REMARK  7 active torsions:
REMARK  status: ('A' for Active; 'I' for Inactive)
REMARK    1  A    between atoms: C_1  and  C_2
REMARK    2  A    between atoms: C_5  and  C_6
REMARK    3  A    between atoms: C_9  and  C_10
REMARK    4  A    between atoms: C_10  and  N_11
REMARK    5  A    between atoms: N_11  and  S_12
REMARK    6  A    between atoms: S_12  and  C_15
REMARK    7  A    between atoms: C_15  and  C_16
REMARK                            x       y       z     vdW  Elec       q    Type
REMARK                         _______ _______ _______ _____ _____    ______ ____
ROOT
ATOM      1  N   UNL     1       2.121   4.875  18.382  0.00  0.00    +0.000 NA
ATOM      2  H   UNL     1       2.957   5.082  17.832  0.00  0.00    +0.000 HD
ENDROOT
BRANCH   1   3
ATOM      3  S   UNL     1       2.168   3.212  18.774  0.00  0.00    +0.000 S 
ATOM      4  O   UNL     1       2.366   3.176  20.210  0.00  0.00    +0.000 OA
ATOM      5  O   UNL     1       0.980   2.644  18.182  0.00  0.00    +0.000 OA
BRANCH   3   6
ATOM      6  C   UNL     1       3.678   2.639  17.946  0.00  0.00    +0.000 C 
BRANCH   6   7
ATOM      7  C   UNL     1       4.699   3.748  18.015  0.00  0.00    +0.000 A 
ATOM      8  C   UNL     1       5.033   4.296  19.268  0.00  0.00    +0.000 A 
ATOM      9  C   UNL     1       6.035   5.251  19.377  0.00  0.00    +0.000 A 
ATOM     10  C   UNL     1       6.711   5.671  18.239  0.00  0.00    +0.000 A 
ATOM     11  C   UNL     1       6.365   5.155  16.979  0.00  0.00    +0.000 A 
ATOM     12  C   UNL     1       7.029   5.587  15.824  0.00  0.00    +0.000 A 
ATOM     13  C   UNL     1       6.667   5.077  14.586  0.00  0.00    +0.000 A 
ATOM     14  C   UNL     1       5.649   4.146  14.547  0.00  0.00    +0.000 A 
ATOM     15  N   UNL     1       4.985   3.703  15.642  0.00  0.00    +0.000 NA
ATOM     16  C   UNL     1       5.342   4.187  16.850  0.00  0.00    +0.000 A 
ENDBRANCH   6   7
ENDBRANCH   3   6
ENDBRANCH   1   3
BRANCH   1  17
ATOM     17  C   UNL     1       1.888   5.776  19.538  0.00  0.00    +0.000 C 
BRANCH  17  21
ATOM     18  C   UNL     1       1.708   9.273  18.957  0.00  0.00    +0.000 C 
ATOM     19  C   UNL     1       2.041   8.621  17.627  0.00  0.00    +0.000 C 
ATOM     20  C   UNL     1       3.031   7.559  18.035  0.00  0.00    +0.000 C 
ATOM     21  C   UNL     1       2.561   7.152  19.425  0.00  0.00    +0.000 C 
ATOM     22  O   UNL     1       1.701   8.196  19.915  0.00  0.00    +0.000 OA
BRANCH  18  27
ATOM     23  C   UNL     1      -2.740  11.185  17.988  0.00  0.00    +0.000 C 
ATOM     24  C   UNL     1      -1.487  10.810  18.660  0.00  0.00    +0.000 A 
ATOM     25  N   UNL     1      -1.189  11.190  19.912  0.00  0.00    +0.000 NA
ATOM     26  O   UNL     1       0.064  10.613  20.130  0.00  0.00    +0.000 OA
ATOM     27  C   UNL     1       0.388   9.944  18.981  0.00  0.00    +0.000 A 
ATOM     28  N   UNL     1      -0.530  10.054  18.042  0.00  0.00    +0.000 NA
ENDBRANCH  18  27
ENDBRANCH  17  21
ENDBRANCH   1  17
TORSDOF 6
ENDMDL
