MODEL 1
REMARK VINA RESULT:      -8.7      0.000      0.000
REMARK  Name = 
REMARK  3 active torsions:
REMARK  status: ('A' for Active; 'I' for Inactive)
REMARK    1  A    between atoms: C_2  and  C_12
REMARK    2  A    between atoms: N_3  and  C_4
REMARK    3  A    between atoms: C_4  and  C_5
REMARK                            x       y       z     vdW  Elec       q    Type
REMARK                         _______ _______ _______ _____ _____    ______ ____
ROOT
ATOM      1  C   UNL     1       2.085   7.321  19.772  0.00  0.00    +0.000 A 
ATOM      2  N   UNL     1       1.993   6.045  20.304  0.00  0.00    +0.000 NA
ATOM      3  C   UNL     1       2.590   5.307  19.415  0.00  0.00    +0.000 A 
ATOM      4  N   UNL     1       3.102   6.090  18.405  0.00  0.00    +0.000 N 
ATOM      5  N   UNL     1       2.779   7.393  18.611  0.00  0.00    +0.000 NA
ATOM      6  C   UNL     1       3.974   5.598  17.409  0.00  0.00    +0.000 A 
ATOM      7  C   UNL     1       4.749   6.461  16.633  0.00  0.00    +0.000 A 
ATOM      8  C   UNL     1       5.681   5.923  15.736  0.00  0.00    +0.000 A 
ATOM      9  C   UNL     1       5.828   4.537  15.600  0.00  0.00    +0.000 A 
ATOM     10  C   UNL     1       5.040   3.672  16.355  0.00  0.00    +0.000 A 
ATOM     11  C   UNL     1       4.115   4.206  17.255  0.00  0.00    +0.000 A 
ATOM     12  S   UNL     1       3.055   3.101  18.153  0.00  0.00    +0.000 S 
ATOM     13  O   UNL     1       1.817   3.030  17.409  0.00  0.00    +0.000 OA
ATOM     14  O   UNL     1       3.822   1.924  18.490  0.00  0.00    +0.000 OA
ATOM     15  N   UNL     1       2.773   3.924  19.568  0.00  0.00    +0.000 N 
ATOM     16  H   UNL     1       2.475   3.435  20.405  0.00  0.00    +0.000 HD
ENDROOT
BRANCH   1  18
ATOM     17  O   UNL     1       1.304   8.506  21.675  0.00  0.00    +0.000 OA
ATOM     18  C   UNL     1       1.460   8.476  20.458  0.00  0.00    +0.000 C 
ATOM     19  N   UNL     1       1.038   9.511  19.644  0.00  0.00    +0.000 N 
ATOM     20  H   UNL     1       1.063   9.366  18.641  0.00  0.00    +0.000 HD
BRANCH  19  21
ATOM     21  C   UNL     1       0.287  10.608  20.209  0.00  0.00    +0.000 C 
BRANCH  21  22
ATOM     22  C   UNL     1      -0.952  10.915  19.414  0.00  0.00    +0.000 A 
ATOM     23  C   UNL     1      -1.200  10.275  18.191  0.00  0.00    +0.000 A 
ATOM     24  C   UNL     1      -2.361  10.561  17.470  0.00  0.00    +0.000 A 
ATOM     25  C   UNL     1      -3.270  11.487  17.969  0.00  0.00    +0.000 A 
ATOM     26  F   UNL     1      -4.384  11.759  17.276  0.00  0.00    +0.000 F 
ATOM     27  C   UNL     1      -3.042  12.134  19.177  0.00  0.00    +0.000 A 
ATOM     28  C   UNL     1      -1.882  11.852  19.898  0.00  0.00    +0.000 A 
ENDBRANCH  21  22
ENDBRANCH  19  21
ENDBRANCH   1  18
TORSDOF 3
ENDMDL
MODEL 2
REMARK VINA RESULT:      -8.7      2.235      3.355
REMARK  Name = 
REMARK  3 active torsions:
REMARK  status: ('A' for Active; 'I' for Inactive)
REMARK    1  A    between atoms: C_2  and  C_12
REMARK    2  A    between atoms: N_3  and  C_4
REMARK    3  A    between atoms: C_4  and  C_5
REMARK                            x       y       z     vdW  Elec       q    Type
REMARK                         _______ _______ _______ _____ _____    ______ ____
ROOT
ATOM      1  C   UNL     1       2.256   8.270  18.493  0.00  0.00    +0.000 A 
ATOM      2  N   UNL     1       3.258   7.815  17.653  0.00  0.00    +0.000 NA
ATOM      3  C   UNL     1       3.600   6.677  18.184  0.00  0.00    +0.000 A 
ATOM      4  N   UNL     1       2.798   6.391  19.266  0.00  0.00    +0.000 N 
ATOM      5  N   UNL     1       1.929   7.411  19.489  0.00  0.00    +0.000 NA
ATOM      6  C   UNL     1       2.793   5.139  19.918  0.00  0.00    +0.000 A 
ATOM      7  C   UNL     1       1.742   4.761  20.755  0.00  0.00    +0.000 A 
ATOM      8  C   UNL     1       1.727   3.467  21.290  0.00  0.00    +0.000 A 
ATOM      9  C   UNL     1       2.757   2.561  21.008  0.00  0.00    +0.000 A 
ATOM     10  C   UNL     1       3.820   2.942  20.192  0.00  0.00    +0.000 A 
ATOM     11  C   UNL     1       3.834   4.230  19.653  0.00  0.00    +0.000 A 
ATOM     12  S   UNL     1       5.232   4.738  18.683  0.00  0.00    +0.000 S 
ATOM     13  O   UNL     1       6.116   5.445  19.582  0.00  0.00    +0.000 OA
ATOM     14  O   UNL     1       5.670   3.602  17.903  0.00  0.00    +0.000 OA
ATOM     15  N   UNL     1       4.570   5.833  17.623  0.00  0.00    +0.000 N 
ATOM     16  H   UNL     1       5.033   6.058  16.749  0.00  0.00    +0.000 HD
ENDROOT
BRANCH   1  18
ATOM     17  O   UNL     1       2.129  10.444  17.549  0.00  0.00    +0.000 OA
ATOM     18  C   UNL     1       1.625   9.593  18.275  0.00  0.00    +0.000 C 
ATOM     19  N   UNL     1       0.445   9.825  18.959  0.00  0.00    +0.000 N 
ATOM     20  H   UNL     1       0.157   9.143  19.651  0.00  0.00    +0.000 HD
BRANCH  19  21
ATOM     21  C   UNL     1      -0.160  11.136  18.921  0.00  0.00    +0.000 C 
BRANCH  21  22
ATOM     22  C   UNL     1      -1.607  11.080  18.516  0.00  0.00    +0.000 A 
ATOM     23  C   UNL     1      -2.555  11.929  19.107  0.00  0.00    +0.000 A 
ATOM     24  C   UNL     1      -3.892  11.873  18.711  0.00  0.00    +0.000 A 
ATOM     25  C   UNL     1      -4.283  10.969  17.731  0.00  0.00    +0.000 A 
ATOM     26  F   UNL     1      -5.567  10.918  17.353  0.00  0.00    +0.000 F 
ATOM     27  C   UNL     1      -3.361  10.117  17.136  0.00  0.00    +0.000 A 
ATOM     28  C   UNL     1      -2.024  10.169  17.530  0.00  0.00    +0.000 A 
ENDBRANCH  21  22
ENDBRANCH  19  21
ENDBRANCH   1  18
TORSDOF 3
ENDMDL
MODEL 3
REMARK VINA RESULT:      -8.5      2.174      2.868
REMARK  Name = 
REMARK  3 active torsions:
REMARK  status: ('A' for Active; 'I' for Inactive)
REMARK    1  A    between atoms: C_2  and  C_12
REMARK    2  A    between atoms: N_3  and  C_4
REMARK    3  A    between atoms: C_4  and  C_5
REMARK                            x       y       z     vdW  Elec       q    Type
REMARK                         _______ _______ _______ _____ _____    ______ ____
ROOT
ATOM      1  C   UNL     1       2.520   8.091  17.962  0.00  0.00    +0.000 A 
ATOM      2  N   UNL     1       3.800   7.970  17.448  0.00  0.00    +0.000 NA
ATOM      3  C   UNL     1       4.062   6.704  17.590  0.00  0.00    +0.000 A 
ATOM      4  N   UNL     1       2.967   6.041  18.099  0.00  0.00    +0.000 N 
ATOM      5  N   UNL     1       1.964   6.920  18.356  0.00  0.00    +0.000 NA
ATOM      6  C   UNL     1       2.877   4.634  18.171  0.00  0.00    +0.000 A 
ATOM      7  C   UNL     1       1.649   3.993  18.346  0.00  0.00    +0.000 A 
ATOM      8  C   UNL     1       1.595   2.595  18.299  0.00  0.00    +0.000 A 
ATOM      9  C   UNL     1       2.756   1.839  18.096  0.00  0.00    +0.000 A 
ATOM     10  C   UNL     1       3.988   2.473  17.945  0.00  0.00    +0.000 A 
ATOM     11  C   UNL     1       4.042   3.867  17.985  0.00  0.00    +0.000 A 
ATOM     12  S   UNL     1       5.624   4.666  17.876  0.00  0.00    +0.000 S 
ATOM     13  O   UNL     1       6.044   4.924  19.235  0.00  0.00    +0.000 OA
ATOM     14  O   UNL     1       6.438   3.919  16.945  0.00  0.00    +0.000 OA
ATOM     15  N   UNL     1       5.258   6.116  17.152  0.00  0.00    +0.000 N 
ATOM     16  H   UNL     1       5.971   6.653  16.669  0.00  0.00    +0.000 HD
ENDROOT
BRANCH   1  18
ATOM     17  O   UNL     1       2.321  10.412  17.505  0.00  0.00    +0.000 OA
ATOM     18  C   UNL     1       1.858   9.414  18.049  0.00  0.00    +0.000 C 
ATOM     19  N   UNL     1       0.699   9.466  18.802  0.00  0.00    +0.000 N 
ATOM     20  H   UNL     1       0.447   8.646  19.342  0.00  0.00    +0.000 HD
BRANCH  19  21
ATOM     21  C   UNL     1       0.070  10.740  19.062  0.00  0.00    +0.000 C 
BRANCH  21  22
ATOM     22  C   UNL     1      -1.319  10.812  18.490  0.00  0.00    +0.000 A 
ATOM     23  C   UNL     1      -1.692  10.011  17.400  0.00  0.00    +0.000 A 
ATOM     24  C   UNL     1      -2.989  10.080  16.888  0.00  0.00    +0.000 A 
ATOM     25  C   UNL     1      -3.909  10.950  17.460  0.00  0.00    +0.000 A 
ATOM     26  F   UNL     1      -5.154  11.014  16.967  0.00  0.00    +0.000 F 
ATOM     27  C   UNL     1      -3.559  11.754  18.537  0.00  0.00    +0.000 A 
ATOM     28  C   UNL     1      -2.264  11.689  19.051  0.00  0.00    +0.000 A 
ENDBRANCH  21  22
ENDBRANCH  19  21
ENDBRANCH   1  18
TORSDOF 3
ENDMDL
MODEL 4
REMARK VINA RESULT:      -8.5      1.172      1.591
REMARK  Name = 
REMARK  3 active torsions:
REMARK  status: ('A' for Active; 'I' for Inactive)
REMARK    1  A    between atoms: C_2  and  C_12
REMARK    2  A    between atoms: N_3  and  C_4
REMARK    3  A    between atoms: C_4  and  C_5
REMARK                            x       y       z     vdW  Elec       q    Type
REMARK                         _______ _______ _______ _____ _____    ______ ____
ROOT
ATOM      1  C   UNL     1       1.853   8.461  19.294  0.00  0.00    +0.000 A 
ATOM      2  N   UNL     1       1.886   7.464  20.254  0.00  0.00    +0.000 NA
ATOM      3  C   UNL     1       2.523   6.497  19.660  0.00  0.00    +0.000 A 
ATOM      4  N   UNL     1       2.940   6.894  18.409  0.00  0.00    +0.000 N 
ATOM      5  N   UNL     1       2.509   8.155  18.149  0.00  0.00    +0.000 NA
ATOM      6  C   UNL     1       3.826   6.138  17.612  0.00  0.00    +0.000 A 
ATOM      7  C   UNL     1       4.503   6.712  16.535  0.00  0.00    +0.000 A 
ATOM      8  C   UNL     1       5.455   5.953  15.843  0.00  0.00    +0.000 A 
ATOM      9  C   UNL     1       5.720   4.628  16.209  0.00  0.00    +0.000 A 
ATOM     10  C   UNL     1       5.029   4.042  17.267  0.00  0.00    +0.000 A 
ATOM     11  C   UNL     1       4.084   4.799  17.963  0.00  0.00    +0.000 A 
ATOM     12  S   UNL     1       3.147   4.023  19.256  0.00  0.00    +0.000 S 
ATOM     13  O   UNL     1       1.903   3.597  18.657  0.00  0.00    +0.000 OA
ATOM     14  O   UNL     1       4.022   3.109  19.953  0.00  0.00    +0.000 OA
ATOM     15  N   UNL     1       2.831   5.283  20.292  0.00  0.00    +0.000 N 
ATOM     16  H   UNL     1       2.597   5.112  21.264  0.00  0.00    +0.000 HD
ENDROOT
BRANCH   1  18
ATOM     17  O   UNL     1       0.923  10.144  20.686  0.00  0.00    +0.000 OA
ATOM     18  C   UNL     1       1.146   9.739  19.550  0.00  0.00    +0.000 C 
ATOM     19  N   UNL     1       0.729  10.437  18.431  0.00  0.00    +0.000 N 
ATOM     20  H   UNL     1       0.815   9.983  17.529  0.00  0.00    +0.000 HD
BRANCH  19  21
ATOM     21  C   UNL     1      -0.093  11.615  18.587  0.00  0.00    +0.000 C 
BRANCH  21  22
ATOM     22  C   UNL     1      -1.550  11.321  18.358  0.00  0.00    +0.000 A 
ATOM     23  C   UNL     1      -2.547  12.077  18.992  0.00  0.00    +0.000 A 
ATOM     24  C   UNL     1      -3.895  11.800  18.759  0.00  0.00    +0.000 A 
ATOM     25  C   UNL     1      -4.247  10.768  17.897  0.00  0.00    +0.000 A 
ATOM     26  F   UNL     1      -5.542  10.505  17.675  0.00  0.00    +0.000 F 
ATOM     27  C   UNL     1      -3.275  10.005  17.262  0.00  0.00    +0.000 A 
ATOM     28  C   UNL     1      -1.927  10.277  17.494  0.00  0.00    +0.000 A 
ENDBRANCH  21  22
ENDBRANCH  19  21
ENDBRANCH   1  18
TORSDOF 3
ENDMDL
MODEL 5
REMARK VINA RESULT:      -8.5      3.947      8.595
REMARK  Name = 
REMARK  3 active torsions:
REMARK  status: ('A' for Active; 'I' for Inactive)
REMARK    1  A    between atoms: C_2  and  C_12
REMARK    2  A    between atoms: N_3  and  C_4
REMARK    3  A    between atoms: C_4  and  C_5
REMARK                            x       y       z     vdW  Elec       q    Type
REMARK                         _______ _______ _______ _____ _____    ______ ____
ROOT
ATOM      1  C   UNL     1       2.646   6.967  19.171  0.00  0.00    +0.000 A 
ATOM      2  N   UNL     1       2.621   7.973  18.219  0.00  0.00    +0.000 NA
ATOM      3  C   UNL     1       1.779   8.832  18.714  0.00  0.00    +0.000 A 
ATOM      4  N   UNL     1       1.350   8.424  19.956  0.00  0.00    +0.000 N 
ATOM      5  N   UNL     1       1.889   7.217  20.267  0.00  0.00    +0.000 NA
ATOM      6  C   UNL     1       0.595   9.244  20.823  0.00  0.00    +0.000 A 
ATOM      7  C   UNL     1       0.485   8.953  22.184  0.00  0.00    +0.000 A 
ATOM      8  C   UNL     1      -0.180   9.855  23.024  0.00  0.00    +0.000 A 
ATOM      9  C   UNL     1      -0.746  11.028  22.512  0.00  0.00    +0.000 A 
ATOM     10  C   UNL     1      -0.661  11.311  21.150  0.00  0.00    +0.000 A 
ATOM     11  C   UNL     1       0.008  10.416  20.312  0.00  0.00    +0.000 A 
ATOM     12  S   UNL     1       0.042  10.739  18.567  0.00  0.00    +0.000 S 
ATOM     13  O   UNL     1      -1.043   9.978  17.990  0.00  0.00    +0.000 OA
ATOM     14  O   UNL     1       0.170  12.166  18.380  0.00  0.00    +0.000 OA
ATOM     15  N   UNL     1       1.479  10.053  18.091  0.00  0.00    +0.000 N 
ATOM     16  H   UNL     1       1.934  10.340  17.231  0.00  0.00    +0.000 HD
ENDROOT
BRANCH   1  18
ATOM     17  O   UNL     1       4.318   5.385  19.750  0.00  0.00    +0.000 OA
ATOM     18  C   UNL     1       3.450   5.740  18.959  0.00  0.00    +0.000 C 
ATOM     19  N   UNL     1       3.183   5.030  17.803  0.00  0.00    +0.000 N 
ATOM     20  H   UNL     1       2.559   5.449  17.123  0.00  0.00    +0.000 HD
BRANCH  19  21
ATOM     21  C   UNL     1       4.016   3.906  17.443  0.00  0.00    +0.000 C 
BRANCH  21  22
ATOM     22  C   UNL     1       5.079   4.286  16.450  0.00  0.00    +0.000 A 
ATOM     23  C   UNL     1       6.283   4.870  16.871  0.00  0.00    +0.000 A 
ATOM     24  C   UNL     1       7.266   5.206  15.938  0.00  0.00    +0.000 A 
ATOM     25  C   UNL     1       7.045   4.962  14.588  0.00  0.00    +0.000 A 
ATOM     26  F   UNL     1       7.990   5.285  13.695  0.00  0.00    +0.000 F 
ATOM     27  C   UNL     1       5.859   4.388  14.150  0.00  0.00    +0.000 A 
ATOM     28  C   UNL     1       4.874   4.053  15.079  0.00  0.00    +0.000 A 
ENDBRANCH  21  22
ENDBRANCH  19  21
ENDBRANCH   1  18
TORSDOF 3
ENDMDL
MODEL 6
REMARK VINA RESULT:      -8.4      2.067      3.011
REMARK  Name = 
REMARK  3 active torsions:
REMARK  status: ('A' for Active; 'I' for Inactive)
REMARK    1  A    between atoms: C_2  and  C_12
REMARK    2  A    between atoms: N_3  and  C_4
REMARK    3  A    between atoms: C_4  and  C_5
REMARK                            x       y       z     vdW  Elec       q    Type
REMARK                         _______ _______ _______ _____ _____    ______ ____
ROOT
ATOM      1  C   UNL     1       1.831   8.261  19.482  0.00  0.00    +0.000 A 
ATOM      2  N   UNL     1       2.508   8.005  18.301  0.00  0.00    +0.000 NA
ATOM      3  C   UNL     1       3.023   6.828  18.500  0.00  0.00    +0.000 A 
ATOM      4  N   UNL     1       2.626   6.330  19.721  0.00  0.00    +0.000 N 
ATOM      5  N   UNL     1       1.864   7.244  20.376  0.00  0.00    +0.000 NA
ATOM      6  C   UNL     1       2.855   4.997  20.126  0.00  0.00    +0.000 A 
ATOM      7  C   UNL     1       2.144   4.428  21.185  0.00  0.00    +0.000 A 
ATOM      8  C   UNL     1       2.325   3.070  21.477  0.00  0.00    +0.000 A 
ATOM      9  C   UNL     1       3.218   2.289  20.734  0.00  0.00    +0.000 A 
ATOM     10  C   UNL     1       3.948   2.858  19.693  0.00  0.00    +0.000 A 
ATOM     11  C   UNL     1       3.764   4.210  19.395  0.00  0.00    +0.000 A 
ATOM     12  S   UNL     1       4.757   4.950  18.122  0.00  0.00    +0.000 S 
ATOM     13  O   UNL     1       5.877   5.573  18.791  0.00  0.00    +0.000 OA
ATOM     14  O   UNL     1       4.930   3.976  17.069  0.00  0.00    +0.000 OA
ATOM     15  N   UNL     1       3.767   6.144  17.527  0.00  0.00    +0.000 N 
ATOM     16  H   UNL     1       3.912   6.527  16.599  0.00  0.00    +0.000 HD
ENDROOT
BRANCH   1  18
ATOM     17  O   UNL     1       0.869   9.970  20.821  0.00  0.00    +0.000 OA
ATOM     18  C   UNL     1       1.144   9.557  19.698  0.00  0.00    +0.000 C 
ATOM     19  N   UNL     1       0.807  10.264  18.559  0.00  0.00    +0.000 N 
ATOM     20  H   UNL     1       0.930   9.806  17.662  0.00  0.00    +0.000 HD
BRANCH  19  21
ATOM     21  C   UNL     1       0.008  11.462  18.669  0.00  0.00    +0.000 C 
BRANCH  21  22
ATOM     22  C   UNL     1      -1.444  11.202  18.375  0.00  0.00    +0.000 A 
ATOM     23  C   UNL     1      -1.832  10.160  17.519  0.00  0.00    +0.000 A 
ATOM     24  C   UNL     1      -3.184   9.923  17.267  0.00  0.00    +0.000 A 
ATOM     25  C   UNL     1      -4.147  10.727  17.865  0.00  0.00    +0.000 A 
ATOM     26  F   UNL     1      -5.444  10.496  17.622  0.00  0.00    +0.000 F 
ATOM     27  C   UNL     1      -3.784  11.765  18.714  0.00  0.00    +0.000 A 
ATOM     28  C   UNL     1      -2.434  12.006  18.967  0.00  0.00    +0.000 A 
ENDBRANCH  21  22
ENDBRANCH  19  21
ENDBRANCH   1  18
TORSDOF 3
ENDMDL
MODEL 7
REMARK VINA RESULT:      -8.4      3.953      8.674
REMARK  Name = 
REMARK  3 active torsions:
REMARK  status: ('A' for Active; 'I' for Inactive)
REMARK    1  A    between atoms: C_2  and  C_12
REMARK    2  A    between atoms: N_3  and  C_4
REMARK    3  A    between atoms: C_4  and  C_5
REMARK                            x       y       z     vdW  Elec       q    Type
REMARK                         _______ _______ _______ _____ _____    ______ ____
ROOT
ATOM      1  C   UNL     1       2.585   7.114  18.677  0.00  0.00    +0.000 A 
ATOM      2  N   UNL     1       2.543   8.218  17.842  0.00  0.00    +0.000 NA
ATOM      3  C   UNL     1       1.758   9.041  18.472  0.00  0.00    +0.000 A 
ATOM      4  N   UNL     1       1.383   8.512  19.686  0.00  0.00    +0.000 N 
ATOM      5  N   UNL     1       1.897   7.264  19.834  0.00  0.00    +0.000 NA
ATOM      6  C   UNL     1       0.703   9.253  20.678  0.00  0.00    +0.000 A 
ATOM      7  C   UNL     1       0.656   8.819  22.004  0.00  0.00    +0.000 A 
ATOM      8  C   UNL     1       0.067   9.642  22.972  0.00  0.00    +0.000 A 
ATOM      9  C   UNL     1      -0.485  10.879  22.621  0.00  0.00    +0.000 A 
ATOM     10  C   UNL     1      -0.463  11.306  21.295  0.00  0.00    +0.000 A 
ATOM     11  C   UNL     1       0.129  10.490  20.329  0.00  0.00    +0.000 A 
ATOM     12  S   UNL     1       0.081  11.000  18.629  0.00  0.00    +0.000 S 
ATOM     13  O   UNL     1      -1.059  10.337  18.038  0.00  0.00    +0.000 OA
ATOM     14  O   UNL     1       0.246  12.435  18.590  0.00  0.00    +0.000 OA
ATOM     15  N   UNL     1       1.466  10.330  18.002  0.00  0.00    +0.000 N 
ATOM     16  H   UNL     1       1.884  10.697  17.153  0.00  0.00    +0.000 HD
ENDROOT
BRANCH   1  18
ATOM     17  O   UNL     1       2.773   4.830  18.057  0.00  0.00    +0.000 OA
ATOM     18  C   UNL     1       3.335   5.896  18.289  0.00  0.00    +0.000 C 
ATOM     19  N   UNL     1       4.711   6.022  18.228  0.00  0.00    +0.000 N 
ATOM     20  H   UNL     1       5.123   6.883  18.569  0.00  0.00    +0.000 HD
BRANCH  19  21
ATOM     21  C   UNL     1       5.529   4.853  18.003  0.00  0.00    +0.000 C 
BRANCH  21  22
ATOM     22  C   UNL     1       5.936   4.718  16.561  0.00  0.00    +0.000 A 
ATOM     23  C   UNL     1       5.142   4.004  15.652  0.00  0.00    +0.000 A 
ATOM     24  C   UNL     1       5.527   3.898  14.314  0.00  0.00    +0.000 A 
ATOM     25  C   UNL     1       6.704   4.500  13.887  0.00  0.00    +0.000 A 
ATOM     26  F   UNL     1       7.071   4.398  12.602  0.00  0.00    +0.000 F 
ATOM     27  C   UNL     1       7.506   5.210  14.772  0.00  0.00    +0.000 A 
ATOM     28  C   UNL     1       7.126   5.316  16.110  0.00  0.00    +0.000 A 
ENDBRANCH  21  22
ENDBRANCH  19  21
ENDBRANCH   1  18
TORSDOF 3
ENDMDL
MODEL 8
REMARK VINA RESULT:      -8.4      1.465      1.543
REMARK  Name = 
REMARK  3 active torsions:
REMARK  status: ('A' for Active; 'I' for Inactive)
REMARK    1  A    between atoms: C_2  and  C_12
REMARK    2  A    between atoms: N_3  and  C_4
REMARK    3  A    between atoms: C_4  and  C_5
REMARK                            x       y       z     vdW  Elec       q    Type
REMARK                         _______ _______ _______ _____ _____    ______ ____
ROOT
ATOM      1  C   UNL     1       2.492   8.231  18.248  0.00  0.00    +0.000 A 
ATOM      2  N   UNL     1       2.578   7.376  19.335  0.00  0.00    +0.000 NA
ATOM      3  C   UNL     1       3.246   6.363  18.866  0.00  0.00    +0.000 A 
ATOM      4  N   UNL     1       3.630   6.601  17.565  0.00  0.00    +0.000 N 
ATOM      5  N   UNL     1       3.145   7.797  17.144  0.00  0.00    +0.000 NA
ATOM      6  C   UNL     1       4.536   5.778  16.862  0.00  0.00    +0.000 A 
ATOM      7  C   UNL     1       5.176   6.226  15.705  0.00  0.00    +0.000 A 
ATOM      8  C   UNL     1       6.149   5.416  15.106  0.00  0.00    +0.000 A 
ATOM      9  C   UNL     1       6.472   4.165  15.643  0.00  0.00    +0.000 A 
ATOM     10  C   UNL     1       5.819   3.703  16.784  0.00  0.00    +0.000 A 
ATOM     11  C   UNL     1       4.852   4.511  17.387  0.00  0.00    +0.000 A 
ATOM     12  S   UNL     1       3.965   3.883  18.790  0.00  0.00    +0.000 S 
ATOM     13  O   UNL     1       2.731   3.331  18.278  0.00  0.00    +0.000 OA
ATOM     14  O   UNL     1       4.885   3.106  19.589  0.00  0.00    +0.000 OA
ATOM     15  N   UNL     1       3.610   5.259  19.651  0.00  0.00    +0.000 N 
ATOM     16  H   UNL     1       3.396   5.214  20.642  0.00  0.00    +0.000 HD
ENDROOT
BRANCH   1  18
ATOM     17  O   UNL     1       2.141  10.540  17.823  0.00  0.00    +0.000 OA
ATOM     18  C   UNL     1       1.737   9.504  18.341  0.00  0.00    +0.000 C 
ATOM     19  N   UNL     1       0.561   9.461  19.067  0.00  0.00    +0.000 N 
ATOM     20  H   UNL     1       0.356   8.616  19.589  0.00  0.00    +0.000 HD
BRANCH  19  21
ATOM     21  C   UNL     1      -0.162  10.683  19.333  0.00  0.00    +0.000 C 
BRANCH  21  22
ATOM     22  C   UNL     1      -1.435  10.771  18.537  0.00  0.00    +0.000 A 
ATOM     23  C   UNL     1      -1.620   9.992  17.385  0.00  0.00    +0.000 A 
ATOM     24  C   UNL     1      -2.813  10.076  16.664  0.00  0.00    +0.000 A 
ATOM     25  C   UNL     1      -3.816  10.937  17.090  0.00  0.00    +0.000 A 
ATOM     26  F   UNL     1      -4.960  11.015  16.396  0.00  0.00    +0.000 F 
ATOM     27  C   UNL     1      -3.651  11.719  18.226  0.00  0.00    +0.000 A 
ATOM     28  C   UNL     1      -2.461  11.640  18.948  0.00  0.00    +0.000 A 
ENDBRANCH  21  22
ENDBRANCH  19  21
ENDBRANCH   1  18
TORSDOF 3
ENDMDL
MODEL 9
REMARK VINA RESULT:      -8.4      1.195      1.311
REMARK  Name = 
REMARK  3 active torsions:
REMARK  status: ('A' for Active; 'I' for Inactive)
REMARK    1  A    between atoms: C_2  and  C_12
REMARK    2  A    between atoms: N_3  and  C_4
REMARK    3  A    between atoms: C_4  and  C_5
REMARK                            x       y       z     vdW  Elec       q    Type
REMARK                         _______ _______ _______ _____ _____    ______ ____
ROOT
ATOM      1  C   UNL     1       1.665   8.351  19.667  0.00  0.00    +0.000 A 
ATOM      2  N   UNL     1       1.665   7.356  20.631  0.00  0.00    +0.000 NA
ATOM      3  C   UNL     1       2.275   6.369  20.042  0.00  0.00    +0.000 A 
ATOM      4  N   UNL     1       2.707   6.749  18.791  0.00  0.00    +0.000 N 
ATOM      5  N   UNL     1       2.315   8.022  18.525  0.00  0.00    +0.000 NA
ATOM      6  C   UNL     1       3.573   5.964  17.999  0.00  0.00    +0.000 A 
ATOM      7  C   UNL     1       4.271   6.515  16.923  0.00  0.00    +0.000 A 
ATOM      8  C   UNL     1       5.202   5.726  16.237  0.00  0.00    +0.000 A 
ATOM      9  C   UNL     1       5.426   4.395  16.608  0.00  0.00    +0.000 A 
ATOM     10  C   UNL     1       4.715   3.833  17.666  0.00  0.00    +0.000 A 
ATOM     11  C   UNL     1       3.790   4.620  18.355  0.00  0.00    +0.000 A 
ATOM     12  S   UNL     1       2.827   3.876  19.648  0.00  0.00    +0.000 S 
ATOM     13  O   UNL     1       1.572   3.485  19.047  0.00  0.00    +0.000 OA
ATOM     14  O   UNL     1       3.672   2.939  20.351  0.00  0.00    +0.000 OA
ATOM     15  N   UNL     1       2.544   5.148  20.679  0.00  0.00    +0.000 N 
ATOM     16  H   UNL     1       2.302   4.988  21.651  0.00  0.00    +0.000 HD
ENDROOT
BRANCH   1  18
ATOM     17  O   UNL     1       0.803  10.077  21.051  0.00  0.00    +0.000 OA
ATOM     18  C   UNL     1       0.995   9.649  19.916  0.00  0.00    +0.000 C 
ATOM     19  N   UNL     1       0.575  10.342  18.796  0.00  0.00    +0.000 N 
ATOM     20  H   UNL     1       0.633   9.873  17.899  0.00  0.00    +0.000 HD
BRANCH  19  21
ATOM     21  C   UNL     1      -0.215  11.542  18.948  0.00  0.00    +0.000 C 
BRANCH  21  22
ATOM     22  C   UNL     1      -1.658  11.319  18.589  0.00  0.00    +0.000 A 
ATOM     23  C   UNL     1      -2.026  10.327  17.667  0.00  0.00    +0.000 A 
ATOM     24  C   UNL     1      -3.371  10.123  17.353  0.00  0.00    +0.000 A 
ATOM     25  C   UNL     1      -4.345  10.910  17.956  0.00  0.00    +0.000 A 
ATOM     26  F   UNL     1      -5.635  10.712  17.653  0.00  0.00    +0.000 F 
ATOM     27  C   UNL     1      -4.001  11.899  18.869  0.00  0.00    +0.000 A 
ATOM     28  C   UNL     1      -2.659  12.107  19.183  0.00  0.00    +0.000 A 
ENDBRANCH  21  22
ENDBRANCH  19  21
ENDBRANCH   1  18
TORSDOF 3
ENDMDL
