MODEL 1
REMARK VINA RESULT:      -8.7      0.000      0.000
REMARK  Name = 
REMARK  6 active torsions:
REMARK  status: ('A' for Active; 'I' for Inactive)
REMARK    1  A    between atoms: C_1  and  C_2
REMARK    2  A    between atoms: C_6  and  O_7
REMARK    3  A    between atoms: O_7  and  C_8
REMARK    4  A    between atoms: C_11  and  N_12
REMARK    5  A    between atoms: C_13  and  C_15
REMARK    6  A    between atoms: C_19  and  N_20
REMARK                            x       y       z     vdW  Elec       q    Type
REMARK                         _______ _______ _______ _____ _____    ______ ____
ROOT
ATOM      1  N   UNL     1       1.398   8.372  21.272  0.00  0.00    +0.000 N 
ATOM      2  C   UNL     1       0.102   8.571  21.714  0.00  0.00    +0.000 C 
ATOM      3  O   UNL     1      -0.888   7.911  21.438  0.00  0.00    +0.000 OA
ATOM      4  H   UNL     1       2.096   9.000  21.664  0.00  0.00    +0.000 HD
ENDROOT
BRANCH   1   8
ATOM      5  C   UNL     1       2.799   5.381  18.643  0.00  0.00    +0.000 A 
ATOM      6  C   UNL     1       2.730   6.698  18.200  0.00  0.00    +0.000 A 
ATOM      7  C   UNL     1       2.243   7.697  19.047  0.00  0.00    +0.000 A 
ATOM      8  C   UNL     1       1.822   7.396  20.347  0.00  0.00    +0.000 A 
ATOM      9  C   UNL     1       1.836   6.061  20.761  0.00  0.00    +0.000 A 
ATOM     10  C   UNL     1       2.298   5.055  19.903  0.00  0.00    +0.000 A 
BRANCH   5  11
ATOM     11  O   UNL     1       3.334   4.470  17.758  0.00  0.00    +0.000 OA
BRANCH  11  17
ATOM     12  C   UNL     1       7.808   5.673  19.250  0.00  0.00    +0.000 C 
ATOM     13  C   UNL     1       6.893   5.187  18.166  0.00  0.00    +0.000 A 
ATOM     14  C   UNL     1       7.382   4.910  16.884  0.00  0.00    +0.000 A 
ATOM     15  C   UNL     1       6.530   4.427  15.891  0.00  0.00    +0.000 A 
ATOM     16  C   UNL     1       5.178   4.231  16.166  0.00  0.00    +0.000 A 
ATOM     17  C   UNL     1       4.666   4.572  17.421  0.00  0.00    +0.000 A 
ATOM     18  C   UNL     1       5.528   5.007  18.429  0.00  0.00    +0.000 A 
ENDBRANCH  11  17
ENDBRANCH   5  11
ENDBRANCH   1   8
BRANCH   2  19
ATOM     19  C   UNL     1      -0.033   9.783  22.664  0.00  0.00    +0.000 C 
ATOM     20  O   UNL     1       0.339   9.679  23.828  0.00  0.00    +0.000 OA
ATOM     21  N   UNL     1      -0.562  10.920  22.103  0.00  0.00    +0.000 N 
ATOM     22  C   UNL     1      -0.747  12.241  22.664  0.00  0.00    +0.000 C 
ATOM     23  C   UNL     1      -0.439  12.812  21.264  0.00  0.00    +0.000 C 
ATOM     24  C   UNL     1      -0.600  11.377  20.724  0.00  0.00    +0.000 C 
BRANCH  23  25
ATOM     25  N   UNL     1       0.905  13.322  21.168  0.00  0.00    +0.000 N 
ATOM     26  C   UNL     1       1.863  13.006  20.243  0.00  0.00    +0.000 A 
ATOM     27  C   UNL     1       2.939  13.780  20.607  0.00  0.00    +0.000 A 
ATOM     28  N   UNL     1       2.621  14.512  21.713  0.00  0.00    +0.000 NA
ATOM     29  N   UNL     1       1.370  14.226  22.048  0.00  0.00    +0.000 NA
ENDBRANCH  23  25
ENDBRANCH   2  19
TORSDOF 5
ENDMDL
MODEL 2
REMARK VINA RESULT:      -8.5      0.669      1.479
REMARK  Name = 
REMARK  6 active torsions:
REMARK  status: ('A' for Active; 'I' for Inactive)
REMARK    1  A    between atoms: C_1  and  C_2
REMARK    2  A    between atoms: C_6  and  O_7
REMARK    3  A    between atoms: O_7  and  C_8
REMARK    4  A    between atoms: C_11  and  N_12
REMARK    5  A    between atoms: C_13  and  C_15
REMARK    6  A    between atoms: C_19  and  N_20
REMARK                            x       y       z     vdW  Elec       q    Type
REMARK                         _______ _______ _______ _____ _____    ______ ____
ROOT
ATOM      1  N   UNL     1       1.375   8.444  21.267  0.00  0.00    +0.000 N 
ATOM      2  C   UNL     1       0.090   8.602  21.755  0.00  0.00    +0.000 C 
ATOM      3  O   UNL     1      -0.889   7.913  21.509  0.00  0.00    +0.000 OA
ATOM      4  H   UNL     1       2.067   9.092  21.639  0.00  0.00    +0.000 HD
ENDROOT
BRANCH   1   8
ATOM      5  C   UNL     1       2.770   5.502  18.580  0.00  0.00    +0.000 A 
ATOM      6  C   UNL     1       2.701   6.827  18.163  0.00  0.00    +0.000 A 
ATOM      7  C   UNL     1       2.216   7.811  19.029  0.00  0.00    +0.000 A 
ATOM      8  C   UNL     1       1.797   7.486  20.324  0.00  0.00    +0.000 A 
ATOM      9  C   UNL     1       1.811   6.142  20.712  0.00  0.00    +0.000 A 
ATOM     10  C   UNL     1       2.271   5.153  19.834  0.00  0.00    +0.000 A 
BRANCH   5  11
ATOM     11  O   UNL     1       3.302   4.608  17.677  0.00  0.00    +0.000 OA
BRANCH  11  17
ATOM     12  C   UNL     1       6.744   4.594  14.236  0.00  0.00    +0.000 C 
ATOM     13  C   UNL     1       6.365   4.636  15.686  0.00  0.00    +0.000 A 
ATOM     14  C   UNL     1       7.346   4.675  16.684  0.00  0.00    +0.000 A 
ATOM     15  C   UNL     1       6.985   4.748  18.029  0.00  0.00    +0.000 A 
ATOM     16  C   UNL     1       5.639   4.768  18.389  0.00  0.00    +0.000 A 
ATOM     17  C   UNL     1       4.652   4.659  17.406  0.00  0.00    +0.000 A 
ATOM     18  C   UNL     1       5.013   4.637  16.058  0.00  0.00    +0.000 A 
ENDBRANCH  11  17
ENDBRANCH   5  11
ENDBRANCH   1   8
BRANCH   2  19
ATOM     19  C   UNL     1      -0.050   9.805  22.715  0.00  0.00    +0.000 C 
ATOM     20  O   UNL     1       0.404   9.723  23.851  0.00  0.00    +0.000 OA
ATOM     21  N   UNL     1      -0.678  10.910  22.194  0.00  0.00    +0.000 N 
ATOM     22  C   UNL     1      -0.899  12.218  22.769  0.00  0.00    +0.000 C 
ATOM     23  C   UNL     1      -0.718  12.805  21.353  0.00  0.00    +0.000 C 
ATOM     24  C   UNL     1      -0.833  11.363  20.821  0.00  0.00    +0.000 C 
BRANCH  23  25
ATOM     25  N   UNL     1       0.586  13.389  21.170  0.00  0.00    +0.000 N 
ATOM     26  C   UNL     1       0.893  14.686  20.859  0.00  0.00    +0.000 A 
ATOM     27  C   UNL     1       2.267  14.698  20.816  0.00  0.00    +0.000 A 
ATOM     28  N   UNL     1       2.742  13.448  21.083  0.00  0.00    +0.000 NA
ATOM     29  N   UNL     1       1.704  12.652  21.300  0.00  0.00    +0.000 NA
ENDBRANCH  23  25
ENDBRANCH   2  19
TORSDOF 5
ENDMDL
MODEL 3
REMARK VINA RESULT:      -8.4      2.169      3.524
REMARK  Name = 
REMARK  6 active torsions:
REMARK  status: ('A' for Active; 'I' for Inactive)
REMARK    1  A    between atoms: C_1  and  C_2
REMARK    2  A    between atoms: C_6  and  O_7
REMARK    3  A    between atoms: O_7  and  C_8
REMARK    4  A    between atoms: C_11  and  N_12
REMARK    5  A    between atoms: C_13  and  C_15
REMARK    6  A    between atoms: C_19  and  N_20
REMARK                            x       y       z     vdW  Elec       q    Type
REMARK                         _______ _______ _______ _____ _____    ______ ____
ROOT
ATOM      1  N   UNL     1       1.165   9.856  19.950  0.00  0.00    +0.000 N 
ATOM      2  C   UNL     1      -0.095  10.376  19.714  0.00  0.00    +0.000 C 
ATOM      3  O   UNL     1      -1.043   9.817  19.181  0.00  0.00    +0.000 OA
ATOM      4  H   UNL     1       1.801  10.465  20.461  0.00  0.00    +0.000 HD
ENDROOT
BRANCH   1   8
ATOM      5  C   UNL     1       2.687   6.055  18.923  0.00  0.00    +0.000 A 
ATOM      6  C   UNL     1       2.614   7.044  17.948  0.00  0.00    +0.000 A 
ATOM      7  C   UNL     1       2.088   8.300  18.263  0.00  0.00    +0.000 A 
ATOM      8  C   UNL     1       1.630   8.586  19.554  0.00  0.00    +0.000 A 
ATOM      9  C   UNL     1       1.650   7.565  20.510  0.00  0.00    +0.000 A 
ATOM     10  C   UNL     1       2.151   6.298  20.187  0.00  0.00    +0.000 A 
BRANCH   5  11
ATOM     11  O   UNL     1       3.261   4.863  18.537  0.00  0.00    +0.000 OA
BRANCH  11  17
ATOM     12  C   UNL     1       6.290   4.025  14.820  0.00  0.00    +0.000 C 
ATOM     13  C   UNL     1       6.075   4.429  16.248  0.00  0.00    +0.000 A 
ATOM     14  C   UNL     1       7.160   4.734  17.079  0.00  0.00    +0.000 A 
ATOM     15  C   UNL     1       6.949   5.142  18.396  0.00  0.00    +0.000 A 
ATOM     16  C   UNL     1       5.653   5.233  18.899  0.00  0.00    +0.000 A 
ATOM     17  C   UNL     1       4.568   4.864  18.101  0.00  0.00    +0.000 A 
ATOM     18  C   UNL     1       4.775   4.505  16.768  0.00  0.00    +0.000 A 
ENDBRANCH  11  17
ENDBRANCH   5  11
ENDBRANCH   1   8
BRANCH   2  19
ATOM     19  C   UNL     1      -0.252  11.832  20.207  0.00  0.00    +0.000 C 
ATOM     20  O   UNL     1      -0.236  12.748  19.392  0.00  0.00    +0.000 OA
ATOM     21  N   UNL     1      -0.418  11.984  21.563  0.00  0.00    +0.000 N 
ATOM     22  C   UNL     1      -0.678  13.173  22.345  0.00  0.00    +0.000 C 
ATOM     23  C   UNL     1      -1.542  12.297  23.276  0.00  0.00    +0.000 C 
ATOM     24  C   UNL     1      -0.929  11.071  22.572  0.00  0.00    +0.000 C 
BRANCH  23  25
ATOM     25  N   UNL     1      -2.951  12.465  23.028  0.00  0.00    +0.000 N 
ATOM     26  C   UNL     1      -3.555  12.992  21.919  0.00  0.00    +0.000 A 
ATOM     27  C   UNL     1      -4.897  12.905  22.202  0.00  0.00    +0.000 A 
ATOM     28  N   UNL     1      -5.067  12.355  23.438  0.00  0.00    +0.000 NA
ATOM     29  N   UNL     1      -3.868  12.087  23.937  0.00  0.00    +0.000 NA
ENDBRANCH  23  25
ENDBRANCH   2  19
TORSDOF 5
ENDMDL
MODEL 4
REMARK VINA RESULT:      -8.3      3.108      4.971
REMARK  Name = 
REMARK  6 active torsions:
REMARK  status: ('A' for Active; 'I' for Inactive)
REMARK    1  A    between atoms: C_1  and  C_2
REMARK    2  A    between atoms: C_6  and  O_7
REMARK    3  A    between atoms: O_7  and  C_8
REMARK    4  A    between atoms: C_11  and  N_12
REMARK    5  A    between atoms: C_13  and  C_15
REMARK    6  A    between atoms: C_19  and  N_20
REMARK                            x       y       z     vdW  Elec       q    Type
REMARK                         _______ _______ _______ _____ _____    ______ ____
ROOT
ATOM      1  N   UNL     1       0.122  11.332  19.445  0.00  0.00    +0.000 N 
ATOM      2  C   UNL     1       0.413  12.366  20.317  0.00  0.00    +0.000 C 
ATOM      3  O   UNL     1       1.325  12.421  21.129  0.00  0.00    +0.000 OA
ATOM      4  H   UNL     1      -0.650  11.503  18.805  0.00  0.00    +0.000 HD
ENDROOT
BRANCH   1   8
ATOM      5  C   UNL     1       2.225   7.671  19.390  0.00  0.00    +0.000 A 
ATOM      6  C   UNL     1       2.159   8.436  18.231  0.00  0.00    +0.000 A 
ATOM      7  C   UNL     1       1.445   9.637  18.222  0.00  0.00    +0.000 A 
ATOM      8  C   UNL     1       0.789  10.092  19.371  0.00  0.00    +0.000 A 
ATOM      9  C   UNL     1       0.808   9.286  20.514  0.00  0.00    +0.000 A 
ATOM     10  C   UNL     1       1.501   8.069  20.514  0.00  0.00    +0.000 A 
BRANCH   5  11
ATOM     11  O   UNL     1       2.988   6.526  19.321  0.00  0.00    +0.000 OA
BRANCH  11  17
ATOM     12  C   UNL     1       1.394   2.608  21.729  0.00  0.00    +0.000 C 
ATOM     13  C   UNL     1       1.574   3.348  20.437  0.00  0.00    +0.000 A 
ATOM     14  C   UNL     1       1.156   2.787  19.224  0.00  0.00    +0.000 A 
ATOM     15  C   UNL     1       1.296   3.497  18.032  0.00  0.00    +0.000 A 
ATOM     16  C   UNL     1       1.869   4.767  18.038  0.00  0.00    +0.000 A 
ATOM     17  C   UNL     1       2.353   5.307  19.233  0.00  0.00    +0.000 A 
ATOM     18  C   UNL     1       2.167   4.619  20.433  0.00  0.00    +0.000 A 
ENDBRANCH  11  17
ENDBRANCH   5  11
ENDBRANCH   1   8
BRANCH   2  19
ATOM     19  C   UNL     1      -0.567  13.555  20.193  0.00  0.00    +0.000 C 
ATOM     20  O   UNL     1      -0.568  14.229  19.169  0.00  0.00    +0.000 OA
ATOM     21  N   UNL     1      -1.395  13.755  21.271  0.00  0.00    +0.000 N 
ATOM     22  C   UNL     1      -2.474  14.701  21.458  0.00  0.00    +0.000 C 
ATOM     23  C   UNL     1      -3.199  13.617  22.283  0.00  0.00    +0.000 C 
ATOM     24  C   UNL     1      -1.868  12.840  22.297  0.00  0.00    +0.000 C 
BRANCH  23  25
ATOM     25  N   UNL     1      -4.242  12.968  21.531  0.00  0.00    +0.000 N 
ATOM     26  C   UNL     1      -4.359  12.859  20.172  0.00  0.00    +0.000 A 
ATOM     27  C   UNL     1      -5.520  12.144  19.998  0.00  0.00    +0.000 A 
ATOM     28  N   UNL     1      -6.065  11.856  21.215  0.00  0.00    +0.000 NA
ATOM     29  N   UNL     1      -5.274  12.364  22.149  0.00  0.00    +0.000 NA
ENDBRANCH  23  25
ENDBRANCH   2  19
TORSDOF 5
ENDMDL
MODEL 5
REMARK VINA RESULT:      -8.3      2.153      3.258
REMARK  Name = 
REMARK  6 active torsions:
REMARK  status: ('A' for Active; 'I' for Inactive)
REMARK    1  A    between atoms: C_1  and  C_2
REMARK    2  A    between atoms: C_6  and  O_7
REMARK    3  A    between atoms: O_7  and  C_8
REMARK    4  A    between atoms: C_11  and  N_12
REMARK    5  A    between atoms: C_13  and  C_15
REMARK    6  A    between atoms: C_19  and  N_20
REMARK                            x       y       z     vdW  Elec       q    Type
REMARK                         _______ _______ _______ _____ _____    ______ ____
ROOT
ATOM      1  N   UNL     1       1.162   9.785  20.028  0.00  0.00    +0.000 N 
ATOM      2  C   UNL     1      -0.070  10.336  19.726  0.00  0.00    +0.000 C 
ATOM      3  O   UNL     1      -1.002   9.803  19.142  0.00  0.00    +0.000 OA
ATOM      4  H   UNL     1       1.785  10.377  20.574  0.00  0.00    +0.000 HD
ENDROOT
BRANCH   1   8
ATOM      5  C   UNL     1       2.640   5.947  19.073  0.00  0.00    +0.000 A 
ATOM      6  C   UNL     1       2.651   6.942  18.101  0.00  0.00    +0.000 A 
ATOM      7  C   UNL     1       2.141   8.211  18.391  0.00  0.00    +0.000 A 
ATOM      8  C   UNL     1       1.616   8.504  19.654  0.00  0.00    +0.000 A 
ATOM      9  C   UNL     1       1.552   7.480  20.604  0.00  0.00    +0.000 A 
ATOM     10  C   UNL     1       2.038   6.201  20.305  0.00  0.00    +0.000 A 
BRANCH   5  11
ATOM     11  O   UNL     1       3.204   4.742  18.715  0.00  0.00    +0.000 OA
BRANCH  11  17
ATOM     12  C   UNL     1       7.926   5.773  19.292  0.00  0.00    +0.000 C 
ATOM     13  C   UNL     1       6.808   5.267  18.430  0.00  0.00    +0.000 A 
ATOM     14  C   UNL     1       7.044   4.867  17.108  0.00  0.00    +0.000 A 
ATOM     15  C   UNL     1       6.005   4.366  16.325  0.00  0.00    +0.000 A 
ATOM     16  C   UNL     1       4.717   4.275  16.849  0.00  0.00    +0.000 A 
ATOM     17  C   UNL     1       4.456   4.737  18.142  0.00  0.00    +0.000 A 
ATOM     18  C   UNL     1       5.505   5.190  18.943  0.00  0.00    +0.000 A 
ENDBRANCH  11  17
ENDBRANCH   5  11
ENDBRANCH   1   8
BRANCH   2  19
ATOM     19  C   UNL     1      -0.217  11.795  20.215  0.00  0.00    +0.000 C 
ATOM     20  O   UNL     1      -0.175  12.710  19.399  0.00  0.00    +0.000 OA
ATOM     21  N   UNL     1      -0.405  11.951  21.567  0.00  0.00    +0.000 N 
ATOM     22  C   UNL     1      -0.663  13.144  22.343  0.00  0.00    +0.000 C 
ATOM     23  C   UNL     1      -1.556  12.281  23.260  0.00  0.00    +0.000 C 
ATOM     24  C   UNL     1      -0.946  11.046  22.568  0.00  0.00    +0.000 C 
BRANCH  23  25
ATOM     25  N   UNL     1      -2.957  12.468  22.986  0.00  0.00    +0.000 N 
ATOM     26  C   UNL     1      -3.535  12.990  21.861  0.00  0.00    +0.000 A 
ATOM     27  C   UNL     1      -4.883  12.926  22.123  0.00  0.00    +0.000 A 
ATOM     28  N   UNL     1      -5.082  12.395  23.363  0.00  0.00    +0.000 NA
ATOM     29  N   UNL     1      -3.895  12.115  23.885  0.00  0.00    +0.000 NA
ENDBRANCH  23  25
ENDBRANCH   2  19
TORSDOF 5
ENDMDL
MODEL 6
REMARK VINA RESULT:      -8.3      4.109      9.513
REMARK  Name = 
REMARK  6 active torsions:
REMARK  status: ('A' for Active; 'I' for Inactive)
REMARK    1  A    between atoms: C_1  and  C_2
REMARK    2  A    between atoms: C_6  and  O_7
REMARK    3  A    between atoms: O_7  and  C_8
REMARK    4  A    between atoms: C_11  and  N_12
REMARK    5  A    between atoms: C_13  and  C_15
REMARK    6  A    between atoms: C_19  and  N_20
REMARK                            x       y       z     vdW  Elec       q    Type
REMARK                         _______ _______ _______ _____ _____    ______ ____
ROOT
ATOM      1  N   UNL     1       3.172   6.873  18.876  0.00  0.00    +0.000 N 
ATOM      2  C   UNL     1       2.956   5.615  18.345  0.00  0.00    +0.000 C 
ATOM      3  O   UNL     1       1.928   5.185  17.843  0.00  0.00    +0.000 OA
ATOM      4  H   UNL     1       4.121   7.056  19.196  0.00  0.00    +0.000 HD
ENDROOT
BRANCH   1   8
ATOM      5  C   UNL     1       0.439  10.075  19.193  0.00  0.00    +0.000 A 
ATOM      6  C   UNL     1       0.653   9.252  20.293  0.00  0.00    +0.000 A 
ATOM      7  C   UNL     1       1.534   8.171  20.199  0.00  0.00    +0.000 A 
ATOM      8  C   UNL     1       2.214   7.899  19.007  0.00  0.00    +0.000 A 
ATOM      9  C   UNL     1       1.944   8.694  17.888  0.00  0.00    +0.000 A 
ATOM     10  C   UNL     1       1.041   9.760  17.975  0.00  0.00    +0.000 A 
BRANCH   5  11
ATOM     11  O   UNL     1      -0.410  11.142  19.389  0.00  0.00    +0.000 OA
BRANCH  11  17
ATOM     12  C   UNL     1      -4.949  12.882  19.640  0.00  0.00    +0.000 C 
ATOM     13  C   UNL     1      -3.958  11.934  19.032  0.00  0.00    +0.000 A 
ATOM     14  C   UNL     1      -4.353  11.011  18.056  0.00  0.00    +0.000 A 
ATOM     15  C   UNL     1      -3.419  10.157  17.472  0.00  0.00    +0.000 A 
ATOM     16  C   UNL     1      -2.084  10.206  17.868  0.00  0.00    +0.000 A 
ATOM     17  C   UNL     1      -1.693  11.073  18.892  0.00  0.00    +0.000 A 
ATOM     18  C   UNL     1      -2.617  11.964  19.441  0.00  0.00    +0.000 A 
ENDBRANCH  11  17
ENDBRANCH   5  11
ENDBRANCH   1   8
BRANCH   2  19
ATOM     19  C   UNL     1       4.200   4.701  18.427  0.00  0.00    +0.000 C 
ATOM     20  O   UNL     1       4.064   3.529  18.764  0.00  0.00    +0.000 OA
ATOM     21  N   UNL     1       5.393   5.291  18.088  0.00  0.00    +0.000 N 
ATOM     22  C   UNL     1       6.717   4.722  17.970  0.00  0.00    +0.000 C 
ATOM     23  C   UNL     1       6.968   5.702  16.805  0.00  0.00    +0.000 C 
ATOM     24  C   UNL     1       5.687   6.437  17.244  0.00  0.00    +0.000 C 
BRANCH  23  25
ATOM     25  N   UNL     1       6.857   5.059  15.520  0.00  0.00    +0.000 N 
ATOM     26  C   UNL     1       6.064   3.999  15.173  0.00  0.00    +0.000 A 
ATOM     27  C   UNL     1       6.340   3.804  13.840  0.00  0.00    +0.000 A 
ATOM     28  N   UNL     1       7.271   4.713  13.430  0.00  0.00    +0.000 NA
ATOM     29  N   UNL     1       7.581   5.479  14.467  0.00  0.00    +0.000 NA
ENDBRANCH  23  25
ENDBRANCH   2  19
TORSDOF 5
ENDMDL
MODEL 7
REMARK VINA RESULT:      -8.2      0.821      1.877
REMARK  Name = 
REMARK  6 active torsions:
REMARK  status: ('A' for Active; 'I' for Inactive)
REMARK    1  A    between atoms: C_1  and  C_2
REMARK    2  A    between atoms: C_6  and  O_7
REMARK    3  A    between atoms: O_7  and  C_8
REMARK    4  A    between atoms: C_11  and  N_12
REMARK    5  A    between atoms: C_13  and  C_15
REMARK    6  A    between atoms: C_19  and  N_20
REMARK                            x       y       z     vdW  Elec       q    Type
REMARK                         _______ _______ _______ _____ _____    ______ ____
ROOT
ATOM      1  N   UNL     1       1.409   8.459  21.341  0.00  0.00    +0.000 N 
ATOM      2  C   UNL     1       0.093   8.591  21.745  0.00  0.00    +0.000 C 
ATOM      3  O   UNL     1      -0.857   7.890  21.429  0.00  0.00    +0.000 OA
ATOM      4  H   UNL     1       2.065   9.112  21.765  0.00  0.00    +0.000 HD
ENDROOT
BRANCH   1   8
ATOM      5  C   UNL     1       2.761   5.705  18.441  0.00  0.00    +0.000 A 
ATOM      6  C   UNL     1       2.467   5.254  19.723  0.00  0.00    +0.000 A 
ATOM      7  C   UNL     1       2.044   6.155  20.704  0.00  0.00    +0.000 A 
ATOM      8  C   UNL     1       1.907   7.517  20.418  0.00  0.00    +0.000 A 
ATOM      9  C   UNL     1       2.265   7.971  19.144  0.00  0.00    +0.000 A 
ATOM     10  C   UNL     1       2.715   7.072  18.169  0.00  0.00    +0.000 A 
BRANCH   5  11
ATOM     11  O   UNL     1       3.126   4.742  17.526  0.00  0.00    +0.000 OA
BRANCH  11  17
ATOM     12  C   UNL     1       6.220   3.912  13.861  0.00  0.00    +0.000 C 
ATOM     13  C   UNL     1       5.983   4.230  15.307  0.00  0.00    +0.000 A 
ATOM     14  C   UNL     1       7.055   4.379  16.195  0.00  0.00    +0.000 A 
ATOM     15  C   UNL     1       6.827   4.708  17.531  0.00  0.00    +0.000 A 
ATOM     16  C   UNL     1       5.525   4.876  17.996  0.00  0.00    +0.000 A 
ATOM     17  C   UNL     1       4.445   4.660  17.136  0.00  0.00    +0.000 A 
ATOM     18  C   UNL     1       4.674   4.381  15.787  0.00  0.00    +0.000 A 
ENDBRANCH  11  17
ENDBRANCH   5  11
ENDBRANCH   1   8
BRANCH   2  19
ATOM     19  C   UNL     1      -0.129   9.780  22.707  0.00  0.00    +0.000 C 
ATOM     20  O   UNL     1       0.256   9.695  23.868  0.00  0.00    +0.000 OA
ATOM     21  N   UNL     1      -0.745  10.879  22.159  0.00  0.00    +0.000 N 
ATOM     22  C   UNL     1      -1.026  12.177  22.732  0.00  0.00    +0.000 C 
ATOM     23  C   UNL     1      -0.770  12.782  21.336  0.00  0.00    +0.000 C 
ATOM     24  C   UNL     1      -0.825  11.344  20.783  0.00  0.00    +0.000 C 
BRANCH  23  25
ATOM     25  N   UNL     1       0.531  13.393  21.238  0.00  0.00    +0.000 N 
ATOM     26  C   UNL     1       0.986  14.517  21.873  0.00  0.00    +0.000 A 
ATOM     27  C   UNL     1       2.283  14.641  21.434  0.00  0.00    +0.000 A 
ATOM     28  N   UNL     1       2.569  13.629  20.567  0.00  0.00    +0.000 NA
ATOM     29  N   UNL     1       1.490  12.867  20.453  0.00  0.00    +0.000 NA
ENDBRANCH  23  25
ENDBRANCH   2  19
TORSDOF 5
ENDMDL
MODEL 8
REMARK VINA RESULT:      -8.2      4.188      9.357
REMARK  Name = 
REMARK  6 active torsions:
REMARK  status: ('A' for Active; 'I' for Inactive)
REMARK    1  A    between atoms: C_1  and  C_2
REMARK    2  A    between atoms: C_6  and  O_7
REMARK    3  A    between atoms: O_7  and  C_8
REMARK    4  A    between atoms: C_11  and  N_12
REMARK    5  A    between atoms: C_13  and  C_15
REMARK    6  A    between atoms: C_19  and  N_20
REMARK                            x       y       z     vdW  Elec       q    Type
REMARK                         _______ _______ _______ _____ _____    ______ ____
ROOT
ATOM      1  N   UNL     1       3.301   6.693  18.719  0.00  0.00    +0.000 N 
ATOM      2  C   UNL     1       2.997   5.379  18.412  0.00  0.00    +0.000 C 
ATOM      3  O   UNL     1       1.898   4.910  18.156  0.00  0.00    +0.000 OA
ATOM      4  H   UNL     1       4.290   6.896  18.845  0.00  0.00    +0.000 HD
ENDROOT
BRANCH   1   8
ATOM      5  C   UNL     1       0.689   9.986  19.117  0.00  0.00    +0.000 A 
ATOM      6  C   UNL     1       0.751   9.040  20.134  0.00  0.00    +0.000 A 
ATOM      7  C   UNL     1       1.590   7.930  20.008  0.00  0.00    +0.000 A 
ATOM      8  C   UNL     1       2.379   7.749  18.867  0.00  0.00    +0.000 A 
ATOM      9  C   UNL     1       2.262   8.672  17.823  0.00  0.00    +0.000 A 
ATOM     10  C   UNL     1       1.401   9.771  17.937  0.00  0.00    +0.000 A 
BRANCH   5  11
ATOM     11  O   UNL     1      -0.129  11.071  19.345  0.00  0.00    +0.000 OA
BRANCH  11  17
ATOM     12  C   UNL     1      -2.942   9.622  15.646  0.00  0.00    +0.000 C 
ATOM     13  C   UNL     1      -2.785  10.369  16.937  0.00  0.00    +0.000 A 
ATOM     14  C   UNL     1      -3.861  11.069  17.497  0.00  0.00    +0.000 A 
ATOM     15  C   UNL     1      -3.716  11.733  18.714  0.00  0.00    +0.000 A 
ATOM     16  C   UNL     1      -2.490  11.717  19.376  0.00  0.00    +0.000 A 
ATOM     17  C   UNL     1      -1.391  11.082  18.792  0.00  0.00    +0.000 A 
ATOM     18  C   UNL     1      -1.549  10.375  17.599  0.00  0.00    +0.000 A 
ENDBRANCH  11  17
ENDBRANCH   5  11
ENDBRANCH   1   8
BRANCH   2  19
ATOM     19  C   UNL     1       4.236   4.456  18.408  0.00  0.00    +0.000 C 
ATOM     20  O   UNL     1       4.100   3.265  18.666  0.00  0.00    +0.000 OA
ATOM     21  N   UNL     1       5.427   5.063  18.088  0.00  0.00    +0.000 N 
ATOM     22  C   UNL     1       6.746   4.497  17.907  0.00  0.00    +0.000 C 
ATOM     23  C   UNL     1       6.981   5.554  16.807  0.00  0.00    +0.000 C 
ATOM     24  C   UNL     1       5.712   6.263  17.320  0.00  0.00    +0.000 C 
BRANCH  23  25
ATOM     25  N   UNL     1       6.843   5.001  15.484  0.00  0.00    +0.000 N 
ATOM     26  C   UNL     1       5.916   4.098  15.039  0.00  0.00    +0.000 A 
ATOM     27  C   UNL     1       6.232   3.929  13.712  0.00  0.00    +0.000 A 
ATOM     28  N   UNL     1       7.312   4.700  13.398  0.00  0.00    +0.000 NA
ATOM     29  N   UNL     1       7.680   5.356  14.491  0.00  0.00    +0.000 NA
ENDBRANCH  23  25
ENDBRANCH   2  19
TORSDOF 5
ENDMDL
MODEL 9
REMARK VINA RESULT:      -8.1      3.454      9.652
REMARK  Name = 
REMARK  6 active torsions:
REMARK  status: ('A' for Active; 'I' for Inactive)
REMARK    1  A    between atoms: C_1  and  C_2
REMARK    2  A    between atoms: C_6  and  O_7
REMARK    3  A    between atoms: O_7  and  C_8
REMARK    4  A    between atoms: C_11  and  N_12
REMARK    5  A    between atoms: C_13  and  C_15
REMARK    6  A    between atoms: C_19  and  N_20
REMARK                            x       y       z     vdW  Elec       q    Type
REMARK                         _______ _______ _______ _____ _____    ______ ____
ROOT
ATOM      1  N   UNL     1       2.004   6.992  19.740  0.00  0.00    +0.000 N 
ATOM      2  C   UNL     1       2.648   6.825  18.528  0.00  0.00    +0.000 C 
ATOM      3  O   UNL     1       2.931   7.688  17.710  0.00  0.00    +0.000 OA
ATOM      4  H   UNL     1       1.912   6.152  20.307  0.00  0.00    +0.000 HD
ENDROOT
BRANCH   1   8
ATOM      5  C   UNL     1       0.587  10.704  21.170  0.00  0.00    +0.000 A 
ATOM      6  C   UNL     1       0.690   9.630  22.049  0.00  0.00    +0.000 A 
ATOM      7  C   UNL     1       1.132   8.387  21.588  0.00  0.00    +0.000 A 
ATOM      8  C   UNL     1       1.478   8.199  20.245  0.00  0.00    +0.000 A 
ATOM      9  C   UNL     1       1.311   9.266  19.357  0.00  0.00    +0.000 A 
ATOM     10  C   UNL     1       0.843  10.505  19.814  0.00  0.00    +0.000 A 
BRANCH   5  11
ATOM     11  O   UNL     1       0.188  11.902  21.720  0.00  0.00    +0.000 OA
BRANCH  11  17
ATOM     12  C   UNL     1      -3.866  12.449  24.358  0.00  0.00    +0.000 C 
ATOM     13  C   UNL     1      -3.173  12.482  23.028  0.00  0.00    +0.000 A 
ATOM     14  C   UNL     1      -3.880  12.780  21.857  0.00  0.00    +0.000 A 
ATOM     15  C   UNL     1      -3.222  12.843  20.630  0.00  0.00    +0.000 A 
ATOM     16  C   UNL     1      -1.853  12.594  20.558  0.00  0.00    +0.000 A 
ATOM     17  C   UNL     1      -1.151  12.227  21.710  0.00  0.00    +0.000 A 
ATOM     18  C   UNL     1      -1.799  12.213  22.946  0.00  0.00    +0.000 A 
ENDBRANCH  11  17
ENDBRANCH   5  11
ENDBRANCH   1   8
BRANCH   2  19
ATOM     19  C   UNL     1       3.026   5.354  18.241  0.00  0.00    +0.000 C 
ATOM     20  O   UNL     1       2.178   4.593  17.788  0.00  0.00    +0.000 OA
ATOM     21  N   UNL     1       4.330   5.014  18.508  0.00  0.00    +0.000 N 
ATOM     22  C   UNL     1       5.038   3.774  18.280  0.00  0.00    +0.000 C 
ATOM     23  C   UNL     1       6.296   4.618  17.983  0.00  0.00    +0.000 C 
ATOM     24  C   UNL     1       5.536   5.823  18.570  0.00  0.00    +0.000 C 
BRANCH  23  25
ATOM     25  N   UNL     1       6.556   4.726  16.570  0.00  0.00    +0.000 N 
ATOM     26  C   UNL     1       5.997   4.004  15.551  0.00  0.00    +0.000 A 
ATOM     27  C   UNL     1       6.587   4.517  14.421  0.00  0.00    +0.000 A 
ATOM     28  N   UNL     1       7.467   5.499  14.772  0.00  0.00    +0.000 NA
ATOM     29  N   UNL     1       7.440   5.621  16.092  0.00  0.00    +0.000 NA
ENDBRANCH  23  25
ENDBRANCH   2  19
TORSDOF 5
ENDMDL
