MODEL 1
REMARK VINA RESULT:     -10.0      0.000      0.000
REMARK  Name = 
REMARK  8 active torsions:
REMARK  status: ('A' for Active; 'I' for Inactive)
REMARK    1  A    between atoms: C_1  and  C_2
REMARK    2  A    between atoms: C_2  and  C_3
REMARK    3  A    between atoms: C_2  and  C_10
REMARK    4  A    between atoms: C_3  and  C_4
REMARK    5  A    between atoms: N_8  and  C_9
REMARK    6  A    between atoms: C_14  and  N_15
REMARK    7  A    between atoms: C_16  and  C_18
REMARK    8  A    between atoms: C_29  and  C_30
REMARK                            x       y       z     vdW  Elec       q    Type
REMARK                         _______ _______ _______ _____ _____    ______ ____
ROOT
ATOM      1  N   UNL     1       2.228   7.394  18.847  0.00  0.00    +0.000 N 
ATOM      2  C   UNL     1       1.982   8.612  18.213  0.00  0.00    +0.000 C 
ATOM      3  O   UNL     1       2.316   8.915  17.073  0.00  0.00    +0.000 OA
ATOM      4  H   UNL     1       1.973   7.304  19.821  0.00  0.00    +0.000 HD
ENDROOT
BRANCH   2   5
ATOM      5  C   UNL     1       1.185   9.631  18.963  0.00  0.00    +0.000 A 
ATOM      6  C   UNL     1       0.483  10.612  18.269  0.00  0.00    +0.000 A 
ATOM      7  C   UNL     1      -0.368  11.514  18.945  0.00  0.00    +0.000 A 
ATOM      8  C   UNL     1      -0.598  11.478  20.343  0.00  0.00    +0.000 A 
ATOM      9  C   UNL     1       0.103  10.451  21.012  0.00  0.00    +0.000 A 
ATOM     10  C   UNL     1       0.987   9.562  20.332  0.00  0.00    +0.000 A 
ATOM     11  C   UNL     1       0.013  10.124  22.450  0.00  0.00    +0.000 C 
ATOM     12  O   UNL     1       0.874   9.421  22.978  0.00  0.00    +0.000 OA
ATOM     13  C   UNL     1      -1.155  10.565  23.302  0.00  0.00    +0.000 C 
ATOM     14  C   UNL     1      -2.203  11.655  23.384  0.00  0.00    +0.000 C 
ATOM     15  C   UNL     1      -2.473  12.419  22.112  0.00  0.00    +0.000 C 
ATOM     16  C   UNL     1      -1.385  12.633  21.022  0.00  0.00    +0.000 C 
ATOM     17  C   UNL     1      -2.142  13.513  19.983  0.00  0.00    +0.000 C 
ENDBRANCH   2   5
BRANCH   1  22
ATOM     18  C   UNL     1       4.639   5.064  17.183  0.00  0.00    +0.000 A 
ATOM     19  C   UNL     1       3.884   3.884  17.152  0.00  0.00    +0.000 A 
ATOM     20  C   UNL     1       2.573   3.868  17.622  0.00  0.00    +0.000 A 
ATOM     21  C   UNL     1       2.005   5.023  18.157  0.00  0.00    +0.000 A 
ATOM     22  C   UNL     1       2.729   6.213  18.229  0.00  0.00    +0.000 A 
ATOM     23  C   UNL     1       4.043   6.230  17.716  0.00  0.00    +0.000 A 
BRANCH  18  25
ATOM     24  C   UNL     1       7.067   4.619  17.844  0.00  0.00    +0.000 C 
ATOM     25  C   UNL     1       6.093   4.985  16.716  0.00  0.00    +0.000 C 
BRANCH  25  26
ATOM     26  C   UNL     1       6.200   4.024  15.512  0.00  0.00    +0.000 C 
BRANCH  26  27
ATOM     27  C   UNL     1       6.942   4.607  14.353  0.00  0.00    +0.000 A 
ATOM     28  N   UNL     1       7.898   5.513  14.409  0.00  0.00    +0.000 NA
ATOM     29  N   UNL     1       8.307   5.791  13.124  0.00  0.00    +0.000 NA
ATOM     30  C   UNL     1       7.597   5.042  12.311  0.00  0.00    +0.000 A 
ATOM     31  N   UNL     1       6.728   4.290  13.036  0.00  0.00    +0.000 N 
ATOM     32  C   UNL     1       5.791   3.339  12.503  0.00  0.00    +0.000 C 
ENDBRANCH  26  27
ENDBRANCH  25  26
ENDBRANCH  18  25
ENDBRANCH   1  22
TORSDOF 5
ENDMDL
MODEL 2
REMARK VINA RESULT:      -9.6      1.302      2.184
REMARK  Name = 
REMARK  8 active torsions:
REMARK  status: ('A' for Active; 'I' for Inactive)
REMARK    1  A    between atoms: C_1  and  C_2
REMARK    2  A    between atoms: C_2  and  C_3
REMARK    3  A    between atoms: C_2  and  C_10
REMARK    4  A    between atoms: C_3  and  C_4
REMARK    5  A    between atoms: N_8  and  C_9
REMARK    6  A    between atoms: C_14  and  N_15
REMARK    7  A    between atoms: C_16  and  C_18
REMARK    8  A    between atoms: C_29  and  C_30
REMARK                            x       y       z     vdW  Elec       q    Type
REMARK                         _______ _______ _______ _____ _____    ______ ____
ROOT
ATOM      1  N   UNL     1       2.214   7.274  18.986  0.00  0.00    +0.000 N 
ATOM      2  C   UNL     1       1.950   8.514  18.406  0.00  0.00    +0.000 C 
ATOM      3  O   UNL     1       2.243   8.857  17.265  0.00  0.00    +0.000 OA
ATOM      4  H   UNL     1       1.995   7.149  19.965  0.00  0.00    +0.000 HD
ENDROOT
BRANCH   2   5
ATOM      5  C   UNL     1       1.187   9.509  19.221  0.00  0.00    +0.000 A 
ATOM      6  C   UNL     1       0.543   9.105  20.386  0.00  0.00    +0.000 A 
ATOM      7  C   UNL     1      -0.086  10.044  21.233  0.00  0.00    +0.000 A 
ATOM      8  C   UNL     1      -0.088  11.441  20.991  0.00  0.00    +0.000 A 
ATOM      9  C   UNL     1       0.601  11.820  19.819  0.00  0.00    +0.000 A 
ATOM     10  C   UNL     1       1.208  10.866  18.948  0.00  0.00    +0.000 A 
ATOM     11  C   UNL     1       0.824  13.201  19.344  0.00  0.00    +0.000 C 
ATOM     12  O   UNL     1       1.168  13.404  18.179  0.00  0.00    +0.000 OA
ATOM     13  C   UNL     1       0.719  14.393  20.265  0.00  0.00    +0.000 C 
ATOM     14  C   UNL     1       0.023  14.839  21.534  0.00  0.00    +0.000 C 
ATOM     15  C   UNL     1      -0.510  13.743  22.423  0.00  0.00    +0.000 C 
ATOM     16  C   UNL     1      -0.977  12.369  21.863  0.00  0.00    +0.000 C 
ATOM     17  C   UNL     1      -1.481  11.654  23.152  0.00  0.00    +0.000 C 
ENDBRANCH   2   5
BRANCH   1  22
ATOM     18  C   UNL     1       4.542   5.003  17.133  0.00  0.00    +0.000 A 
ATOM     19  C   UNL     1       3.789   3.822  17.104  0.00  0.00    +0.000 A 
ATOM     20  C   UNL     1       2.504   3.786  17.639  0.00  0.00    +0.000 A 
ATOM     21  C   UNL     1       1.961   4.923  18.237  0.00  0.00    +0.000 A 
ATOM     22  C   UNL     1       2.685   6.113  18.309  0.00  0.00    +0.000 A 
ATOM     23  C   UNL     1       3.971   6.151  17.730  0.00  0.00    +0.000 A 
BRANCH  18  25
ATOM     24  C   UNL     1       6.998   4.524  17.650  0.00  0.00    +0.000 C 
ATOM     25  C   UNL     1       5.970   4.944  16.591  0.00  0.00    +0.000 C 
BRANCH  25  26
ATOM     26  C   UNL     1       6.014   4.039  15.339  0.00  0.00    +0.000 C 
BRANCH  26  27
ATOM     27  C   UNL     1       6.864   4.589  14.240  0.00  0.00    +0.000 A 
ATOM     28  N   UNL     1       7.822   5.486  14.362  0.00  0.00    +0.000 NA
ATOM     29  N   UNL     1       8.347   5.733  13.114  0.00  0.00    +0.000 NA
ATOM     30  C   UNL     1       7.705   4.974  12.256  0.00  0.00    +0.000 A 
ATOM     31  N   UNL     1       6.764   4.247  12.915  0.00  0.00    +0.000 N 
ATOM     32  C   UNL     1       5.868   3.294  12.320  0.00  0.00    +0.000 C 
ENDBRANCH  26  27
ENDBRANCH  25  26
ENDBRANCH  18  25
ENDBRANCH   1  22
TORSDOF 5
ENDMDL
MODEL 3
REMARK VINA RESULT:      -9.4      2.021      3.042
REMARK  Name = 
REMARK  8 active torsions:
REMARK  status: ('A' for Active; 'I' for Inactive)
REMARK    1  A    between atoms: C_1  and  C_2
REMARK    2  A    between atoms: C_2  and  C_3
REMARK    3  A    between atoms: C_2  and  C_10
REMARK    4  A    between atoms: C_3  and  C_4
REMARK    5  A    between atoms: N_8  and  C_9
REMARK    6  A    between atoms: C_14  and  N_15
REMARK    7  A    between atoms: C_16  and  C_18
REMARK    8  A    between atoms: C_29  and  C_30
REMARK                            x       y       z     vdW  Elec       q    Type
REMARK                         _______ _______ _______ _____ _____    ______ ____
ROOT
ATOM      1  N   UNL     1       2.258   6.373  18.250  0.00  0.00    +0.000 N 
ATOM      2  C   UNL     1       2.070   6.809  19.561  0.00  0.00    +0.000 C 
ATOM      3  O   UNL     1       2.276   6.156  20.578  0.00  0.00    +0.000 OA
ATOM      4  H   UNL     1       1.968   6.984  17.498  0.00  0.00    +0.000 HD
ENDROOT
BRANCH   2   5
ATOM      5  C   UNL     1       1.632   8.225  19.761  0.00  0.00    +0.000 A 
ATOM      6  C   UNL     1       1.537   9.084  18.670  0.00  0.00    +0.000 A 
ATOM      7  C   UNL     1       1.016  10.389  18.814  0.00  0.00    +0.000 A 
ATOM      8  C   UNL     1       0.532  10.910  20.040  0.00  0.00    +0.000 A 
ATOM      9  C   UNL     1       0.614  10.003  21.119  0.00  0.00    +0.000 A 
ATOM     10  C   UNL     1       1.169   8.696  20.978  0.00  0.00    +0.000 A 
ATOM     11  C   UNL     1       0.129  10.235  22.495  0.00  0.00    +0.000 C 
ATOM     12  O   UNL     1       0.513   9.511  23.414  0.00  0.00    +0.000 OA
ATOM     13  C   UNL     1      -0.895  11.298  22.817  0.00  0.00    +0.000 C 
ATOM     14  C   UNL     1      -1.403  12.631  22.309  0.00  0.00    +0.000 C 
ATOM     15  C   UNL     1      -1.092  12.959  20.870  0.00  0.00    +0.000 C 
ATOM     16  C   UNL     1       0.173  12.417  20.146  0.00  0.00    +0.000 C 
ATOM     17  C   UNL     1       0.051  13.088  18.745  0.00  0.00    +0.000 C 
ENDBRANCH   2   5
BRANCH   1  22
ATOM     18  C   UNL     1       4.776   4.125  16.633  0.00  0.00    +0.000 A 
ATOM     19  C   UNL     1       4.382   2.880  17.142  0.00  0.00    +0.000 A 
ATOM     20  C   UNL     1       3.264   2.772  17.965  0.00  0.00    +0.000 A 
ATOM     21  C   UNL     1       2.538   3.910  18.315  0.00  0.00    +0.000 A 
ATOM     22  C   UNL     1       2.909   5.172  17.851  0.00  0.00    +0.000 A 
ATOM     23  C   UNL     1       4.021   5.266  16.987  0.00  0.00    +0.000 A 
BRANCH  18  25
ATOM     24  C   UNL     1       5.804   3.941  14.301  0.00  0.00    +0.000 C 
ATOM     25  C   UNL     1       6.055   4.173  15.797  0.00  0.00    +0.000 C 
BRANCH  25  26
ATOM     26  C   UNL     1       6.804   5.496  16.069  0.00  0.00    +0.000 C 
BRANCH  26  27
ATOM     27  C   UNL     1       7.367   5.585  17.450  0.00  0.00    +0.000 A 
ATOM     28  N   UNL     1       7.613   4.578  18.264  0.00  0.00    +0.000 NA
ATOM     29  N   UNL     1       8.110   5.085  19.443  0.00  0.00    +0.000 NA
ATOM     30  C   UNL     1       8.166   6.391  19.322  0.00  0.00    +0.000 A 
ATOM     31  N   UNL     1       7.705   6.749  18.094  0.00  0.00    +0.000 N 
ATOM     32  C   UNL     1       7.620   8.090  17.585  0.00  0.00    +0.000 C 
ENDBRANCH  26  27
ENDBRANCH  25  26
ENDBRANCH  18  25
ENDBRANCH   1  22
TORSDOF 5
ENDMDL
MODEL 4
REMARK VINA RESULT:      -9.3      1.843      2.794
REMARK  Name = 
REMARK  8 active torsions:
REMARK  status: ('A' for Active; 'I' for Inactive)
REMARK    1  A    between atoms: C_1  and  C_2
REMARK    2  A    between atoms: C_2  and  C_3
REMARK    3  A    between atoms: C_2  and  C_10
REMARK    4  A    between atoms: C_3  and  C_4
REMARK    5  A    between atoms: N_8  and  C_9
REMARK    6  A    between atoms: C_14  and  N_15
REMARK    7  A    between atoms: C_16  and  C_18
REMARK    8  A    between atoms: C_29  and  C_30
REMARK                            x       y       z     vdW  Elec       q    Type
REMARK                         _______ _______ _______ _____ _____    ______ ____
ROOT
ATOM      1  N   UNL     1       2.131   6.464  18.640  0.00  0.00    +0.000 N 
ATOM      2  C   UNL     1       2.460   7.777  18.307  0.00  0.00    +0.000 C 
ATOM      3  O   UNL     1       3.341   8.129  17.530  0.00  0.00    +0.000 OA
ATOM      4  H   UNL     1       1.438   6.314  19.361  0.00  0.00    +0.000 HD
ENDROOT
BRANCH   2   5
ATOM      5  C   UNL     1       1.627   8.869  18.901  0.00  0.00    +0.000 A 
ATOM      6  C   UNL     1       0.858   9.683  18.075  0.00  0.00    +0.000 A 
ATOM      7  C   UNL     1      -0.024  10.643  18.618  0.00  0.00    +0.000 A 
ATOM      8  C   UNL     1      -0.219  10.833  20.009  0.00  0.00    +0.000 A 
ATOM      9  C   UNL     1       0.552   9.970  20.817  0.00  0.00    +0.000 A 
ATOM     10  C   UNL     1       1.466   9.022  20.268  0.00  0.00    +0.000 A 
ATOM     11  C   UNL     1       0.514   9.887  22.292  0.00  0.00    +0.000 C 
ATOM     12  O   UNL     1       1.424   9.325  22.902  0.00  0.00    +0.000 OA
ATOM     13  C   UNL     1      -0.655  10.407  23.095  0.00  0.00    +0.000 C 
ATOM     14  C   UNL     1      -1.758  11.443  23.028  0.00  0.00    +0.000 C 
ATOM     15  C   UNL     1      -2.098  11.967  21.655  0.00  0.00    +0.000 C 
ATOM     16  C   UNL     1      -1.049  12.047  20.510  0.00  0.00    +0.000 C 
ATOM     17  C   UNL     1      -1.877  12.701  19.363  0.00  0.00    +0.000 C 
ENDBRANCH   2   5
BRANCH   1  22
ATOM     18  C   UNL     1       4.415   4.218  16.703  0.00  0.00    +0.000 A 
ATOM     19  C   UNL     1       3.754   2.991  16.840  0.00  0.00    +0.000 A 
ATOM     20  C   UNL     1       2.538   2.911  17.515  0.00  0.00    +0.000 A 
ATOM     21  C   UNL     1       1.978   4.051  18.089  0.00  0.00    +0.000 A 
ATOM     22  C   UNL     1       2.614   5.289  17.997  0.00  0.00    +0.000 A 
ATOM     23  C   UNL     1       3.826   5.368  17.278  0.00  0.00    +0.000 A 
BRANCH  18  25
ATOM     24  C   UNL     1       5.696   3.863  14.520  0.00  0.00    +0.000 C 
ATOM     25  C   UNL     1       5.779   4.213  16.012  0.00  0.00    +0.000 C 
BRANCH  25  26
ATOM     26  C   UNL     1       6.492   5.561  16.260  0.00  0.00    +0.000 C 
BRANCH  26  27
ATOM     27  C   UNL     1       7.198   5.624  17.575  0.00  0.00    +0.000 A 
ATOM     28  N   UNL     1       7.439   4.613  18.387  0.00  0.00    +0.000 NA
ATOM     29  N   UNL     1       8.096   5.094  19.496  0.00  0.00    +0.000 NA
ATOM     30  C   UNL     1       8.251   6.389  19.335  0.00  0.00    +0.000 A 
ATOM     31  N   UNL     1       7.699   6.764  18.151  0.00  0.00    +0.000 N 
ATOM     32  C   UNL     1       7.678   8.099  17.618  0.00  0.00    +0.000 C 
ENDBRANCH  26  27
ENDBRANCH  25  26
ENDBRANCH  18  25
ENDBRANCH   1  22
TORSDOF 5
ENDMDL
MODEL 5
REMARK VINA RESULT:      -9.3      1.031      1.158
REMARK  Name = 
REMARK  8 active torsions:
REMARK  status: ('A' for Active; 'I' for Inactive)
REMARK    1  A    between atoms: C_1  and  C_2
REMARK    2  A    between atoms: C_2  and  C_3
REMARK    3  A    between atoms: C_2  and  C_10
REMARK    4  A    between atoms: C_3  and  C_4
REMARK    5  A    between atoms: N_8  and  C_9
REMARK    6  A    between atoms: C_14  and  N_15
REMARK    7  A    between atoms: C_16  and  C_18
REMARK    8  A    between atoms: C_29  and  C_30
REMARK                            x       y       z     vdW  Elec       q    Type
REMARK                         _______ _______ _______ _____ _____    ______ ____
ROOT
ATOM      1  N   UNL     1       2.079   7.274  18.236  0.00  0.00    +0.000 N 
ATOM      2  C   UNL     1       1.814   7.607  19.564  0.00  0.00    +0.000 C 
ATOM      3  O   UNL     1       2.010   6.893  20.542  0.00  0.00    +0.000 OA
ATOM      4  H   UNL     1       1.790   7.922  17.516  0.00  0.00    +0.000 HD
ENDROOT
BRANCH   2   5
ATOM      5  C   UNL     1       1.297   8.983  19.841  0.00  0.00    +0.000 A 
ATOM      6  C   UNL     1       1.190   9.906  18.806  0.00  0.00    +0.000 A 
ATOM      7  C   UNL     1       0.599  11.171  19.018  0.00  0.00    +0.000 A 
ATOM      8  C   UNL     1       0.051  11.584  20.258  0.00  0.00    +0.000 A 
ATOM      9  C   UNL     1       0.146  10.612  21.278  0.00  0.00    +0.000 A 
ATOM     10  C   UNL     1       0.774   9.347  21.070  0.00  0.00    +0.000 A 
ATOM     11  C   UNL     1      -0.392  10.727  22.649  0.00  0.00    +0.000 C 
ATOM     12  O   UNL     1       0.001   9.963  23.531  0.00  0.00    +0.000 OA
ATOM     13  C   UNL     1      -1.479  11.714  23.004  0.00  0.00    +0.000 C 
ATOM     14  C   UNL     1      -2.039  13.051  22.568  0.00  0.00    +0.000 C 
ATOM     15  C   UNL     1      -1.703  13.490  21.164  0.00  0.00    +0.000 C 
ATOM     16  C   UNL     1      -0.390  13.061  20.450  0.00  0.00    +0.000 C 
ATOM     17  C   UNL     1      -0.503  13.817  19.092  0.00  0.00    +0.000 C 
ENDBRANCH   2   5
BRANCH   1  22
ATOM     18  C   UNL     1       4.929   5.234  16.924  0.00  0.00    +0.000 A 
ATOM     19  C   UNL     1       4.400   3.941  17.036  0.00  0.00    +0.000 A 
ATOM     20  C   UNL     1       3.097   3.745  17.485  0.00  0.00    +0.000 A 
ATOM     21  C   UNL     1       2.311   4.834  17.858  0.00  0.00    +0.000 A 
ATOM     22  C   UNL     1       2.806   6.137  17.785  0.00  0.00    +0.000 A 
ATOM     23  C   UNL     1       4.114   6.329  17.292  0.00  0.00    +0.000 A 
BRANCH  18  25
ATOM     24  C   UNL     1       7.363   5.437  17.677  0.00  0.00    +0.000 C 
ATOM     25  C   UNL     1       6.390   5.364  16.492  0.00  0.00    +0.000 C 
BRANCH  25  26
ATOM     26  C   UNL     1       6.744   4.227  15.509  0.00  0.00    +0.000 C 
BRANCH  26  27
ATOM     27  C   UNL     1       7.236   4.719  14.187  0.00  0.00    +0.000 A 
ATOM     28  N   UNL     1       8.184   5.613  13.984  0.00  0.00    +0.000 NA
ATOM     29  N   UNL     1       8.324   5.797  12.627  0.00  0.00    +0.000 NA
ATOM     30  C   UNL     1       7.465   5.004  12.029  0.00  0.00    +0.000 A 
ATOM     31  N   UNL     1       6.760   4.316  12.965  0.00  0.00    +0.000 N 
ATOM     32  C   UNL     1       5.735   3.343  12.700  0.00  0.00    +0.000 C 
ENDBRANCH  26  27
ENDBRANCH  25  26
ENDBRANCH  18  25
ENDBRANCH   1  22
TORSDOF 5
ENDMDL
MODEL 6
REMARK VINA RESULT:      -9.2      1.887      2.810
REMARK  Name = 
REMARK  8 active torsions:
REMARK  status: ('A' for Active; 'I' for Inactive)
REMARK    1  A    between atoms: C_1  and  C_2
REMARK    2  A    between atoms: C_2  and  C_3
REMARK    3  A    between atoms: C_2  and  C_10
REMARK    4  A    between atoms: C_3  and  C_4
REMARK    5  A    between atoms: N_8  and  C_9
REMARK    6  A    between atoms: C_14  and  N_15
REMARK    7  A    between atoms: C_16  and  C_18
REMARK    8  A    between atoms: C_29  and  C_30
REMARK                            x       y       z     vdW  Elec       q    Type
REMARK                         _______ _______ _______ _____ _____    ______ ____
ROOT
ATOM      1  N   UNL     1       2.546   7.371  18.803  0.00  0.00    +0.000 N 
ATOM      2  C   UNL     1       2.161   8.552  18.170  0.00  0.00    +0.000 C 
ATOM      3  O   UNL     1       2.141   8.752  16.959  0.00  0.00    +0.000 OA
ATOM      4  H   UNL     1       2.598   7.367  19.813  0.00  0.00    +0.000 HD
ENDROOT
BRANCH   2   5
ATOM      5  C   UNL     1       1.666   9.668  19.033  0.00  0.00    +0.000 A 
ATOM      6  C   UNL     1       1.615  10.965  18.530  0.00  0.00    +0.000 A 
ATOM      7  C   UNL     1       1.045  12.015  19.283  0.00  0.00    +0.000 A 
ATOM      8  C   UNL     1       0.465  11.838  20.564  0.00  0.00    +0.000 A 
ATOM      9  C   UNL     1       0.504  10.506  21.030  0.00  0.00    +0.000 A 
ATOM     10  C   UNL     1       1.109   9.452  20.282  0.00  0.00    +0.000 A 
ATOM     11  C   UNL     1      -0.078  10.004  22.292  0.00  0.00    +0.000 C 
ATOM     12  O   UNL     1       0.267   8.909  22.738  0.00  0.00    +0.000 OA
ATOM     13  C   UNL     1      -1.154  10.760  23.036  0.00  0.00    +0.000 C 
ATOM     14  C   UNL     1      -1.669  12.168  23.246  0.00  0.00    +0.000 C 
ATOM     15  C   UNL     1      -1.274  13.185  22.203  0.00  0.00    +0.000 C 
ATOM     16  C   UNL     1       0.052  13.081  21.399  0.00  0.00    +0.000 C 
ATOM     17  C   UNL     1       0.002  14.375  20.533  0.00  0.00    +0.000 C 
ENDBRANCH   2   5
BRANCH   1  22
ATOM     18  C   UNL     1       4.309   4.750  16.794  0.00  0.00    +0.000 A 
ATOM     19  C   UNL     1       3.476   3.646  17.016  0.00  0.00    +0.000 A 
ATOM     20  C   UNL     1       2.314   3.774  17.772  0.00  0.00    +0.000 A 
ATOM     21  C   UNL     1       1.981   5.001  18.344  0.00  0.00    +0.000 A 
ATOM     22  C   UNL     1       2.793   6.121  18.169  0.00  0.00    +0.000 A 
ATOM     23  C   UNL     1       3.948   5.991  17.368  0.00  0.00    +0.000 A 
BRANCH  18  25
ATOM     24  C   UNL     1       5.362   4.203  14.530  0.00  0.00    +0.000 C 
ATOM     25  C   UNL     1       5.603   4.515  16.013  0.00  0.00    +0.000 C 
BRANCH  25  26
ATOM     26  C   UNL     1       6.555   5.714  16.214  0.00  0.00    +0.000 C 
BRANCH  26  27
ATOM     27  C   UNL     1       7.243   5.709  17.540  0.00  0.00    +0.000 A 
ATOM     28  N   UNL     1       7.480   4.656  18.298  0.00  0.00    +0.000 NA
ATOM     29  N   UNL     1       8.118   5.078  19.442  0.00  0.00    +0.000 NA
ATOM     30  C   UNL     1       8.266   6.381  19.355  0.00  0.00    +0.000 A 
ATOM     31  N   UNL     1       7.728   6.818  18.186  0.00  0.00    +0.000 N 
ATOM     32  C   UNL     1       7.705   8.180  17.728  0.00  0.00    +0.000 C 
ENDBRANCH  26  27
ENDBRANCH  25  26
ENDBRANCH  18  25
ENDBRANCH   1  22
TORSDOF 5
ENDMDL
MODEL 7
REMARK VINA RESULT:      -9.1      1.702      2.628
REMARK  Name = 
REMARK  8 active torsions:
REMARK  status: ('A' for Active; 'I' for Inactive)
REMARK    1  A    between atoms: C_1  and  C_2
REMARK    2  A    between atoms: C_2  and  C_3
REMARK    3  A    between atoms: C_2  and  C_10
REMARK    4  A    between atoms: C_3  and  C_4
REMARK    5  A    between atoms: N_8  and  C_9
REMARK    6  A    between atoms: C_14  and  N_15
REMARK    7  A    between atoms: C_16  and  C_18
REMARK    8  A    between atoms: C_29  and  C_30
REMARK                            x       y       z     vdW  Elec       q    Type
REMARK                         _______ _______ _______ _____ _____    ______ ____
ROOT
ATOM      1  N   UNL     1       2.656   6.996  19.623  0.00  0.00    +0.000 N 
ATOM      2  C   UNL     1       2.178   7.940  18.715  0.00  0.00    +0.000 C 
ATOM      3  O   UNL     1       2.296   7.896  17.495  0.00  0.00    +0.000 OA
ATOM      4  H   UNL     1       2.566   7.196  20.610  0.00  0.00    +0.000 HD
ENDROOT
BRANCH   2   5
ATOM      5  C   UNL     1       1.394   9.090  19.263  0.00  0.00    +0.000 A 
ATOM      6  C   UNL     1       0.814  10.011  18.397  0.00  0.00    +0.000 A 
ATOM      7  C   UNL     1      -0.025  11.038  18.882  0.00  0.00    +0.000 A 
ATOM      8  C   UNL     1      -0.364  11.194  20.249  0.00  0.00    +0.000 A 
ATOM      9  C   UNL     1       0.214  10.225  21.097  0.00  0.00    +0.000 A 
ATOM     10  C   UNL     1       1.088   9.208  20.609  0.00  0.00    +0.000 A 
ATOM     11  C   UNL     1      -0.007  10.091  22.551  0.00  0.00    +0.000 C 
ATOM     12  O   UNL     1       0.764   9.415  23.232  0.00  0.00    +0.000 OA
ATOM     13  C   UNL     1      -1.205  10.701  23.240  0.00  0.00    +0.000 C 
ATOM     14  C   UNL     1      -2.183  11.849  23.099  0.00  0.00    +0.000 C 
ATOM     15  C   UNL     1      -2.303  12.457  21.724  0.00  0.00    +0.000 C 
ATOM     16  C   UNL     1      -1.123  12.469  20.711  0.00  0.00    +0.000 C 
ATOM     17  C   UNL     1      -1.738  13.249  19.512  0.00  0.00    +0.000 C 
ENDBRANCH   2   5
BRANCH   1  22
ATOM     18  C   UNL     1       4.580   4.364  17.785  0.00  0.00    +0.000 A 
ATOM     19  C   UNL     1       4.436   3.277  18.656  0.00  0.00    +0.000 A 
ATOM     20  C   UNL     1       3.665   3.390  19.811  0.00  0.00    +0.000 A 
ATOM     21  C   UNL     1       3.051   4.601  20.128  0.00  0.00    +0.000 A 
ATOM     22  C   UNL     1       3.188   5.716  19.301  0.00  0.00    +0.000 A 
ATOM     23  C   UNL     1       3.938   5.580  18.113  0.00  0.00    +0.000 A 
BRANCH  18  25
ATOM     24  C   UNL     1       5.140   5.108  15.404  0.00  0.00    +0.000 C 
ATOM     25  C   UNL     1       5.499   4.184  16.576  0.00  0.00    +0.000 C 
BRANCH  25  26
ATOM     26  C   UNL     1       6.972   4.339  17.016  0.00  0.00    +0.000 C 
BRANCH  26  27
ATOM     27  C   UNL     1       7.354   5.752  17.317  0.00  0.00    +0.000 A 
ATOM     28  N   UNL     1       7.436   6.745  16.454  0.00  0.00    +0.000 NA
ATOM     29  N   UNL     1       7.834   7.876  17.130  0.00  0.00    +0.000 NA
ATOM     30  C   UNL     1       7.979   7.552  18.395  0.00  0.00    +0.000 A 
ATOM     31  N   UNL     1       7.696   6.232  18.556  0.00  0.00    +0.000 N 
ATOM     32  C   UNL     1       7.732   5.510  19.799  0.00  0.00    +0.000 C 
ENDBRANCH  26  27
ENDBRANCH  25  26
ENDBRANCH  18  25
ENDBRANCH   1  22
TORSDOF 5
ENDMDL
MODEL 8
REMARK VINA RESULT:      -9.0      1.907      2.773
REMARK  Name = 
REMARK  8 active torsions:
REMARK  status: ('A' for Active; 'I' for Inactive)
REMARK    1  A    between atoms: C_1  and  C_2
REMARK    2  A    between atoms: C_2  and  C_3
REMARK    3  A    between atoms: C_2  and  C_10
REMARK    4  A    between atoms: C_3  and  C_4
REMARK    5  A    between atoms: N_8  and  C_9
REMARK    6  A    between atoms: C_14  and  N_15
REMARK    7  A    between atoms: C_16  and  C_18
REMARK    8  A    between atoms: C_29  and  C_30
REMARK                            x       y       z     vdW  Elec       q    Type
REMARK                         _______ _______ _______ _____ _____    ______ ____
ROOT
ATOM      1  N   UNL     1       1.838   6.367  20.839  0.00  0.00    +0.000 N 
ATOM      2  C   UNL     1       2.068   7.370  19.899  0.00  0.00    +0.000 C 
ATOM      3  O   UNL     1       2.752   7.270  18.886  0.00  0.00    +0.000 OA
ATOM      4  H   UNL     1       1.323   6.607  21.676  0.00  0.00    +0.000 HD
ENDROOT
BRANCH   2   5
ATOM      5  C   UNL     1       1.373   8.679  20.102  0.00  0.00    +0.000 A 
ATOM      6  C   UNL     1       1.094   9.494  19.009  0.00  0.00    +0.000 A 
ATOM      7  C   UNL     1       0.338  10.677  19.158  0.00  0.00    +0.000 A 
ATOM      8  C   UNL     1      -0.211  11.108  20.392  0.00  0.00    +0.000 A 
ATOM      9  C   UNL     1       0.064  10.243  21.474  0.00  0.00    +0.000 A 
ATOM     10  C   UNL     1       0.855   9.064  21.327  0.00  0.00    +0.000 A 
ATOM     11  C   UNL     1      -0.427  10.391  22.859  0.00  0.00    +0.000 C 
ATOM     12  O   UNL     1       0.106   9.762  23.773  0.00  0.00    +0.000 OA
ATOM     13  C   UNL     1      -1.628  11.244  23.198  0.00  0.00    +0.000 C 
ATOM     14  C   UNL     1      -2.390  12.452  22.695  0.00  0.00    +0.000 C 
ATOM     15  C   UNL     1      -2.177  12.820  21.247  0.00  0.00    +0.000 C 
ATOM     16  C   UNL     1      -0.848  12.521  20.498  0.00  0.00    +0.000 C 
ATOM     17  C   UNL     1      -1.123  13.143  19.097  0.00  0.00    +0.000 C 
ENDBRANCH   2   5
BRANCH   1  22
ATOM     18  C   UNL     1       3.308   3.255  19.369  0.00  0.00    +0.000 A 
ATOM     19  C   UNL     1       3.069   2.338  20.402  0.00  0.00    +0.000 A 
ATOM     20  C   UNL     1       2.380   2.725  21.548  0.00  0.00    +0.000 A 
ATOM     21  C   UNL     1       1.944   4.042  21.694  0.00  0.00    +0.000 A 
ATOM     22  C   UNL     1       2.182   4.993  20.701  0.00  0.00    +0.000 A 
ATOM     23  C   UNL     1       2.847   4.582  19.527  0.00  0.00    +0.000 A 
BRANCH  18  25
ATOM     24  C   UNL     1       3.746   1.366  17.704  0.00  0.00    +0.000 C 
ATOM     25  C   UNL     1       4.133   2.774  18.175  0.00  0.00    +0.000 C 
BRANCH  25  26
ATOM     26  C   UNL     1       4.056   3.816  17.037  0.00  0.00    +0.000 C 
BRANCH  26  27
ATOM     27  C   UNL     1       5.395   4.255  16.543  0.00  0.00    +0.000 A 
ATOM     28  N   UNL     1       5.939   3.957  15.380  0.00  0.00    +0.000 NA
ATOM     29  N   UNL     1       7.184   4.542  15.320  0.00  0.00    +0.000 NA
ATOM     30  C   UNL     1       7.371   5.193  16.446  0.00  0.00    +0.000 A 
ATOM     31  N   UNL     1       6.281   5.036  17.242  0.00  0.00    +0.000 N 
ATOM     32  C   UNL     1       6.105   5.606  18.550  0.00  0.00    +0.000 C 
ENDBRANCH  26  27
ENDBRANCH  25  26
ENDBRANCH  18  25
ENDBRANCH   1  22
TORSDOF 5
ENDMDL
MODEL 9
REMARK VINA RESULT:      -8.9      1.922      2.487
REMARK  Name = 
REMARK  8 active torsions:
REMARK  status: ('A' for Active; 'I' for Inactive)
REMARK    1  A    between atoms: C_1  and  C_2
REMARK    2  A    between atoms: C_2  and  C_3
REMARK    3  A    between atoms: C_2  and  C_10
REMARK    4  A    between atoms: C_3  and  C_4
REMARK    5  A    between atoms: N_8  and  C_9
REMARK    6  A    between atoms: C_14  and  N_15
REMARK    7  A    between atoms: C_16  and  C_18
REMARK    8  A    between atoms: C_29  and  C_30
REMARK                            x       y       z     vdW  Elec       q    Type
REMARK                         _______ _______ _______ _____ _____    ______ ____
ROOT
ATOM      1  N   UNL     1       1.754   6.422  20.758  0.00  0.00    +0.000 N 
ATOM      2  C   UNL     1       2.032   7.415  19.820  0.00  0.00    +0.000 C 
ATOM      3  O   UNL     1       2.715   7.287  18.809  0.00  0.00    +0.000 OA
ATOM      4  H   UNL     1       1.246   6.683  21.592  0.00  0.00    +0.000 HD
ENDROOT
BRANCH   2   5
ATOM      5  C   UNL     1       1.395   8.753  20.022  0.00  0.00    +0.000 A 
ATOM      6  C   UNL     1       1.172   9.588  18.932  0.00  0.00    +0.000 A 
ATOM      7  C   UNL     1       0.469  10.804  19.078  0.00  0.00    +0.000 A 
ATOM      8  C   UNL     1      -0.081  11.250  20.306  0.00  0.00    +0.000 A 
ATOM      9  C   UNL     1       0.134  10.365  21.385  0.00  0.00    +0.000 A 
ATOM     10  C   UNL     1       0.873   9.152  21.241  0.00  0.00    +0.000 A 
ATOM     11  C   UNL     1      -0.375  10.524  22.763  0.00  0.00    +0.000 C 
ATOM     12  O   UNL     1       0.113   9.864  23.680  0.00  0.00    +0.000 OA
ATOM     13  C   UNL     1      -1.541  11.428  23.088  0.00  0.00    +0.000 C 
ATOM     14  C   UNL     1      -2.237  12.674  22.582  0.00  0.00    +0.000 C 
ATOM     15  C   UNL     1      -1.983  13.043  21.142  0.00  0.00    +0.000 C 
ATOM     16  C   UNL     1      -0.655  12.690  20.413  0.00  0.00    +0.000 C 
ATOM     17  C   UNL     1      -0.877  13.335  19.013  0.00  0.00    +0.000 C 
ENDBRANCH   2   5
BRANCH   1  22
ATOM     18  C   UNL     1       3.247   3.271  19.396  0.00  0.00    +0.000 A 
ATOM     19  C   UNL     1       2.811   2.341  20.349  0.00  0.00    +0.000 A 
ATOM     20  C   UNL     1       1.987   2.735  21.400  0.00  0.00    +0.000 A 
ATOM     21  C   UNL     1       1.608   4.071  21.531  0.00  0.00    +0.000 A 
ATOM     22  C   UNL     1       2.038   5.034  20.619  0.00  0.00    +0.000 A 
ATOM     23  C   UNL     1       2.841   4.618  19.536  0.00  0.00    +0.000 A 
BRANCH  18  25
ATOM     24  C   UNL     1       3.929   1.332  17.877  0.00  0.00    +0.000 C 
ATOM     25  C   UNL     1       4.207   2.777  18.314  0.00  0.00    +0.000 C 
BRANCH  25  26
ATOM     26  C   UNL     1       4.200   3.762  17.124  0.00  0.00    +0.000 C 
BRANCH  26  27
ATOM     27  C   UNL     1       5.565   4.226  16.731  0.00  0.00    +0.000 A 
ATOM     28  N   UNL     1       6.554   4.535  17.546  0.00  0.00    +0.000 NA
ATOM     29  N   UNL     1       7.633   4.931  16.789  0.00  0.00    +0.000 NA
ATOM     30  C   UNL     1       7.283   4.846  15.526  0.00  0.00    +0.000 A 
ATOM     31  N   UNL     1       5.997   4.415  15.443  0.00  0.00    +0.000 N 
ATOM     32  C   UNL     1       5.262   4.189  14.229  0.00  0.00    +0.000 C 
ENDBRANCH  26  27
ENDBRANCH  25  26
ENDBRANCH  18  25
ENDBRANCH   1  22
TORSDOF 5
ENDMDL
