MODEL 1
REMARK VINA RESULT:      -8.9      0.000      0.000
REMARK  Name = 
REMARK  5 active torsions:
REMARK  status: ('A' for Active; 'I' for Inactive)
REMARK    1  A    between atoms: C_7  and  C_8
REMARK    2  A    between atoms: N_10  and  C_11
REMARK    3  A    between atoms: C_11  and  C_12
REMARK    4  A    between atoms: C_12  and  C_13
REMARK    5  A    between atoms: C_13  and  C_14
REMARK                            x       y       z     vdW  Elec       q    Type
REMARK                         _______ _______ _______ _____ _____    ______ ____
ROOT
ATOM      1  C   UNL     1       4.293   3.190  18.933  0.00  0.00    +0.000 C 
ATOM      2  O   UNL     1       4.750   2.609  19.918  0.00  0.00    +0.000 OA
ATOM      3  N   UNL     1       2.938   3.327  18.721  0.00  0.00    +0.000 N 
ATOM      4  H   UNL     1       2.570   3.825  17.918  0.00  0.00    +0.000 HD
ENDROOT
BRANCH   1  11
ATOM      5  O   UNL     1       8.187   5.762  12.785  0.00  0.00    +0.000 OA
ATOM      6  C   UNL     1       7.503   5.223  13.645  0.00  0.00    +0.000 C 
ATOM      7  C   UNL     1       6.482   4.124  13.348  0.00  0.00    +0.000 C 
ATOM      8  O   UNL     1       5.439   3.875  14.282  0.00  0.00    +0.000 OA
ATOM      9  C   UNL     1       5.783   4.117  15.585  0.00  0.00    +0.000 A 
ATOM     10  C   UNL     1       4.952   3.575  16.568  0.00  0.00    +0.000 A 
ATOM     11  C   UNL     1       5.221   3.791  17.929  0.00  0.00    +0.000 A 
ATOM     12  C   UNL     1       6.326   4.577  18.288  0.00  0.00    +0.000 A 
ATOM     13  C   UNL     1       7.142   5.147  17.298  0.00  0.00    +0.000 A 
ATOM     14  C   UNL     1       6.869   4.912  15.952  0.00  0.00    +0.000 A 
ATOM     15  N   UNL     1       7.671   5.503  14.976  0.00  0.00    +0.000 N 
ATOM     16  H   UNL     1       8.395   6.167  15.214  0.00  0.00    +0.000 HD
ENDBRANCH   1  11
BRANCH   3  17
ATOM     17  C   UNL     1       1.970   2.797  19.664  0.00  0.00    +0.000 C 
BRANCH  17  18
ATOM     18  C   UNL     1       1.247   3.903  20.432  0.00  0.00    +0.000 C 
BRANCH  18  19
ATOM     19  C   UNL     1       2.219   4.935  21.008  0.00  0.00    +0.000 C 
BRANCH  19  20
ATOM     20  C   UNL     1       2.068   6.264  20.347  0.00  0.00    +0.000 A 
ATOM     21  N   UNL     1       2.443   6.567  19.119  0.00  0.00    +0.000 NA
ATOM     22  C   UNL     1       2.087   7.879  18.941  0.00  0.00    +0.000 A 
ATOM     23  C   UNL     1       2.263   8.709  17.824  0.00  0.00    +0.000 A 
ATOM     24  C   UNL     1       1.811  10.032  17.893  0.00  0.00    +0.000 A 
ATOM     25  C   UNL     1       1.191  10.516  19.047  0.00  0.00    +0.000 A 
ATOM     26  C   UNL     1       1.004   9.702  20.173  0.00  0.00    +0.000 A 
ATOM     27  C   UNL     1       1.470   8.389  20.079  0.00  0.00    +0.000 A 
ATOM     28  N   UNL     1       1.470   7.337  20.958  0.00  0.00    +0.000 N 
ATOM     29  H   UNL     1       1.100   7.351  21.899  0.00  0.00    +0.000 HD
ENDBRANCH  19  20
ENDBRANCH  18  19
ENDBRANCH  17  18
ENDBRANCH   3  17
TORSDOF 5
ENDMDL
MODEL 2
REMARK VINA RESULT:      -8.5      3.230      6.625
REMARK  Name = 
REMARK  5 active torsions:
REMARK  status: ('A' for Active; 'I' for Inactive)
REMARK    1  A    between atoms: C_7  and  C_8
REMARK    2  A    between atoms: N_10  and  C_11
REMARK    3  A    between atoms: C_11  and  C_12
REMARK    4  A    between atoms: C_12  and  C_13
REMARK    5  A    between atoms: C_13  and  C_14
REMARK                            x       y       z     vdW  Elec       q    Type
REMARK                         _______ _______ _______ _____ _____    ______ ____
ROOT
ATOM      1  C   UNL     1       2.125   5.371  19.966  0.00  0.00    +0.000 C 
ATOM      2  O   UNL     1       2.478   5.185  21.132  0.00  0.00    +0.000 OA
ATOM      3  N   UNL     1       1.806   4.333  19.118  0.00  0.00    +0.000 N 
ATOM      4  H   UNL     1       1.495   4.496  18.167  0.00  0.00    +0.000 HD
ENDROOT
BRANCH   1  11
ATOM      5  O   UNL     1       1.141  12.898  18.566  0.00  0.00    +0.000 OA
ATOM      6  C   UNL     1       1.173  11.728  18.925  0.00  0.00    +0.000 C 
ATOM      7  C   UNL     1       0.500  11.216  20.199  0.00  0.00    +0.000 C 
ATOM      8  O   UNL     1       0.943   9.993  20.774  0.00  0.00    +0.000 OA
ATOM      9  C   UNL     1       1.408   9.081  19.866  0.00  0.00    +0.000 A 
ATOM     10  C   UNL     1       1.528   7.760  20.302  0.00  0.00    +0.000 A 
ATOM     11  C   UNL     1       2.015   6.764  19.439  0.00  0.00    +0.000 A 
ATOM     12  C   UNL     1       2.399   7.120  18.138  0.00  0.00    +0.000 A 
ATOM     13  C   UNL     1       2.307   8.454  17.711  0.00  0.00    +0.000 A 
ATOM     14  C   UNL     1       1.809   9.427  18.575  0.00  0.00    +0.000 A 
ATOM     15  N   UNL     1       1.745  10.755  18.150  0.00  0.00    +0.000 N 
ATOM     16  H   UNL     1       2.129  11.046  17.261  0.00  0.00    +0.000 HD
ENDBRANCH   1  11
BRANCH   3  17
ATOM     17  C   UNL     1       1.859   2.953  19.563  0.00  0.00    +0.000 C 
BRANCH  17  18
ATOM     18  C   UNL     1       3.233   2.325  19.335  0.00  0.00    +0.000 C 
BRANCH  18  19
ATOM     19  C   UNL     1       3.761   2.588  17.923  0.00  0.00    +0.000 C 
BRANCH  19  20
ATOM     20  C   UNL     1       4.714   3.735  17.897  0.00  0.00    +0.000 A 
ATOM     21  N   UNL     1       4.637   4.792  17.111  0.00  0.00    +0.000 NA
ATOM     22  C   UNL     1       5.704   5.581  17.453  0.00  0.00    +0.000 A 
ATOM     23  C   UNL     1       6.107   6.817  16.925  0.00  0.00    +0.000 A 
ATOM     24  C   UNL     1       7.252   7.428  17.447  0.00  0.00    +0.000 A 
ATOM     25  C   UNL     1       7.976   6.826  18.479  0.00  0.00    +0.000 A 
ATOM     26  C   UNL     1       7.589   5.593  19.021  0.00  0.00    +0.000 A 
ATOM     27  C   UNL     1       6.447   5.003  18.477  0.00  0.00    +0.000 A 
ATOM     28  N   UNL     1       5.792   3.827  18.741  0.00  0.00    +0.000 N 
ATOM     29  H   UNL     1       6.062   3.141  19.433  0.00  0.00    +0.000 HD
ENDBRANCH  19  20
ENDBRANCH  18  19
ENDBRANCH  17  18
ENDBRANCH   3  17
TORSDOF 5
ENDMDL
MODEL 3
REMARK VINA RESULT:      -8.2      3.030      8.099
REMARK  Name = 
REMARK  5 active torsions:
REMARK  status: ('A' for Active; 'I' for Inactive)
REMARK    1  A    between atoms: C_7  and  C_8
REMARK    2  A    between atoms: N_10  and  C_11
REMARK    3  A    between atoms: C_11  and  C_12
REMARK    4  A    between atoms: C_12  and  C_13
REMARK    5  A    between atoms: C_13  and  C_14
REMARK                            x       y       z     vdW  Elec       q    Type
REMARK                         _______ _______ _______ _____ _____    ______ ____
ROOT
ATOM      1  C   UNL     1       3.381   5.926  18.566  0.00  0.00    +0.000 C 
ATOM      2  O   UNL     1       3.087   5.204  17.612  0.00  0.00    +0.000 OA
ATOM      3  N   UNL     1       4.454   5.658  19.390  0.00  0.00    +0.000 N 
ATOM      4  H   UNL     1       4.702   6.269  20.159  0.00  0.00    +0.000 HD
ENDROOT
BRANCH   1  11
ATOM      5  O   UNL     1      -0.803  11.781  21.356  0.00  0.00    +0.000 OA
ATOM      6  C   UNL     1      -0.208  10.754  21.058  0.00  0.00    +0.000 C 
ATOM      7  C   UNL     1      -0.142   9.521  21.959  0.00  0.00    +0.000 C 
ATOM      8  O   UNL     1       0.902   8.576  21.767  0.00  0.00    +0.000 OA
ATOM      9  C   UNL     1       1.327   8.464  20.470  0.00  0.00    +0.000 A 
ATOM     10  C   UNL     1       2.083   7.334  20.149  0.00  0.00    +0.000 A 
ATOM     11  C   UNL     1       2.574   7.151  18.846  0.00  0.00    +0.000 A 
ATOM     12  C   UNL     1       2.312   8.130  17.876  0.00  0.00    +0.000 A 
ATOM     13  C   UNL     1       1.578   9.279  18.208  0.00  0.00    +0.000 A 
ATOM     14  C   UNL     1       1.086   9.439  19.502  0.00  0.00    +0.000 A 
ATOM     15  N   UNL     1       0.379  10.597  19.829  0.00  0.00    +0.000 N 
ATOM     16  H   UNL     1       0.286  11.363  19.177  0.00  0.00    +0.000 HD
ENDBRANCH   1  11
BRANCH   3  17
ATOM     17  C   UNL     1       5.305   4.504  19.167  0.00  0.00    +0.000 C 
BRANCH  17  18
ATOM     18  C   UNL     1       6.660   4.892  18.574  0.00  0.00    +0.000 C 
BRANCH  18  19
ATOM     19  C   UNL     1       6.537   6.014  17.541  0.00  0.00    +0.000 C 
BRANCH  19  20
ATOM     20  C   UNL     1       6.562   5.484  16.147  0.00  0.00    +0.000 A 
ATOM     21  N   UNL     1       7.501   5.709  15.247  0.00  0.00    +0.000 NA
ATOM     22  C   UNL     1       7.116   5.009  14.133  0.00  0.00    +0.000 A 
ATOM     23  C   UNL     1       7.741   4.907  12.882  0.00  0.00    +0.000 A 
ATOM     24  C   UNL     1       7.138   4.122  11.892  0.00  0.00    +0.000 A 
ATOM     25  C   UNL     1       5.942   3.448  12.146  0.00  0.00    +0.000 A 
ATOM     26  C   UNL     1       5.302   3.536  13.390  0.00  0.00    +0.000 A 
ATOM     27  C   UNL     1       5.923   4.330  14.357  0.00  0.00    +0.000 A 
ATOM     28  N   UNL     1       5.594   4.650  15.648  0.00  0.00    +0.000 N 
ATOM     29  H   UNL     1       4.773   4.332  16.147  0.00  0.00    +0.000 HD
ENDBRANCH  19  20
ENDBRANCH  18  19
ENDBRANCH  17  18
ENDBRANCH   3  17
TORSDOF 5
ENDMDL
MODEL 4
REMARK VINA RESULT:      -8.2      3.206      7.838
REMARK  Name = 
REMARK  5 active torsions:
REMARK  status: ('A' for Active; 'I' for Inactive)
REMARK    1  A    between atoms: C_7  and  C_8
REMARK    2  A    between atoms: N_10  and  C_11
REMARK    3  A    between atoms: C_11  and  C_12
REMARK    4  A    between atoms: C_12  and  C_13
REMARK    5  A    between atoms: C_13  and  C_14
REMARK                            x       y       z     vdW  Elec       q    Type
REMARK                         _______ _______ _______ _____ _____    ______ ____
ROOT
ATOM      1  C   UNL     1       2.773   7.119  17.927  0.00  0.00    +0.000 C 
ATOM      2  O   UNL     1       2.199   6.073  17.620  0.00  0.00    +0.000 OA
ATOM      3  N   UNL     1       4.078   7.377  17.564  0.00  0.00    +0.000 N 
ATOM      4  H   UNL     1       4.536   8.249  17.802  0.00  0.00    +0.000 HD
ENDROOT
BRANCH   1  11
ATOM      5  O   UNL     1      -0.711  11.708  23.063  0.00  0.00    +0.000 OA
ATOM      6  C   UNL     1      -0.192  10.842  22.370  0.00  0.00    +0.000 C 
ATOM      7  C   UNL     1       0.078   9.418  22.856  0.00  0.00    +0.000 C 
ATOM      8  O   UNL     1       1.057   8.631  22.190  0.00  0.00    +0.000 OA
ATOM      9  C   UNL     1       1.183   8.903  20.855  0.00  0.00    +0.000 A 
ATOM     10  C   UNL     1       1.854   7.956  20.078  0.00  0.00    +0.000 A 
ATOM     11  C   UNL     1       2.043   8.166  18.702  0.00  0.00    +0.000 A 
ATOM     12  C   UNL     1       1.567   9.351  18.123  0.00  0.00    +0.000 A 
ATOM     13  C   UNL     1       0.921  10.316  18.911  0.00  0.00    +0.000 A 
ATOM     14  C   UNL     1       0.729  10.087  20.271  0.00  0.00    +0.000 A 
ATOM     15  N   UNL     1       0.107  11.063  21.051  0.00  0.00    +0.000 N 
ATOM     16  H   UNL     1      -0.132  11.969  20.674  0.00  0.00    +0.000 HD
ENDBRANCH   1  11
BRANCH   3  17
ATOM     17  C   UNL     1       4.846   6.424  16.784  0.00  0.00    +0.000 C 
BRANCH  17  18
ATOM     18  C   UNL     1       6.197   6.108  17.426  0.00  0.00    +0.000 C 
BRANCH  18  19
ATOM     19  C   UNL     1       6.300   4.644  17.860  0.00  0.00    +0.000 C 
BRANCH  19  20
ATOM     20  C   UNL     1       5.067   4.191  18.567  0.00  0.00    +0.000 A 
ATOM     21  N   UNL     1       4.529   4.756  19.631  0.00  0.00    +0.000 NA
ATOM     22  C   UNL     1       3.408   4.018  19.911  0.00  0.00    +0.000 A 
ATOM     23  C   UNL     1       2.473   4.172  20.945  0.00  0.00    +0.000 A 
ATOM     24  C   UNL     1       1.403   3.273  21.020  0.00  0.00    +0.000 A 
ATOM     25  C   UNL     1       1.263   2.248  20.082  0.00  0.00    +0.000 A 
ATOM     26  C   UNL     1       2.187   2.079  19.041  0.00  0.00    +0.000 A 
ATOM     27  C   UNL     1       3.247   2.986  18.993  0.00  0.00    +0.000 A 
ATOM     28  N   UNL     1       4.318   3.121  18.147  0.00  0.00    +0.000 N 
ATOM     29  H   UNL     1       4.525   2.528  17.354  0.00  0.00    +0.000 HD
ENDBRANCH  19  20
ENDBRANCH  18  19
ENDBRANCH  17  18
ENDBRANCH   3  17
TORSDOF 5
ENDMDL
MODEL 5
REMARK VINA RESULT:      -8.2      3.017      6.459
REMARK  Name = 
REMARK  5 active torsions:
REMARK  status: ('A' for Active; 'I' for Inactive)
REMARK    1  A    between atoms: C_7  and  C_8
REMARK    2  A    between atoms: N_10  and  C_11
REMARK    3  A    between atoms: C_11  and  C_12
REMARK    4  A    between atoms: C_12  and  C_13
REMARK    5  A    between atoms: C_13  and  C_14
REMARK                            x       y       z     vdW  Elec       q    Type
REMARK                         _______ _______ _______ _____ _____    ______ ____
ROOT
ATOM      1  C   UNL     1       2.239   5.233  20.111  0.00  0.00    +0.000 C 
ATOM      2  O   UNL     1       3.351   4.886  20.511  0.00  0.00    +0.000 OA
ATOM      3  N   UNL     1       1.292   4.324  19.687  0.00  0.00    +0.000 N 
ATOM      4  H   UNL     1       0.371   4.616  19.380  0.00  0.00    +0.000 HD
ENDROOT
BRANCH   1  11
ATOM      5  O   UNL     1       0.830  12.685  18.679  0.00  0.00    +0.000 OA
ATOM      6  C   UNL     1       1.183  11.517  18.772  0.00  0.00    +0.000 C 
ATOM      7  C   UNL     1       2.137  10.840  17.787  0.00  0.00    +0.000 C 
ATOM      8  O   UNL     1       2.143   9.421  17.691  0.00  0.00    +0.000 OA
ATOM      9  C   UNL     1       1.843   8.778  18.861  0.00  0.00    +0.000 A 
ATOM     10  C   UNL     1       2.165   7.421  18.936  0.00  0.00    +0.000 A 
ATOM     11  C   UNL     1       1.875   6.681  20.094  0.00  0.00    +0.000 A 
ATOM     12  C   UNL     1       1.236   7.319  21.167  0.00  0.00    +0.000 A 
ATOM     13  C   UNL     1       0.885   8.675  21.078  0.00  0.00    +0.000 A 
ATOM     14  C   UNL     1       1.192   9.399  19.928  0.00  0.00    +0.000 A 
ATOM     15  N   UNL     1       0.817  10.740  19.839  0.00  0.00    +0.000 N 
ATOM     16  H   UNL     1       0.252  11.180  20.552  0.00  0.00    +0.000 HD
ENDBRANCH   1  11
BRANCH   3  17
ATOM     17  C   UNL     1       1.557   2.898  19.701  0.00  0.00    +0.000 C 
BRANCH  17  18
ATOM     18  C   UNL     1       1.822   2.345  18.301  0.00  0.00    +0.000 C 
BRANCH  18  19
ATOM     19  C   UNL     1       3.290   1.967  18.099  0.00  0.00    +0.000 C 
BRANCH  19  20
ATOM     20  C   UNL     1       4.148   3.172  17.909  0.00  0.00    +0.000 A 
ATOM     21  N   UNL     1       3.874   4.207  17.138  0.00  0.00    +0.000 NA
ATOM     22  C   UNL     1       4.928   5.070  17.295  0.00  0.00    +0.000 A 
ATOM     23  C   UNL     1       5.156   6.319  16.698  0.00  0.00    +0.000 A 
ATOM     24  C   UNL     1       6.327   7.013  17.023  0.00  0.00    +0.000 A 
ATOM     25  C   UNL     1       7.247   6.479  17.928  0.00  0.00    +0.000 A 
ATOM     26  C   UNL     1       7.036   5.234  18.536  0.00  0.00    +0.000 A 
ATOM     27  C   UNL     1       5.863   4.560  18.190  0.00  0.00    +0.000 A 
ATOM     28  N   UNL     1       5.340   3.350  18.566  0.00  0.00    +0.000 N 
ATOM     29  H   UNL     1       5.763   2.696  19.212  0.00  0.00    +0.000 HD
ENDBRANCH  19  20
ENDBRANCH  18  19
ENDBRANCH  17  18
ENDBRANCH   3  17
TORSDOF 5
ENDMDL
MODEL 6
REMARK VINA RESULT:      -8.2      3.270      7.876
REMARK  Name = 
REMARK  5 active torsions:
REMARK  status: ('A' for Active; 'I' for Inactive)
REMARK    1  A    between atoms: C_7  and  C_8
REMARK    2  A    between atoms: N_10  and  C_11
REMARK    3  A    between atoms: C_11  and  C_12
REMARK    4  A    between atoms: C_12  and  C_13
REMARK    5  A    between atoms: C_13  and  C_14
REMARK                            x       y       z     vdW  Elec       q    Type
REMARK                         _______ _______ _______ _____ _____    ______ ____
ROOT
ATOM      1  C   UNL     1       2.682   7.234  18.032  0.00  0.00    +0.000 C 
ATOM      2  O   UNL     1       2.166   6.144  17.782  0.00  0.00    +0.000 OA
ATOM      3  N   UNL     1       3.953   7.562  17.610  0.00  0.00    +0.000 N 
ATOM      4  H   UNL     1       4.363   8.469  17.801  0.00  0.00    +0.000 HD
ENDROOT
BRANCH   1  11
ATOM      5  O   UNL     1      -0.952  11.736  23.142  0.00  0.00    +0.000 OA
ATOM      6  C   UNL     1      -0.403  10.885  22.455  0.00  0.00    +0.000 C 
ATOM      7  C   UNL     1      -0.072   9.478  22.955  0.00  0.00    +0.000 C 
ATOM      8  O   UNL     1       0.935   8.724  22.291  0.00  0.00    +0.000 OA
ATOM      9  C   UNL     1       1.040   8.986  20.952  0.00  0.00    +0.000 A 
ATOM     10  C   UNL     1       1.744   8.058  20.180  0.00  0.00    +0.000 A 
ATOM     11  C   UNL     1       1.915   8.259  18.801  0.00  0.00    +0.000 A 
ATOM     12  C   UNL     1       1.388   9.418  18.212  0.00  0.00    +0.000 A 
ATOM     13  C   UNL     1       0.708  10.364  18.994  0.00  0.00    +0.000 A 
ATOM     14  C   UNL     1       0.534  10.143  20.358  0.00  0.00    +0.000 A 
ATOM     15  N   UNL     1      -0.121  11.102  21.132  0.00  0.00    +0.000 N 
ATOM     16  H   UNL     1      -0.400  11.993  20.746  0.00  0.00    +0.000 HD
ENDBRANCH   1  11
BRANCH   3  17
ATOM     17  C   UNL     1       4.752   6.633  16.833  0.00  0.00    +0.000 C 
BRANCH  17  18
ATOM     18  C   UNL     1       6.026   6.213  17.565  0.00  0.00    +0.000 C 
BRANCH  18  19
ATOM     19  C   UNL     1       6.097   4.699  17.777  0.00  0.00    +0.000 C 
BRANCH  19  20
ATOM     20  C   UNL     1       4.850   4.173  18.405  0.00  0.00    +0.000 A 
ATOM     21  N   UNL     1       4.071   3.228  17.913  0.00  0.00    +0.000 NA
ATOM     22  C   UNL     1       3.070   3.062  18.834  0.00  0.00    +0.000 A 
ATOM     23  C   UNL     1       1.967   2.196  18.808  0.00  0.00    +0.000 A 
ATOM     24  C   UNL     1       1.070   2.219  19.882  0.00  0.00    +0.000 A 
ATOM     25  C   UNL     1       1.271   3.082  20.962  0.00  0.00    +0.000 A 
ATOM     26  C   UNL     1       2.367   3.954  21.007  0.00  0.00    +0.000 A 
ATOM     27  C   UNL     1       3.243   3.914  19.920  0.00  0.00    +0.000 A 
ATOM     28  N   UNL     1       4.386   4.609  19.620  0.00  0.00    +0.000 N 
ATOM     29  H   UNL     1       4.811   5.326  20.193  0.00  0.00    +0.000 HD
ENDBRANCH  19  20
ENDBRANCH  18  19
ENDBRANCH  17  18
ENDBRANCH   3  17
TORSDOF 5
ENDMDL
MODEL 7
REMARK VINA RESULT:      -8.2      3.137      6.571
REMARK  Name = 
REMARK  5 active torsions:
REMARK  status: ('A' for Active; 'I' for Inactive)
REMARK    1  A    between atoms: C_7  and  C_8
REMARK    2  A    between atoms: N_10  and  C_11
REMARK    3  A    between atoms: C_11  and  C_12
REMARK    4  A    between atoms: C_12  and  C_13
REMARK    5  A    between atoms: C_13  and  C_14
REMARK                            x       y       z     vdW  Elec       q    Type
REMARK                         _______ _______ _______ _____ _____    ______ ____
ROOT
ATOM      1  C   UNL     1       2.019   5.399  19.975  0.00  0.00    +0.000 C 
ATOM      2  O   UNL     1       2.611   5.181  21.033  0.00  0.00    +0.000 OA
ATOM      3  N   UNL     1       1.376   4.402  19.272  0.00  0.00    +0.000 N 
ATOM      4  H   UNL     1       0.873   4.593  18.413  0.00  0.00    +0.000 HD
ENDROOT
BRANCH   1  11
ATOM      5  O   UNL     1       1.307  12.930  18.443  0.00  0.00    +0.000 OA
ATOM      6  C   UNL     1       1.292  11.766  18.818  0.00  0.00    +0.000 C 
ATOM      7  C   UNL     1       0.565  11.292  20.078  0.00  0.00    +0.000 C 
ATOM      8  O   UNL     1       0.953  10.065  20.683  0.00  0.00    +0.000 OA
ATOM      9  C   UNL     1       1.418   9.126  19.802  0.00  0.00    +0.000 A 
ATOM     10  C   UNL     1       1.484   7.808  20.259  0.00  0.00    +0.000 A 
ATOM     11  C   UNL     1       1.967   6.786  19.425  0.00  0.00    +0.000 A 
ATOM     12  C   UNL     1       2.402   7.112  18.132  0.00  0.00    +0.000 A 
ATOM     13  C   UNL     1       2.363   8.441  17.685  0.00  0.00    +0.000 A 
ATOM     14  C   UNL     1       1.869   9.441  18.519  0.00  0.00    +0.000 A 
ATOM     15  N   UNL     1       1.858  10.764  18.074  0.00  0.00    +0.000 N 
ATOM     16  H   UNL     1       2.277  11.030  17.194  0.00  0.00    +0.000 HD
ENDBRANCH   1  11
BRANCH   3  17
ATOM     17  C   UNL     1       1.355   3.033  19.754  0.00  0.00    +0.000 C 
BRANCH  17  18
ATOM     18  C   UNL     1       2.056   2.072  18.795  0.00  0.00    +0.000 C 
BRANCH  18  19
ATOM     19  C   UNL     1       3.535   1.887  19.143  0.00  0.00    +0.000 C 
BRANCH  19  20
ATOM     20  C   UNL     1       4.353   3.058  18.713  0.00  0.00    +0.000 A 
ATOM     21  N   UNL     1       5.327   3.620  19.402  0.00  0.00    +0.000 NA
ATOM     22  C   UNL     1       5.798   4.635  18.609  0.00  0.00    +0.000 A 
ATOM     23  C   UNL     1       6.823   5.560  18.857  0.00  0.00    +0.000 A 
ATOM     24  C   UNL     1       7.114   6.516  17.877  0.00  0.00    +0.000 A 
ATOM     25  C   UNL     1       6.406   6.546  16.674  0.00  0.00    +0.000 A 
ATOM     26  C   UNL     1       5.380   5.629  16.407  0.00  0.00    +0.000 A 
ATOM     27  C   UNL     1       5.106   4.690  17.403  0.00  0.00    +0.000 A 
ATOM     28  N   UNL     1       4.192   3.673  17.497  0.00  0.00    +0.000 N 
ATOM     29  H   UNL     1       3.510   3.422  16.793  0.00  0.00    +0.000 HD
ENDBRANCH  19  20
ENDBRANCH  18  19
ENDBRANCH  17  18
ENDBRANCH   3  17
TORSDOF 5
ENDMDL
MODEL 8
REMARK VINA RESULT:      -8.1      3.167      4.494
REMARK  Name = 
REMARK  5 active torsions:
REMARK  status: ('A' for Active; 'I' for Inactive)
REMARK    1  A    between atoms: C_7  and  C_8
REMARK    2  A    between atoms: N_10  and  C_11
REMARK    3  A    between atoms: C_11  and  C_12
REMARK    4  A    between atoms: C_12  and  C_13
REMARK    5  A    between atoms: C_13  and  C_14
REMARK                            x       y       z     vdW  Elec       q    Type
REMARK                         _______ _______ _______ _____ _____    ______ ____
ROOT
ATOM      1  C   UNL     1       2.060   6.166  20.254  0.00  0.00    +0.000 C 
ATOM      2  O   UNL     1       1.247   5.391  20.760  0.00  0.00    +0.000 OA
ATOM      3  N   UNL     1       1.992   7.530  20.440  0.00  0.00    +0.000 N 
ATOM      4  H   UNL     1       2.678   8.160  20.038  0.00  0.00    +0.000 HD
ENDROOT
BRANCH   1  11
ATOM      5  O   UNL     1       7.583   4.516  15.120  0.00  0.00    +0.000 OA
ATOM      6  C   UNL     1       6.624   4.869  15.794  0.00  0.00    +0.000 C 
ATOM      7  C   UNL     1       5.571   5.866  15.310  0.00  0.00    +0.000 C 
ATOM      8  O   UNL     1       4.775   6.554  16.267  0.00  0.00    +0.000 OA
ATOM      9  C   UNL     1       4.527   5.839  17.408  0.00  0.00    +0.000 A 
ATOM     10  C   UNL     1       3.487   6.293  18.224  0.00  0.00    +0.000 A 
ATOM     11  C   UNL     1       3.178   5.629  19.422  0.00  0.00    +0.000 A 
ATOM     12  C   UNL     1       3.942   4.515  19.799  0.00  0.00    +0.000 A 
ATOM     13  C   UNL     1       5.006   4.079  18.994  0.00  0.00    +0.000 A 
ATOM     14  C   UNL     1       5.291   4.740  17.802  0.00  0.00    +0.000 A 
ATOM     15  N   UNL     1       6.366   4.314  17.020  0.00  0.00    +0.000 N 
ATOM     16  H   UNL     1       6.998   3.592  17.337  0.00  0.00    +0.000 HD
ENDBRANCH   1  11
BRANCH   3  17
ATOM     17  C   UNL     1       0.954   8.129  21.258  0.00  0.00    +0.000 C 
BRANCH  17  18
ATOM     18  C   UNL     1       0.764   9.615  20.956  0.00  0.00    +0.000 C 
BRANCH  18  19
ATOM     19  C   UNL     1       0.963   9.931  19.471  0.00  0.00    +0.000 C 
BRANCH  19  20
ATOM     20  C   UNL     1      -0.330  10.250  18.798  0.00  0.00    +0.000 A 
ATOM     21  N   UNL     1      -1.341  10.909  19.331  0.00  0.00    +0.000 NA
ATOM     22  C   UNL     1      -2.291  10.981  18.345  0.00  0.00    +0.000 A 
ATOM     23  C   UNL     1      -3.567  11.562  18.375  0.00  0.00    +0.000 A 
ATOM     24  C   UNL     1      -4.361  11.498  17.225  0.00  0.00    +0.000 A 
ATOM     25  C   UNL     1      -3.891  10.874  16.066  0.00  0.00    +0.000 A 
ATOM     26  C   UNL     1      -2.619  10.289  16.016  0.00  0.00    +0.000 A 
ATOM     27  C   UNL     1      -1.850  10.363  17.180  0.00  0.00    +0.000 A 
ATOM     28  N   UNL     1      -0.597   9.907  17.497  0.00  0.00    +0.000 N 
ATOM     29  H   UNL     1       0.023   9.398  16.880  0.00  0.00    +0.000 HD
ENDBRANCH  19  20
ENDBRANCH  18  19
ENDBRANCH  17  18
ENDBRANCH   3  17
TORSDOF 5
ENDMDL
MODEL 9
REMARK VINA RESULT:      -8.0      3.145      8.209
REMARK  Name = 
REMARK  5 active torsions:
REMARK  status: ('A' for Active; 'I' for Inactive)
REMARK    1  A    between atoms: C_7  and  C_8
REMARK    2  A    between atoms: N_10  and  C_11
REMARK    3  A    between atoms: C_11  and  C_12
REMARK    4  A    between atoms: C_12  and  C_13
REMARK    5  A    between atoms: C_13  and  C_14
REMARK                            x       y       z     vdW  Elec       q    Type
REMARK                         _______ _______ _______ _____ _____    ______ ____
ROOT
ATOM      1  C   UNL     1       3.008   6.055  18.669  0.00  0.00    +0.000 C 
ATOM      2  O   UNL     1       2.533   5.244  17.873  0.00  0.00    +0.000 OA
ATOM      3  N   UNL     1       4.176   5.812  19.360  0.00  0.00    +0.000 N 
ATOM      4  H   UNL     1       4.572   6.494  19.997  0.00  0.00    +0.000 HD
ENDROOT
BRANCH   1  11
ATOM      5  O   UNL     1      -0.635  12.378  21.183  0.00  0.00    +0.000 OA
ATOM      6  C   UNL     1      -0.139  11.289  20.928  0.00  0.00    +0.000 C 
ATOM      7  C   UNL     1      -0.226  10.080  21.861  0.00  0.00    +0.000 C 
ATOM      8  O   UNL     1       0.721   9.029  21.725  0.00  0.00    +0.000 OA
ATOM      9  C   UNL     1       1.170   8.839  20.445  0.00  0.00    +0.000 A 
ATOM     10  C   UNL     1       1.816   7.630  20.175  0.00  0.00    +0.000 A 
ATOM     11  C   UNL     1       2.323   7.363  18.893  0.00  0.00    +0.000 A 
ATOM     12  C   UNL     1       2.190   8.336  17.892  0.00  0.00    +0.000 A 
ATOM     13  C   UNL     1       1.568   9.562  18.173  0.00  0.00    +0.000 A 
ATOM     14  C   UNL     1       1.058   9.807  19.446  0.00  0.00    +0.000 A 
ATOM     15  N   UNL     1       0.464  11.039  19.723  0.00  0.00    +0.000 N 
ATOM     16  H   UNL     1       0.468  11.792  19.050  0.00  0.00    +0.000 HD
ENDBRANCH   1  11
BRANCH   3  17
ATOM     17  C   UNL     1       4.918   4.579  19.175  0.00  0.00    +0.000 C 
BRANCH  17  18
ATOM     18  C   UNL     1       6.313   4.824  18.599  0.00  0.00    +0.000 C 
BRANCH  18  19
ATOM     19  C   UNL     1       6.313   5.930  17.541  0.00  0.00    +0.000 C 
BRANCH  19  20
ATOM     20  C   UNL     1       6.375   5.370  16.160  0.00  0.00    +0.000 A 
ATOM     21  N   UNL     1       5.488   4.564  15.608  0.00  0.00    +0.000 NA
ATOM     22  C   UNL     1       5.945   4.334  14.336  0.00  0.00    +0.000 A 
ATOM     23  C   UNL     1       5.395   3.539  13.320  0.00  0.00    +0.000 A 
ATOM     24  C   UNL     1       6.064   3.460  12.093  0.00  0.00    +0.000 A 
ATOM     25  C   UNL     1       7.251   4.165  11.880  0.00  0.00    +0.000 A 
ATOM     26  C   UNL     1       7.816   4.966  12.882  0.00  0.00    +0.000 A 
ATOM     27  C   UNL     1       7.131   5.021  14.098  0.00  0.00    +0.000 A 
ATOM     28  N   UNL     1       7.381   5.674  15.277  0.00  0.00    +0.000 N 
ATOM     29  H   UNL     1       8.174   6.271  15.468  0.00  0.00    +0.000 HD
ENDBRANCH  19  20
ENDBRANCH  18  19
ENDBRANCH  17  18
ENDBRANCH   3  17
TORSDOF 5
ENDMDL
