MODEL 1
REMARK VINA RESULT:      -8.8      0.000      0.000
REMARK  Name = 
REMARK  3 active torsions:
REMARK  status: ('A' for Active; 'I' for Inactive)
REMARK    1  A    between atoms: C_2  and  C_13
REMARK    2  A    between atoms: C_18  and  S_19
REMARK    3  A    between atoms: S_19  and  N_22
REMARK                            x       y       z     vdW  Elec       q    Type
REMARK                         _______ _______ _______ _____ _____    ______ ____
ROOT
ATOM      1  C   UNL     1       7.984   8.031  18.223  0.00  0.00    +0.000 A 
ATOM      2  C   UNL     1       8.517   7.114  19.140  0.00  0.00    +0.000 A 
ATOM      3  C   UNL     1       8.149   5.775  19.073  0.00  0.00    +0.000 A 
ATOM      4  C   UNL     1       7.247   5.347  18.101  0.00  0.00    +0.000 A 
ATOM      5  F   UNL     1       6.953   4.040  18.098  0.00  0.00    +0.000 F 
ATOM      6  C   UNL     1       6.672   6.263  17.219  0.00  0.00    +0.000 A 
ATOM      7  C   UNL     1       7.063   7.607  17.265  0.00  0.00    +0.000 A 
ENDROOT
BRANCH   1   9
ATOM      8  O   UNL     1       8.088  10.220  17.417  0.00  0.00    +0.000 OA
ATOM      9  C   UNL     1       8.472   9.436  18.276  0.00  0.00    +0.000 C 
ATOM     10  N   UNL     1       9.316   9.736  19.332  0.00  0.00    +0.000 N 
ATOM     11  C   UNL     1       9.869  10.990  19.400  0.00  0.00    +0.000 A 
ATOM     12  N   UNL     1      11.151  11.266  19.400  0.00  0.00    +0.000 NA
ATOM     13  C   UNL     1      11.220  12.641  19.470  0.00  0.00    +0.000 A 
ATOM     14  C   UNL     1      12.332  13.495  19.401  0.00  0.00    +0.000 A 
ATOM     15  C   UNL     1      12.139  14.872  19.584  0.00  0.00    +0.000 A 
ATOM     16  C   UNL     1      10.865  15.389  19.833  0.00  0.00    +0.000 A 
ATOM     17  C   UNL     1       9.738  14.558  19.868  0.00  0.00    +0.000 A 
ATOM     18  C   UNL     1       9.958  13.193  19.661  0.00  0.00    +0.000 A 
ATOM     19  N   UNL     1       9.110  12.117  19.568  0.00  0.00    +0.000 N 
ATOM     20  H   UNL     1       9.844   9.010  19.790  0.00  0.00    +0.000 HD
ATOM     21  H   UNL     1       8.103  12.139  19.636  0.00  0.00    +0.000 HD
ENDBRANCH   1   9
BRANCH   6  22
ATOM     22  S   UNL     1       5.579   5.777  15.908  0.00  0.00    +0.000 S 
ATOM     23  O   UNL     1       5.233   7.015  15.210  0.00  0.00    +0.000 OA
ATOM     24  O   UNL     1       6.191   4.691  15.212  0.00  0.00    +0.000 OA
BRANCH  22  25
ATOM     25  N   UNL     1       4.141   5.210  16.648  0.00  0.00    +0.000 NA
ATOM     26  C   UNL     1       4.036   3.734  16.765  0.00  0.00    +0.000 C 
ATOM     27  C   UNL     1       2.687   3.280  17.304  0.00  0.00    +0.000 C 
ATOM     28  C   UNL     1       2.288   4.043  18.555  0.00  0.00    +0.000 C 
ATOM     29  C   UNL     1       2.247   5.533  18.261  0.00  0.00    +0.000 C 
ATOM     30  C   UNL     1       3.579   6.050  17.736  0.00  0.00    +0.000 C 
ENDBRANCH  22  25
ENDBRANCH   6  22
TORSDOF 3
ENDMDL
MODEL 2
REMARK VINA RESULT:      -8.4      5.982      7.580
REMARK  Name = 
REMARK  3 active torsions:
REMARK  status: ('A' for Active; 'I' for Inactive)
REMARK    1  A    between atoms: C_2  and  C_13
REMARK    2  A    between atoms: C_18  and  S_19
REMARK    3  A    between atoms: S_19  and  N_22
REMARK                            x       y       z     vdW  Elec       q    Type
REMARK                         _______ _______ _______ _____ _____    ______ ____
ROOT
ATOM      1  C   UNL     1       3.119   6.311  17.979  0.00  0.00    +0.000 A 
ATOM      2  C   UNL     1       2.486   5.065  18.083  0.00  0.00    +0.000 A 
ATOM      3  C   UNL     1       3.131   3.919  17.630  0.00  0.00    +0.000 A 
ATOM      4  C   UNL     1       4.403   4.012  17.067  0.00  0.00    +0.000 A 
ATOM      5  F   UNL     1       4.959   2.862  16.665  0.00  0.00    +0.000 F 
ATOM      6  C   UNL     1       5.017   5.255  16.912  0.00  0.00    +0.000 A 
ATOM      7  C   UNL     1       4.382   6.406  17.393  0.00  0.00    +0.000 A 
ENDROOT
BRANCH   1   9
ATOM      8  O   UNL     1       2.394   7.616  19.774  0.00  0.00    +0.000 OA
ATOM      9  C   UNL     1       2.429   7.496  18.555  0.00  0.00    +0.000 C 
ATOM     10  N   UNL     1       1.899   8.384  17.635  0.00  0.00    +0.000 N 
ATOM     11  C   UNL     1       1.178   9.459  18.094  0.00  0.00    +0.000 A 
ATOM     12  N   UNL     1      -0.073   9.724  17.805  0.00  0.00    +0.000 NA
ATOM     13  C   UNL     1      -0.360  10.882  18.497  0.00  0.00    +0.000 A 
ATOM     14  C   UNL     1      -1.576  11.571  18.642  0.00  0.00    +0.000 A 
ATOM     15  C   UNL     1      -1.583  12.787  19.340  0.00  0.00    +0.000 A 
ATOM     16  C   UNL     1      -0.406  13.310  19.881  0.00  0.00    +0.000 A 
ATOM     17  C   UNL     1       0.809  12.620  19.779  0.00  0.00    +0.000 A 
ATOM     18  C   UNL     1       0.783  11.400  19.096  0.00  0.00    +0.000 A 
ATOM     19  N   UNL     1       1.741  10.445  18.858  0.00  0.00    +0.000 N 
ATOM     20  H   UNL     1       1.669   8.082  16.702  0.00  0.00    +0.000 HD
ATOM     21  H   UNL     1       2.701  10.469  19.167  0.00  0.00    +0.000 HD
ENDBRANCH   1   9
BRANCH   6  22
ATOM     22  S   UNL     1       6.665   5.439  16.277  0.00  0.00    +0.000 S 
ATOM     23  O   UNL     1       6.969   6.865  16.390  0.00  0.00    +0.000 OA
ATOM     24  O   UNL     1       7.488   4.462  16.916  0.00  0.00    +0.000 OA
BRANCH  22  25
ATOM     25  N   UNL     1       6.592   5.081  14.603  0.00  0.00    +0.000 NA
ATOM     26  C   UNL     1       7.788   5.489  13.822  0.00  0.00    +0.000 C 
ATOM     27  C   UNL     1       7.616   5.273  12.325  0.00  0.00    +0.000 C 
ATOM     28  C   UNL     1       7.098   3.881  12.007  0.00  0.00    +0.000 C 
ATOM     29  C   UNL     1       5.774   3.648  12.714  0.00  0.00    +0.000 C 
ATOM     30  C   UNL     1       5.888   3.831  14.221  0.00  0.00    +0.000 C 
ENDBRANCH  22  25
ENDBRANCH   6  22
TORSDOF 3
ENDMDL
MODEL 3
REMARK VINA RESULT:      -8.3      5.991      7.502
REMARK  Name = 
REMARK  3 active torsions:
REMARK  status: ('A' for Active; 'I' for Inactive)
REMARK    1  A    between atoms: C_2  and  C_13
REMARK    2  A    between atoms: C_18  and  S_19
REMARK    3  A    between atoms: S_19  and  N_22
REMARK                            x       y       z     vdW  Elec       q    Type
REMARK                         _______ _______ _______ _____ _____    ______ ____
ROOT
ATOM      1  C   UNL     1       3.176   6.869  17.819  0.00  0.00    +0.000 A 
ATOM      2  C   UNL     1       2.538   5.700  18.254  0.00  0.00    +0.000 A 
ATOM      3  C   UNL     1       3.177   4.472  18.123  0.00  0.00    +0.000 A 
ATOM      4  C   UNL     1       4.448   4.404  17.554  0.00  0.00    +0.000 A 
ATOM      5  F   UNL     1       4.998   3.185  17.475  0.00  0.00    +0.000 F 
ATOM      6  C   UNL     1       5.067   5.557  17.071  0.00  0.00    +0.000 A 
ATOM      7  C   UNL     1       4.438   6.798  17.227  0.00  0.00    +0.000 A 
ENDROOT
BRANCH   1   9
ATOM      8  O   UNL     1       2.727   9.100  17.297  0.00  0.00    +0.000 OA
ATOM      9  C   UNL     1       2.493   8.169  18.057  0.00  0.00    +0.000 C 
ATOM     10  N   UNL     1       1.618   8.196  19.130  0.00  0.00    +0.000 N 
ATOM     11  C   UNL     1       1.013   9.383  19.460  0.00  0.00    +0.000 A 
ATOM     12  N   UNL     1       1.113  10.003  20.611  0.00  0.00    +0.000 NA
ATOM     13  C   UNL     1       0.351  11.143  20.469  0.00  0.00    +0.000 A 
ATOM     14  C   UNL     1       0.175  12.228  21.344  0.00  0.00    +0.000 A 
ATOM     15  C   UNL     1      -0.731  13.238  20.993  0.00  0.00    +0.000 A 
ATOM     16  C   UNL     1      -1.450  13.171  19.796  0.00  0.00    +0.000 A 
ATOM     17  C   UNL     1      -1.260  12.117  18.893  0.00  0.00    +0.000 A 
ATOM     18  C   UNL     1      -0.335  11.135  19.260  0.00  0.00    +0.000 A 
ATOM     19  N   UNL     1       0.143  10.019  18.617  0.00  0.00    +0.000 N 
ATOM     20  H   UNL     1       1.715   7.541  19.889  0.00  0.00    +0.000 HD
ATOM     21  H   UNL     1      -0.116   9.702  17.695  0.00  0.00    +0.000 HD
ENDBRANCH   1   9
BRANCH   6  22
ATOM     22  S   UNL     1       6.714   5.556  16.408  0.00  0.00    +0.000 S 
ATOM     23  O   UNL     1       7.156   6.949  16.462  0.00  0.00    +0.000 OA
ATOM     24  O   UNL     1       7.449   4.527  17.072  0.00  0.00    +0.000 OA
BRANCH  22  25
ATOM     25  N   UNL     1       6.578   5.146  14.749  0.00  0.00    +0.000 NA
ATOM     26  C   UNL     1       7.808   5.364  13.947  0.00  0.00    +0.000 C 
ATOM     27  C   UNL     1       7.595   5.114  12.461  0.00  0.00    +0.000 C 
ATOM     28  C   UNL     1       6.898   3.790  12.201  0.00  0.00    +0.000 C 
ATOM     29  C   UNL     1       5.562   3.758  12.924  0.00  0.00    +0.000 C 
ATOM     30  C   UNL     1       5.715   3.984  14.421  0.00  0.00    +0.000 C 
ENDBRANCH  22  25
ENDBRANCH   6  22
TORSDOF 3
ENDMDL
MODEL 4
REMARK VINA RESULT:      -8.3      7.826     10.712
REMARK  Name = 
REMARK  3 active torsions:
REMARK  status: ('A' for Active; 'I' for Inactive)
REMARK    1  A    between atoms: C_2  and  C_13
REMARK    2  A    between atoms: C_18  and  S_19
REMARK    3  A    between atoms: S_19  and  N_22
REMARK                            x       y       z     vdW  Elec       q    Type
REMARK                         _______ _______ _______ _____ _____    ______ ____
ROOT
ATOM      1  C   UNL     1       0.613   9.118  21.084  0.00  0.00    +0.000 A 
ATOM      2  C   UNL     1       0.448   9.064  22.475  0.00  0.00    +0.000 A 
ATOM      3  C   UNL     1      -0.266  10.063  23.128  0.00  0.00    +0.000 A 
ATOM      4  C   UNL     1      -0.811  11.120  22.399  0.00  0.00    +0.000 A 
ATOM      5  F   UNL     1      -1.493  12.034  23.101  0.00  0.00    +0.000 F 
ATOM      6  C   UNL     1      -0.606  11.208  21.022  0.00  0.00    +0.000 A 
ATOM      7  C   UNL     1       0.088  10.188  20.359  0.00  0.00    +0.000 A 
ENDROOT
BRANCH   1   9
ATOM      8  O   UNL     1       1.847   8.183  19.337  0.00  0.00    +0.000 OA
ATOM      9  C   UNL     1       1.308   7.984  20.419  0.00  0.00    +0.000 C 
ATOM     10  N   UNL     1       1.299   6.787  21.114  0.00  0.00    +0.000 N 
ATOM     11  C   UNL     1       1.851   5.676  20.525  0.00  0.00    +0.000 A 
ATOM     12  N   UNL     1       1.225   4.555  20.261  0.00  0.00    +0.000 NA
ATOM     13  C   UNL     1       2.174   3.749  19.668  0.00  0.00    +0.000 A 
ATOM     14  C   UNL     1       2.043   2.476  19.088  0.00  0.00    +0.000 A 
ATOM     15  C   UNL     1       3.195   1.826  18.621  0.00  0.00    +0.000 A 
ATOM     16  C   UNL     1       4.451   2.428  18.729  0.00  0.00    +0.000 A 
ATOM     17  C   UNL     1       4.596   3.713  19.270  0.00  0.00    +0.000 A 
ATOM     18  C   UNL     1       3.429   4.345  19.708  0.00  0.00    +0.000 A 
ATOM     19  N   UNL     1       3.184   5.595  20.221  0.00  0.00    +0.000 N 
ATOM     20  H   UNL     1       0.588   6.596  21.801  0.00  0.00    +0.000 HD
ATOM     21  H   UNL     1       3.864   6.324  20.376  0.00  0.00    +0.000 HD
ENDBRANCH   1   9
BRANCH   6  22
ATOM     22  S   UNL     1      -1.336  12.480  20.022  0.00  0.00    +0.000 S 
ATOM     23  O   UNL     1      -2.207  13.233  20.924  0.00  0.00    +0.000 OA
ATOM     24  O   UNL     1      -0.283  13.130  19.309  0.00  0.00    +0.000 OA
BRANCH  22  25
ATOM     25  N   UNL     1      -2.357  11.695  18.892  0.00  0.00    +0.000 NA
ATOM     26  C   UNL     1      -3.807  11.964  19.064  0.00  0.00    +0.000 C 
ATOM     27  C   UNL     1      -4.676  11.140  18.125  0.00  0.00    +0.000 C 
ATOM     28  C   UNL     1      -4.187  11.212  16.689  0.00  0.00    +0.000 C 
ATOM     29  C   UNL     1      -2.747  10.733  16.609  0.00  0.00    +0.000 C 
ATOM     30  C   UNL     1      -1.825  11.536  17.515  0.00  0.00    +0.000 C 
ENDBRANCH  22  25
ENDBRANCH   6  22
TORSDOF 3
ENDMDL
MODEL 5
REMARK VINA RESULT:      -8.3      3.654      9.617
REMARK  Name = 
REMARK  3 active torsions:
REMARK  status: ('A' for Active; 'I' for Inactive)
REMARK    1  A    between atoms: C_2  and  C_13
REMARK    2  A    between atoms: C_18  and  S_19
REMARK    3  A    between atoms: S_19  and  N_22
REMARK                            x       y       z     vdW  Elec       q    Type
REMARK                         _______ _______ _______ _____ _____    ______ ____
ROOT
ATOM      1  C   UNL     1       9.057  10.414  18.838  0.00  0.00    +0.000 A 
ATOM      2  C   UNL     1       9.180  10.335  20.232  0.00  0.00    +0.000 A 
ATOM      3  C   UNL     1       9.857  11.332  20.925  0.00  0.00    +0.000 A 
ATOM      4  C   UNL     1      10.418  12.405  20.233  0.00  0.00    +0.000 A 
ATOM      5  F   UNL     1      11.043  13.328  20.976  0.00  0.00    +0.000 F 
ATOM      6  C   UNL     1      10.345  12.463  18.842  0.00  0.00    +0.000 A 
ATOM      7  C   UNL     1       9.640  11.476  18.144  0.00  0.00    +0.000 A 
ENDROOT
BRANCH   1   9
ATOM      8  O   UNL     1       7.453   9.725  17.288  0.00  0.00    +0.000 OA
ATOM      9  C   UNL     1       8.251   9.372  18.147  0.00  0.00    +0.000 C 
ATOM     10  N   UNL     1       8.503   8.067  18.535  0.00  0.00    +0.000 N 
ATOM     11  C   UNL     1       7.740   7.059  18.000  0.00  0.00    +0.000 A 
ATOM     12  N   UNL     1       6.989   6.222  18.674  0.00  0.00    +0.000 NA
ATOM     13  C   UNL     1       6.415   5.410  17.719  0.00  0.00    +0.000 A 
ATOM     14  C   UNL     1       5.445   4.403  17.853  0.00  0.00    +0.000 A 
ATOM     15  C   UNL     1       5.086   3.657  16.722  0.00  0.00    +0.000 A 
ATOM     16  C   UNL     1       5.679   3.906  15.481  0.00  0.00    +0.000 A 
ATOM     17  C   UNL     1       6.620   4.931  15.320  0.00  0.00    +0.000 A 
ATOM     18  C   UNL     1       6.944   5.672  16.460  0.00  0.00    +0.000 A 
ATOM     19  N   UNL     1       7.756   6.761  16.664  0.00  0.00    +0.000 N 
ATOM     20  H   UNL     1       8.901   7.867  19.439  0.00  0.00    +0.000 HD
ATOM     21  H   UNL     1       8.294   7.247  15.962  0.00  0.00    +0.000 HD
ENDBRANCH   1   9
BRANCH   6  22
ATOM     22  S   UNL     1      10.966  13.837  17.904  0.00  0.00    +0.000 S 
ATOM     23  O   UNL     1      12.326  14.059  18.395  0.00  0.00    +0.000 OA
ATOM     24  O   UNL     1      10.721  13.567  16.524  0.00  0.00    +0.000 OA
BRANCH  22  25
ATOM     25  N   UNL     1      10.046  15.206  18.365  0.00  0.00    +0.000 NA
ATOM     26  C   UNL     1      10.748  16.508  18.233  0.00  0.00    +0.000 C 
ATOM     27  C   UNL     1       9.938  17.674  18.782  0.00  0.00    +0.000 C 
ATOM     28  C   UNL     1       8.512  17.670  18.259  0.00  0.00    +0.000 C 
ATOM     29  C   UNL     1       7.833  16.359  18.619  0.00  0.00    +0.000 C 
ATOM     30  C   UNL     1       8.590  15.155  18.079  0.00  0.00    +0.000 C 
ENDBRANCH  22  25
ENDBRANCH   6  22
TORSDOF 3
ENDMDL
MODEL 6
REMARK VINA RESULT:      -8.2      6.659      9.920
REMARK  Name = 
REMARK  3 active torsions:
REMARK  status: ('A' for Active; 'I' for Inactive)
REMARK    1  A    between atoms: C_2  and  C_13
REMARK    2  A    between atoms: C_18  and  S_19
REMARK    3  A    between atoms: S_19  and  N_22
REMARK                            x       y       z     vdW  Elec       q    Type
REMARK                         _______ _______ _______ _____ _____    ______ ____
ROOT
ATOM      1  C   UNL     1       1.107   9.335  19.414  0.00  0.00    +0.000 A 
ATOM      2  C   UNL     1       0.939   8.853  20.720  0.00  0.00    +0.000 A 
ATOM      3  C   UNL     1       0.047   9.482  21.582  0.00  0.00    +0.000 A 
ATOM      4  C   UNL     1      -0.674  10.593  21.149  0.00  0.00    +0.000 A 
ATOM      5  F   UNL     1      -1.519  11.134  22.037  0.00  0.00    +0.000 F 
ATOM      6  C   UNL     1      -0.473  11.111  19.870  0.00  0.00    +0.000 A 
ATOM      7  C   UNL     1       0.403  10.463  18.991  0.00  0.00    +0.000 A 
ENDROOT
BRANCH   1   9
ATOM      8  O   UNL     1       2.160   8.996  17.358  0.00  0.00    +0.000 OA
ATOM      9  C   UNL     1       2.005   8.580  18.500  0.00  0.00    +0.000 C 
ATOM     10  N   UNL     1       2.615   7.465  19.049  0.00  0.00    +0.000 N 
ATOM     11  C   UNL     1       3.394   6.674  18.241  0.00  0.00    +0.000 A 
ATOM     12  N   UNL     1       3.198   5.401  17.993  0.00  0.00    +0.000 NA
ATOM     13  C   UNL     1       4.215   5.046  17.132  0.00  0.00    +0.000 A 
ATOM     14  C   UNL     1       4.448   3.836  16.458  0.00  0.00    +0.000 A 
ATOM     15  C   UNL     1       5.616   3.702  15.695  0.00  0.00    +0.000 A 
ATOM     16  C   UNL     1       6.537   4.750  15.604  0.00  0.00    +0.000 A 
ATOM     17  C   UNL     1       6.304   5.977  16.239  0.00  0.00    +0.000 A 
ATOM     18  C   UNL     1       5.121   6.089  16.975  0.00  0.00    +0.000 A 
ATOM     19  N   UNL     1       4.546   7.131  17.661  0.00  0.00    +0.000 N 
ATOM     20  H   UNL     1       2.211   6.997  19.844  0.00  0.00    +0.000 HD
ATOM     21  H   UNL     1       4.914   8.066  17.749  0.00  0.00    +0.000 HD
ENDBRANCH   1   9
BRANCH   6  22
ATOM     22  S   UNL     1      -1.412  12.474  19.227  0.00  0.00    +0.000 S 
ATOM     23  O   UNL     1      -1.231  13.560  20.189  0.00  0.00    +0.000 OA
ATOM     24  O   UNL     1      -1.051  12.642  17.856  0.00  0.00    +0.000 OA
BRANCH  22  25
ATOM     25  N   UNL     1      -3.062  12.017  19.305  0.00  0.00    +0.000 NA
ATOM     26  C   UNL     1      -3.891  12.818  20.240  0.00  0.00    +0.000 C 
ATOM     27  C   UNL     1      -5.311  12.287  20.372  0.00  0.00    +0.000 C 
ATOM     28  C   UNL     1      -5.952  12.033  19.019  0.00  0.00    +0.000 C 
ATOM     29  C   UNL     1      -5.109  11.051  18.224  0.00  0.00    +0.000 C 
ATOM     30  C   UNL     1      -3.679  11.540  18.041  0.00  0.00    +0.000 C 
ENDBRANCH  22  25
ENDBRANCH   6  22
TORSDOF 3
ENDMDL
MODEL 7
REMARK VINA RESULT:      -8.2      6.125      7.380
REMARK  Name = 
REMARK  3 active torsions:
REMARK  status: ('A' for Active; 'I' for Inactive)
REMARK    1  A    between atoms: C_2  and  C_13
REMARK    2  A    between atoms: C_18  and  S_19
REMARK    3  A    between atoms: S_19  and  N_22
REMARK                            x       y       z     vdW  Elec       q    Type
REMARK                         _______ _______ _______ _____ _____    ______ ____
ROOT
ATOM      1  C   UNL     1       2.281   6.764  19.662  0.00  0.00    +0.000 A 
ATOM      2  C   UNL     1       1.336   5.987  20.346  0.00  0.00    +0.000 A 
ATOM      3  C   UNL     1       1.628   4.667  20.672  0.00  0.00    +0.000 A 
ATOM      4  C   UNL     1       2.858   4.117  20.312  0.00  0.00    +0.000 A 
ATOM      5  F   UNL     1       3.065   2.844  20.673  0.00  0.00    +0.000 F 
ATOM      6  C   UNL     1       3.782   4.867  19.586  0.00  0.00    +0.000 A 
ATOM      7  C   UNL     1       3.502   6.205  19.282  0.00  0.00    +0.000 A 
ENDROOT
BRANCH   1   9
ATOM      8  O   UNL     1       2.408   8.726  18.402  0.00  0.00    +0.000 OA
ATOM      9  C   UNL     1       1.960   8.195  19.411  0.00  0.00    +0.000 C 
ATOM     10  N   UNL     1       1.147   8.799  20.355  0.00  0.00    +0.000 N 
ATOM     11  C   UNL     1       0.875  10.139  20.232  0.00  0.00    +0.000 A 
ATOM     12  N   UNL     1       1.158  11.065  21.117  0.00  0.00    +0.000 NA
ATOM     13  C   UNL     1       0.712  12.242  20.556  0.00  0.00    +0.000 A 
ATOM     14  C   UNL     1       0.840  13.566  21.008  0.00  0.00    +0.000 A 
ATOM     15  C   UNL     1       0.216  14.591  20.283  0.00  0.00    +0.000 A 
ATOM     16  C   UNL     1      -0.523  14.306  19.132  0.00  0.00    +0.000 A 
ATOM     17  C   UNL     1      -0.631  12.998  18.644  0.00  0.00    +0.000 A 
ATOM     18  C   UNL     1       0.018  11.999  19.375  0.00  0.00    +0.000 A 
ATOM     19  N   UNL     1       0.178  10.650  19.171  0.00  0.00    +0.000 N 
ATOM     20  H   UNL     1       1.090   8.436  21.293  0.00  0.00    +0.000 HD
ATOM     21  H   UNL     1      -0.175  10.116  18.392  0.00  0.00    +0.000 HD
ENDBRANCH   1   9
BRANCH   6  22
ATOM     22  S   UNL     1       5.395   4.257  19.164  0.00  0.00    +0.000 S 
ATOM     23  O   UNL     1       6.337   5.128  19.867  0.00  0.00    +0.000 OA
ATOM     24  O   UNL     1       5.397   2.846  19.385  0.00  0.00    +0.000 OA
BRANCH  22  25
ATOM     25  N   UNL     1       5.611   4.548  17.490  0.00  0.00    +0.000 NA
ATOM     26  C   UNL     1       7.025   4.648  17.048  0.00  0.00    +0.000 C 
ATOM     27  C   UNL     1       7.159   5.040  15.583  0.00  0.00    +0.000 C 
ATOM     28  C   UNL     1       6.275   4.192  14.684  0.00  0.00    +0.000 C 
ATOM     29  C   UNL     1       4.824   4.318  15.119  0.00  0.00    +0.000 C 
ATOM     30  C   UNL     1       4.625   3.920  16.574  0.00  0.00    +0.000 C 
ENDBRANCH  22  25
ENDBRANCH   6  22
TORSDOF 3
ENDMDL
MODEL 8
REMARK VINA RESULT:      -8.2      5.733      7.340
REMARK  Name = 
REMARK  3 active torsions:
REMARK  status: ('A' for Active; 'I' for Inactive)
REMARK    1  A    between atoms: C_2  and  C_13
REMARK    2  A    between atoms: C_18  and  S_19
REMARK    3  A    between atoms: S_19  and  N_22
REMARK                            x       y       z     vdW  Elec       q    Type
REMARK                         _______ _______ _______ _____ _____    ______ ____
ROOT
ATOM      1  C   UNL     1       2.104   6.387  19.763  0.00  0.00    +0.000 A 
ATOM      2  C   UNL     1       1.347   5.834  20.805  0.00  0.00    +0.000 A 
ATOM      3  C   UNL     1       1.519   4.500  21.156  0.00  0.00    +0.000 A 
ATOM      4  C   UNL     1       2.439   3.712  20.467  0.00  0.00    +0.000 A 
ATOM      5  F   UNL     1       2.552   2.440  20.873  0.00  0.00    +0.000 F 
ATOM      6  C   UNL     1       3.158   4.240  19.394  0.00  0.00    +0.000 A 
ATOM      7  C   UNL     1       3.008   5.590  19.058  0.00  0.00    +0.000 A 
ENDROOT
BRANCH   1   9
ATOM      8  O   UNL     1       2.550   8.315  18.525  0.00  0.00    +0.000 OA
ATOM      9  C   UNL     1       1.950   7.839  19.481  0.00  0.00    +0.000 C 
ATOM     10  N   UNL     1       1.104   8.527  20.333  0.00  0.00    +0.000 N 
ATOM     11  C   UNL     1       0.976   9.886  20.183  0.00  0.00    +0.000 A 
ATOM     12  N   UNL     1       1.251  10.789  21.093  0.00  0.00    +0.000 NA
ATOM     13  C   UNL     1       0.981  11.998  20.487  0.00  0.00    +0.000 A 
ATOM     14  C   UNL     1       1.187  13.307  20.952  0.00  0.00    +0.000 A 
ATOM     15  C   UNL     1       0.744  14.380  20.165  0.00  0.00    +0.000 A 
ATOM     16  C   UNL     1       0.106  14.156  18.942  0.00  0.00    +0.000 A 
ATOM     17  C   UNL     1      -0.075  12.859  18.445  0.00  0.00    +0.000 A 
ATOM     18  C   UNL     1       0.396  11.810  19.240  0.00  0.00    +0.000 A 
ATOM     19  N   UNL     1       0.446  10.450  19.054  0.00  0.00    +0.000 N 
ATOM     20  H   UNL     1       0.914   8.180  21.260  0.00  0.00    +0.000 HD
ATOM     21  H   UNL     1       0.128   9.944  18.241  0.00  0.00    +0.000 HD
ENDBRANCH   1   9
BRANCH   6  22
ATOM     22  S   UNL     1       4.401   3.317  18.525  0.00  0.00    +0.000 S 
ATOM     23  O   UNL     1       5.377   2.924  19.541  0.00  0.00    +0.000 OA
ATOM     24  O   UNL     1       3.736   2.336  17.729  0.00  0.00    +0.000 OA
BRANCH  22  25
ATOM     25  N   UNL     1       5.195   4.420  17.481  0.00  0.00    +0.000 NA
ATOM     26  C   UNL     1       6.539   4.858  17.935  0.00  0.00    +0.000 C 
ATOM     27  C   UNL     1       7.140   5.936  17.045  0.00  0.00    +0.000 C 
ATOM     28  C   UNL     1       7.059   5.569  15.573  0.00  0.00    +0.000 C 
ATOM     29  C   UNL     1       5.612   5.327  15.180  0.00  0.00    +0.000 C 
ATOM     30  C   UNL     1       4.962   4.241  16.025  0.00  0.00    +0.000 C 
ENDBRANCH  22  25
ENDBRANCH   6  22
TORSDOF 3
ENDMDL
MODEL 9
REMARK VINA RESULT:      -8.2      5.086      7.371
REMARK  Name = 
REMARK  3 active torsions:
REMARK  status: ('A' for Active; 'I' for Inactive)
REMARK    1  A    between atoms: C_2  and  C_13
REMARK    2  A    between atoms: C_18  and  S_19
REMARK    3  A    between atoms: S_19  and  N_22
REMARK                            x       y       z     vdW  Elec       q    Type
REMARK                         _______ _______ _______ _____ _____    ______ ____
ROOT
ATOM      1  C   UNL     1       2.151   6.845  19.592  0.00  0.00    +0.000 A 
ATOM      2  C   UNL     1       1.599   6.279  20.750  0.00  0.00    +0.000 A 
ATOM      3  C   UNL     1       1.882   4.958  21.078  0.00  0.00    +0.000 A 
ATOM      4  C   UNL     1       2.707   4.196  20.253  0.00  0.00    +0.000 A 
ATOM      5  F   UNL     1       2.938   2.936  20.646  0.00  0.00    +0.000 F 
ATOM      6  C   UNL     1       3.217   4.735  19.072  0.00  0.00    +0.000 A 
ATOM      7  C   UNL     1       2.957   6.074  18.754  0.00  0.00    +0.000 A 
ENDROOT
BRANCH   1   9
ATOM      8  O   UNL     1       2.367   8.787  18.315  0.00  0.00    +0.000 OA
ATOM      9  C   UNL     1       1.892   8.285  19.326  0.00  0.00    +0.000 C 
ATOM     10  N   UNL     1       1.100   8.932  20.259  0.00  0.00    +0.000 N 
ATOM     11  C   UNL     1       0.886  10.281  20.122  0.00  0.00    +0.000 A 
ATOM     12  N   UNL     1       1.202  11.203  21.000  0.00  0.00    +0.000 NA
ATOM     13  C   UNL     1       0.809  12.392  20.425  0.00  0.00    +0.000 A 
ATOM     14  C   UNL     1       0.991  13.713  20.866  0.00  0.00    +0.000 A 
ATOM     15  C   UNL     1       0.415  14.757  20.128  0.00  0.00    +0.000 A 
ATOM     16  C   UNL     1      -0.329  14.493  18.975  0.00  0.00    +0.000 A 
ATOM     17  C   UNL     1      -0.490  13.186  18.498  0.00  0.00    +0.000 A 
ATOM     18  C   UNL     1       0.113  12.167  19.242  0.00  0.00    +0.000 A 
ATOM     19  N   UNL     1       0.217  10.811  19.052  0.00  0.00    +0.000 N 
ATOM     20  H   UNL     1       1.022   8.581  21.200  0.00  0.00    +0.000 HD
ATOM     21  H   UNL     1      -0.154  10.285  18.275  0.00  0.00    +0.000 HD
ENDBRANCH   1   9
BRANCH   6  22
ATOM     22  S   UNL     1       4.336   3.849  18.016  0.00  0.00    +0.000 S 
ATOM     23  O   UNL     1       4.624   2.598  18.717  0.00  0.00    +0.000 OA
ATOM     24  O   UNL     1       3.779   3.841  16.702  0.00  0.00    +0.000 OA
BRANCH  22  25
ATOM     25  N   UNL     1       5.797   4.744  17.984  0.00  0.00    +0.000 NA
ATOM     26  C   UNL     1       5.932   5.685  16.844  0.00  0.00    +0.000 C 
ATOM     27  C   UNL     1       7.299   6.352  16.788  0.00  0.00    +0.000 C 
ATOM     28  C   UNL     1       7.707   6.927  18.133  0.00  0.00    +0.000 C 
ATOM     29  C   UNL     1       7.714   5.830  19.184  0.00  0.00    +0.000 C 
ATOM     30  C   UNL     1       6.364   5.138  19.299  0.00  0.00    +0.000 C 
ENDBRANCH  22  25
ENDBRANCH   6  22
TORSDOF 3
ENDMDL
