MODEL 1
REMARK VINA RESULT:      -9.7      0.000      0.000
REMARK  Name = 
REMARK  4 active torsions:
REMARK  status: ('A' for Active; 'I' for Inactive)
REMARK    1  A    between atoms: C_2  and  C_15
REMARK    2  A    between atoms: N_3  and  C_4
REMARK    3  A    between atoms: C_8  and  C_9
REMARK    4  A    between atoms: C_17  and  C_18
REMARK                            x       y       z     vdW  Elec       q    Type
REMARK                         _______ _______ _______ _____ _____    ______ ____
ROOT
ATOM      1  C   UNL     1       2.551   6.842  19.044  0.00  0.00    +0.000 A 
ATOM      2  N   UNL     1       3.529   6.785  18.068  0.00  0.00    +0.000 NA
ATOM      3  C   UNL     1       3.969   5.533  18.038  0.00  0.00    +0.000 A 
ATOM      4  N   UNL     1       3.291   4.775  18.993  0.00  0.00    +0.000 N 
ATOM      5  C   UNL     1       2.353   5.587  19.596  0.00  0.00    +0.000 A 
ATOM      6  C   UNL     1       1.369   5.159  20.643  0.00  0.00    +0.000 C 
ATOM      7  C   UNL     1       0.751   3.800  20.354  0.00  0.00    +0.000 C 
ATOM      8  C   UNL     1       1.623   2.638  20.815  0.00  0.00    +0.000 C 
ATOM      9  C   UNL     1       3.126   2.866  20.677  0.00  0.00    +0.000 C 
ATOM     10  C   UNL     1       3.543   3.376  19.302  0.00  0.00    +0.000 C 
ENDROOT
BRANCH   3  11
ATOM     11  C   UNL     1       5.073   5.068  17.169  0.00  0.00    +0.000 A 
ATOM     12  C   UNL     1       4.786   4.680  15.851  0.00  0.00    +0.000 A 
ATOM     13  C   UNL     1       5.803   4.289  14.972  0.00  0.00    +0.000 A 
ATOM     14  C   UNL     1       7.130   4.287  15.395  0.00  0.00    +0.000 A 
ATOM     15  C   UNL     1       7.434   4.638  16.704  0.00  0.00    +0.000 A 
ATOM     16  C   UNL     1       6.411   4.995  17.589  0.00  0.00    +0.000 A 
ENDBRANCH   3  11
BRANCH   1  18
ATOM     17  O   UNL     1       1.573   8.301  20.613  0.00  0.00    +0.000 OA
ATOM     18  C   UNL     1       1.844   8.071  19.435  0.00  0.00    +0.000 C 
ATOM     19  N   UNL     1       1.504   8.890  18.375  0.00  0.00    +0.000 N 
ATOM     20  H   UNL     1       1.707   8.507  17.454  0.00  0.00    +0.000 HD
BRANCH  19  21
ATOM     21  C   UNL     1       0.832  10.131  18.478  0.00  0.00    +0.000 A 
ATOM     22  C   UNL     1       1.469  11.309  18.884  0.00  0.00    +0.000 A 
ATOM     23  C   UNL     1       0.767  12.507  19.005  0.00  0.00    +0.000 A 
ATOM     24  C   UNL     1      -0.590  12.544  18.712  0.00  0.00    +0.000 A 
ATOM     25  C   UNL     1      -1.257  11.386  18.284  0.00  0.00    +0.000 A 
ATOM     26  C   UNL     1      -0.530  10.183  18.162  0.00  0.00    +0.000 A 
BRANCH  25  27
ATOM     27  C   UNL     1      -2.679  11.465  17.987  0.00  0.00    +0.000 A 
ATOM     28  N   UNL     1      -3.685  11.832  18.757  0.00  0.00    +0.000 NA
ATOM     29  N   UNL     1      -4.829  11.724  17.998  0.00  0.00    +0.000 NA
ATOM     30  C   UNL     1      -4.437  11.295  16.823  0.00  0.00    +0.000 A 
ATOM     31  O   UNL     1      -3.093  11.107  16.728  0.00  0.00    +0.000 OA
ENDBRANCH  25  27
ENDBRANCH  19  21
ENDBRANCH   1  18
TORSDOF 4
ENDMDL
MODEL 2
REMARK VINA RESULT:      -9.6      0.682      1.110
REMARK  Name = 
REMARK  4 active torsions:
REMARK  status: ('A' for Active; 'I' for Inactive)
REMARK    1  A    between atoms: C_2  and  C_15
REMARK    2  A    between atoms: N_3  and  C_4
REMARK    3  A    between atoms: C_8  and  C_9
REMARK    4  A    between atoms: C_17  and  C_18
REMARK                            x       y       z     vdW  Elec       q    Type
REMARK                         _______ _______ _______ _____ _____    ______ ____
ROOT
ATOM      1  C   UNL     1       2.517   6.915  18.994  0.00  0.00    +0.000 A 
ATOM      2  N   UNL     1       3.486   6.877  18.008  0.00  0.00    +0.000 NA
ATOM      3  C   UNL     1       3.942   5.631  17.966  0.00  0.00    +0.000 A 
ATOM      4  N   UNL     1       3.285   4.859  18.922  0.00  0.00    +0.000 N 
ATOM      5  C   UNL     1       2.342   5.653  19.540  0.00  0.00    +0.000 A 
ATOM      6  C   UNL     1       1.375   5.206  20.594  0.00  0.00    +0.000 C 
ATOM      7  C   UNL     1       0.773   3.840  20.303  0.00  0.00    +0.000 C 
ATOM      8  C   UNL     1       1.666   2.688  20.748  0.00  0.00    +0.000 C 
ATOM      9  C   UNL     1       3.163   2.938  20.596  0.00  0.00    +0.000 C 
ATOM     10  C   UNL     1       3.559   3.461  19.220  0.00  0.00    +0.000 C 
ENDROOT
BRANCH   3  11
ATOM     11  C   UNL     1       5.044   5.188  17.083  0.00  0.00    +0.000 A 
ATOM     12  C   UNL     1       6.346   5.111  17.604  0.00  0.00    +0.000 A 
ATOM     13  C   UNL     1       7.412   4.642  16.827  0.00  0.00    +0.000 A 
ATOM     14  C   UNL     1       7.193   4.233  15.514  0.00  0.00    +0.000 A 
ATOM     15  C   UNL     1       5.919   4.330  14.968  0.00  0.00    +0.000 A 
ATOM     16  C   UNL     1       4.863   4.831  15.737  0.00  0.00    +0.000 A 
ENDBRANCH   3  11
BRANCH   1  18
ATOM     17  O   UNL     1       1.560   8.364  20.584  0.00  0.00    +0.000 OA
ATOM     18  C   UNL     1       1.797   8.131  19.400  0.00  0.00    +0.000 C 
ATOM     19  N   UNL     1       1.405   8.935  18.346  0.00  0.00    +0.000 N 
ATOM     20  H   UNL     1       1.586   8.549  17.421  0.00  0.00    +0.000 HD
BRANCH  19  21
ATOM     21  C   UNL     1       0.710  10.162  18.462  0.00  0.00    +0.000 A 
ATOM     22  C   UNL     1       1.317  11.338  18.919  0.00  0.00    +0.000 A 
ATOM     23  C   UNL     1       0.592  12.522  19.052  0.00  0.00    +0.000 A 
ATOM     24  C   UNL     1      -0.757  12.546  18.720  0.00  0.00    +0.000 A 
ATOM     25  C   UNL     1      -1.392  11.391  18.240  0.00  0.00    +0.000 A 
ATOM     26  C   UNL     1      -0.643  10.202  18.108  0.00  0.00    +0.000 A 
BRANCH  25  27
ATOM     27  C   UNL     1      -2.806  11.456  17.904  0.00  0.00    +0.000 A 
ATOM     28  N   UNL     1      -3.421  11.164  16.775  0.00  0.00    +0.000 NA
ATOM     29  N   UNL     1      -4.762  11.402  16.978  0.00  0.00    +0.000 NA
ATOM     30  C   UNL     1      -4.865  11.827  18.213  0.00  0.00    +0.000 A 
ATOM     31  O   UNL     1      -3.677  11.889  18.873  0.00  0.00    +0.000 OA
ENDBRANCH  25  27
ENDBRANCH  19  21
ENDBRANCH   1  18
TORSDOF 4
ENDMDL
MODEL 3
REMARK VINA RESULT:      -9.3      2.164      3.049
REMARK  Name = 
REMARK  4 active torsions:
REMARK  status: ('A' for Active; 'I' for Inactive)
REMARK    1  A    between atoms: C_2  and  C_15
REMARK    2  A    between atoms: N_3  and  C_4
REMARK    3  A    between atoms: C_8  and  C_9
REMARK    4  A    between atoms: C_17  and  C_18
REMARK                            x       y       z     vdW  Elec       q    Type
REMARK                         _______ _______ _______ _____ _____    ______ ____
ROOT
ATOM      1  C   UNL     1       2.582   6.837  19.098  0.00  0.00    +0.000 A 
ATOM      2  N   UNL     1       3.554   6.796  18.115  0.00  0.00    +0.000 NA
ATOM      3  C   UNL     1       3.983   5.541  18.052  0.00  0.00    +0.000 A 
ATOM      4  N   UNL     1       3.304   4.766  18.991  0.00  0.00    +0.000 N 
ATOM      5  C   UNL     1       2.376   5.570  19.619  0.00  0.00    +0.000 A 
ATOM      6  C   UNL     1       1.394   5.125  20.660  0.00  0.00    +0.000 C 
ATOM      7  C   UNL     1       0.763   3.778  20.341  0.00  0.00    +0.000 C 
ATOM      8  C   UNL     1       1.628   2.599  20.769  0.00  0.00    +0.000 C 
ATOM      9  C   UNL     1       3.132   2.818  20.629  0.00  0.00    +0.000 C 
ATOM     10  C   UNL     1       3.546   3.358  19.264  0.00  0.00    +0.000 C 
ENDROOT
BRANCH   3  11
ATOM     11  C   UNL     1       5.080   5.089  17.166  0.00  0.00    +0.000 A 
ATOM     12  C   UNL     1       4.778   4.705  15.850  0.00  0.00    +0.000 A 
ATOM     13  C   UNL     1       5.786   4.327  14.955  0.00  0.00    +0.000 A 
ATOM     14  C   UNL     1       7.118   4.333  15.360  0.00  0.00    +0.000 A 
ATOM     15  C   UNL     1       7.437   4.679  16.668  0.00  0.00    +0.000 A 
ATOM     16  C   UNL     1       6.423   5.024  17.568  0.00  0.00    +0.000 A 
ENDBRANCH   3  11
BRANCH   1  18
ATOM     17  O   UNL     1       1.656   8.282  20.710  0.00  0.00    +0.000 OA
ATOM     18  C   UNL     1       1.887   8.062  19.522  0.00  0.00    +0.000 C 
ATOM     19  N   UNL     1       1.509   8.888  18.481  0.00  0.00    +0.000 N 
ATOM     20  H   UNL     1       1.681   8.513  17.550  0.00  0.00    +0.000 HD
BRANCH  19  21
ATOM     21  C   UNL     1       0.839  10.127  18.616  0.00  0.00    +0.000 A 
ATOM     22  C   UNL     1      -0.545  10.225  18.805  0.00  0.00    +0.000 A 
ATOM     23  C   UNL     1      -1.176  11.465  18.902  0.00  0.00    +0.000 A 
ATOM     24  C   UNL     1      -0.424  12.629  18.818  0.00  0.00    +0.000 A 
ATOM     25  C   UNL     1       0.967  12.568  18.649  0.00  0.00    +0.000 A 
ATOM     26  C   UNL     1       1.590  11.305  18.557  0.00  0.00    +0.000 A 
BRANCH  25  27
ATOM     27  C   UNL     1       1.719  13.811  18.565  0.00  0.00    +0.000 A 
ATOM     28  N   UNL     1       2.972  14.019  18.213  0.00  0.00    +0.000 NA
ATOM     29  N   UNL     1       3.194  15.375  18.308  0.00  0.00    +0.000 NA
ATOM     30  C   UNL     1       2.061  15.893  18.716  0.00  0.00    +0.000 A 
ATOM     31  O   UNL     1       1.073  14.975  18.901  0.00  0.00    +0.000 OA
ENDBRANCH  25  27
ENDBRANCH  19  21
ENDBRANCH   1  18
TORSDOF 4
ENDMDL
MODEL 4
REMARK VINA RESULT:      -9.2      2.216      3.120
REMARK  Name = 
REMARK  4 active torsions:
REMARK  status: ('A' for Active; 'I' for Inactive)
REMARK    1  A    between atoms: C_2  and  C_15
REMARK    2  A    between atoms: N_3  and  C_4
REMARK    3  A    between atoms: C_8  and  C_9
REMARK    4  A    between atoms: C_17  and  C_18
REMARK                            x       y       z     vdW  Elec       q    Type
REMARK                         _______ _______ _______ _____ _____    ______ ____
ROOT
ATOM      1  C   UNL     1       2.551   6.877  19.121  0.00  0.00    +0.000 A 
ATOM      2  N   UNL     1       3.509   6.863  18.124  0.00  0.00    +0.000 NA
ATOM      3  C   UNL     1       3.949   5.614  18.032  0.00  0.00    +0.000 A 
ATOM      4  N   UNL     1       3.291   4.815  18.966  0.00  0.00    +0.000 N 
ATOM      5  C   UNL     1       2.365   5.598  19.621  0.00  0.00    +0.000 A 
ATOM      6  C   UNL     1       1.402   5.124  20.668  0.00  0.00    +0.000 C 
ATOM      7  C   UNL     1       0.779   3.778  20.333  0.00  0.00    +0.000 C 
ATOM      8  C   UNL     1       1.662   2.599  20.727  0.00  0.00    +0.000 C 
ATOM      9  C   UNL     1       3.161   2.835  20.569  0.00  0.00    +0.000 C 
ATOM     10  C   UNL     1       3.550   3.404  19.209  0.00  0.00    +0.000 C 
ENDROOT
BRANCH   3  11
ATOM     11  C   UNL     1       5.037   5.189  17.122  0.00  0.00    +0.000 A 
ATOM     12  C   UNL     1       6.352   5.138  17.610  0.00  0.00    +0.000 A 
ATOM     13  C   UNL     1       7.407   4.687  16.808  0.00  0.00    +0.000 A 
ATOM     14  C   UNL     1       7.163   4.272  15.502  0.00  0.00    +0.000 A 
ATOM     15  C   UNL     1       5.874   4.344  14.987  0.00  0.00    +0.000 A 
ATOM     16  C   UNL     1       4.829   4.826  15.782  0.00  0.00    +0.000 A 
ENDBRANCH   3  11
BRANCH   1  18
ATOM     17  O   UNL     1       1.638   8.284  20.774  0.00  0.00    +0.000 OA
ATOM     18  C   UNL     1       1.850   8.086  19.578  0.00  0.00    +0.000 C 
ATOM     19  N   UNL     1       1.445   8.925  18.557  0.00  0.00    +0.000 N 
ATOM     20  H   UNL     1       1.604   8.567  17.618  0.00  0.00    +0.000 HD
BRANCH  19  21
ATOM     21  C   UNL     1       0.764  10.154  18.725  0.00  0.00    +0.000 A 
ATOM     22  C   UNL     1      -0.609  10.232  18.989  0.00  0.00    +0.000 A 
ATOM     23  C   UNL     1      -1.253  11.462  19.117  0.00  0.00    +0.000 A 
ATOM     24  C   UNL     1      -0.525  12.638  18.988  0.00  0.00    +0.000 A 
ATOM     25  C   UNL     1       0.855  12.597  18.741  0.00  0.00    +0.000 A 
ATOM     26  C   UNL     1       1.493  11.344  18.620  0.00  0.00    +0.000 A 
BRANCH  25  27
ATOM     27  C   UNL     1       1.582  13.851  18.611  0.00  0.00    +0.000 A 
ATOM     28  N   UNL     1       1.208  15.080  18.906  0.00  0.00    +0.000 NA
ATOM     29  N   UNL     1       2.263  15.906  18.590  0.00  0.00    +0.000 NA
ATOM     30  C   UNL     1       3.202  15.121  18.121  0.00  0.00    +0.000 A 
ATOM     31  O   UNL     1       2.856  13.804  18.102  0.00  0.00    +0.000 OA
ENDBRANCH  25  27
ENDBRANCH  19  21
ENDBRANCH   1  18
TORSDOF 4
ENDMDL
MODEL 5
REMARK VINA RESULT:      -9.2      2.177      3.066
REMARK  Name = 
REMARK  4 active torsions:
REMARK  status: ('A' for Active; 'I' for Inactive)
REMARK    1  A    between atoms: C_2  and  C_15
REMARK    2  A    between atoms: N_3  and  C_4
REMARK    3  A    between atoms: C_8  and  C_9
REMARK    4  A    between atoms: C_17  and  C_18
REMARK                            x       y       z     vdW  Elec       q    Type
REMARK                         _______ _______ _______ _____ _____    ______ ____
ROOT
ATOM      1  C   UNL     1       2.547   6.803  19.205  0.00  0.00    +0.000 A 
ATOM      2  N   UNL     1       3.530   6.840  18.233  0.00  0.00    +0.000 NA
ATOM      3  C   UNL     1       3.994   5.602  18.109  0.00  0.00    +0.000 A 
ATOM      4  N   UNL     1       3.328   4.761  18.999  0.00  0.00    +0.000 N 
ATOM      5  C   UNL     1       2.372   5.505  19.657  0.00  0.00    +0.000 A 
ATOM      6  C   UNL     1       1.394   4.979  20.663  0.00  0.00    +0.000 C 
ATOM      7  C   UNL     1       0.803   3.634  20.267  0.00  0.00    +0.000 C 
ATOM      8  C   UNL     1       1.697   2.458  20.643  0.00  0.00    +0.000 C 
ATOM      9  C   UNL     1       3.195   2.725  20.531  0.00  0.00    +0.000 C 
ATOM     10  C   UNL     1       3.607   3.347  19.201  0.00  0.00    +0.000 C 
ENDROOT
BRANCH   3  11
ATOM     11  C   UNL     1       5.112   5.228  17.213  0.00  0.00    +0.000 A 
ATOM     12  C   UNL     1       4.872   5.120  15.833  0.00  0.00    +0.000 A 
ATOM     13  C   UNL     1       5.907   4.827  14.938  0.00  0.00    +0.000 A 
ATOM     14  C   UNL     1       7.205   4.643  15.407  0.00  0.00    +0.000 A 
ATOM     15  C   UNL     1       7.460   4.714  16.771  0.00  0.00    +0.000 A 
ATOM     16  C   UNL     1       6.416   4.974  17.665  0.00  0.00    +0.000 A 
ENDBRANCH   3  11
BRANCH   1  18
ATOM     17  O   UNL     1       1.607   8.159  20.885  0.00  0.00    +0.000 OA
ATOM     18  C   UNL     1       1.814   7.984  19.686  0.00  0.00    +0.000 C 
ATOM     19  N   UNL     1       1.375   8.824  18.680  0.00  0.00    +0.000 N 
ATOM     20  H   UNL     1       1.536   8.484  17.735  0.00  0.00    +0.000 HD
BRANCH  19  21
ATOM     21  C   UNL     1       0.658  10.029  18.871  0.00  0.00    +0.000 A 
ATOM     22  C   UNL     1      -0.560  10.298  18.235  0.00  0.00    +0.000 A 
ATOM     23  C   UNL     1      -1.223  11.510  18.422  0.00  0.00    +0.000 A 
ATOM     24  C   UNL     1      -0.675  12.473  19.260  0.00  0.00    +0.000 A 
ATOM     25  C   UNL     1       0.534  12.230  19.928  0.00  0.00    +0.000 A 
ATOM     26  C   UNL     1       1.189  10.996  19.731  0.00  0.00    +0.000 A 
BRANCH  25  27
ATOM     27  C   UNL     1       1.075  13.264  20.797  0.00  0.00    +0.000 A 
ATOM     28  N   UNL     1       2.301  13.430  21.252  0.00  0.00    +0.000 NA
ATOM     29  N   UNL     1       2.286  14.560  22.040  0.00  0.00    +0.000 NA
ATOM     30  C   UNL     1       1.050  14.997  22.011  0.00  0.00    +0.000 A 
ATOM     31  O   UNL     1       0.218  14.238  21.246  0.00  0.00    +0.000 OA
ENDBRANCH  25  27
ENDBRANCH  19  21
ENDBRANCH   1  18
TORSDOF 4
ENDMDL
MODEL 6
REMARK VINA RESULT:      -9.1      2.253      3.289
REMARK  Name = 
REMARK  4 active torsions:
REMARK  status: ('A' for Active; 'I' for Inactive)
REMARK    1  A    between atoms: C_2  and  C_15
REMARK    2  A    between atoms: N_3  and  C_4
REMARK    3  A    between atoms: C_8  and  C_9
REMARK    4  A    between atoms: C_17  and  C_18
REMARK                            x       y       z     vdW  Elec       q    Type
REMARK                         _______ _______ _______ _____ _____    ______ ____
ROOT
ATOM      1  C   UNL     1       2.487   6.860  19.168  0.00  0.00    +0.000 A 
ATOM      2  N   UNL     1       3.397   6.933  18.129  0.00  0.00    +0.000 NA
ATOM      3  C   UNL     1       3.872   5.707  17.947  0.00  0.00    +0.000 A 
ATOM      4  N   UNL     1       3.285   4.837  18.864  0.00  0.00    +0.000 N 
ATOM      5  C   UNL     1       2.366   5.550  19.604  0.00  0.00    +0.000 A 
ATOM      6  C   UNL     1       1.469   4.988  20.665  0.00  0.00    +0.000 C 
ATOM      7  C   UNL     1       0.875   3.640  20.284  0.00  0.00    +0.000 C 
ATOM      8  C   UNL     1       1.812   2.473  20.571  0.00  0.00    +0.000 C 
ATOM      9  C   UNL     1       3.294   2.769  20.359  0.00  0.00    +0.000 C 
ATOM     10  C   UNL     1       3.600   3.424  19.017  0.00  0.00    +0.000 C 
ENDROOT
BRANCH   3  11
ATOM     11  C   UNL     1       4.929   5.370  16.967  0.00  0.00    +0.000 A 
ATOM     12  C   UNL     1       6.236   5.835  17.187  0.00  0.00    +0.000 A 
ATOM     13  C   UNL     1       7.282   5.496  16.322  0.00  0.00    +0.000 A 
ATOM     14  C   UNL     1       7.041   4.676  15.222  0.00  0.00    +0.000 A 
ATOM     15  C   UNL     1       5.750   4.230  14.967  0.00  0.00    +0.000 A 
ATOM     16  C   UNL     1       4.701   4.600  15.816  0.00  0.00    +0.000 A 
ENDBRANCH   3  11
BRANCH   1  18
ATOM     17  O   UNL     1       1.557   8.114  20.930  0.00  0.00    +0.000 OA
ATOM     18  C   UNL     1       1.771   8.018  19.723  0.00  0.00    +0.000 C 
ATOM     19  N   UNL     1       1.354   8.933  18.775  0.00  0.00    +0.000 N 
ATOM     20  H   UNL     1       1.517   8.656  17.809  0.00  0.00    +0.000 HD
BRANCH  19  21
ATOM     21  C   UNL     1       0.656  10.135  19.043  0.00  0.00    +0.000 A 
ATOM     22  C   UNL     1      -0.637  10.385  18.568  0.00  0.00    +0.000 A 
ATOM     23  C   UNL     1      -1.281  11.594  18.825  0.00  0.00    +0.000 A 
ATOM     24  C   UNL     1      -0.639  12.573  19.572  0.00  0.00    +0.000 A 
ATOM     25  C   UNL     1       0.650  12.349  20.080  0.00  0.00    +0.000 A 
ATOM     26  C   UNL     1       1.286  11.117  19.814  0.00  0.00    +0.000 A 
BRANCH  25  27
ATOM     27  C   UNL     1       1.290  13.399  20.857  0.00  0.00    +0.000 A 
ATOM     28  N   UNL     1       0.939  13.930  22.011  0.00  0.00    +0.000 NA
ATOM     29  N   UNL     1       1.878  14.891  22.311  0.00  0.00    +0.000 NA
ATOM     30  C   UNL     1       2.731  14.878  21.316  0.00  0.00    +0.000 A 
ATOM     31  O   UNL     1       2.436  13.962  20.353  0.00  0.00    +0.000 OA
ENDBRANCH  25  27
ENDBRANCH  19  21
ENDBRANCH   1  18
TORSDOF 4
ENDMDL
MODEL 7
REMARK VINA RESULT:      -9.0      2.637      3.216
REMARK  Name = 
REMARK  4 active torsions:
REMARK  status: ('A' for Active; 'I' for Inactive)
REMARK    1  A    between atoms: C_2  and  C_15
REMARK    2  A    between atoms: N_3  and  C_4
REMARK    3  A    between atoms: C_8  and  C_9
REMARK    4  A    between atoms: C_17  and  C_18
REMARK                            x       y       z     vdW  Elec       q    Type
REMARK                         _______ _______ _______ _____ _____    ______ ____
ROOT
ATOM      1  C   UNL     1       2.518   6.843  19.120  0.00  0.00    +0.000 A 
ATOM      2  N   UNL     1       3.530   6.827  18.177  0.00  0.00    +0.000 NA
ATOM      3  C   UNL     1       4.007   5.589  18.147  0.00  0.00    +0.000 A 
ATOM      4  N   UNL     1       3.320   4.799  19.068  0.00  0.00    +0.000 N 
ATOM      5  C   UNL     1       2.339   5.575  19.649  0.00  0.00    +0.000 A 
ATOM      6  C   UNL     1       1.333   5.106  20.656  0.00  0.00    +0.000 C 
ATOM      7  C   UNL     1       0.765   3.733  20.329  0.00  0.00    +0.000 C 
ATOM      8  C   UNL     1       1.655   2.591  20.806  0.00  0.00    +0.000 C 
ATOM      9  C   UNL     1       3.154   2.864  20.722  0.00  0.00    +0.000 C 
ATOM     10  C   UNL     1       3.602   3.404  19.368  0.00  0.00    +0.000 C 
ENDROOT
BRANCH   3  11
ATOM     11  C   UNL     1       5.154   5.168  17.311  0.00  0.00    +0.000 A 
ATOM     12  C   UNL     1       4.958   4.970  15.935  0.00  0.00    +0.000 A 
ATOM     13  C   UNL     1       6.022   4.630  15.091  0.00  0.00    +0.000 A 
ATOM     14  C   UNL     1       7.306   4.488  15.610  0.00  0.00    +0.000 A 
ATOM     15  C   UNL     1       7.518   4.648  16.974  0.00  0.00    +0.000 A 
ATOM     16  C   UNL     1       6.445   4.955  17.818  0.00  0.00    +0.000 A 
ENDBRANCH   3  11
BRANCH   1  18
ATOM     17  O   UNL     1       1.428   8.880  18.662  0.00  0.00    +0.000 OA
ATOM     18  C   UNL     1       1.763   8.046  19.502  0.00  0.00    +0.000 C 
ATOM     19  N   UNL     1       1.508   8.147  20.856  0.00  0.00    +0.000 N 
ATOM     20  H   UNL     1       1.943   7.428  21.431  0.00  0.00    +0.000 HD
BRANCH  19  21
ATOM     21  C   UNL     1       0.793   9.197  21.482  0.00  0.00    +0.000 A 
ATOM     22  C   UNL     1      -0.122   8.980  22.519  0.00  0.00    +0.000 A 
ATOM     23  C   UNL     1      -0.832  10.035  23.090  0.00  0.00    +0.000 A 
ATOM     24  C   UNL     1      -0.629  11.331  22.632  0.00  0.00    +0.000 A 
ATOM     25  C   UNL     1       0.294  11.587  21.607  0.00  0.00    +0.000 A 
ATOM     26  C   UNL     1       1.008  10.508  21.044  0.00  0.00    +0.000 A 
BRANCH  25  27
ATOM     27  C   UNL     1       0.478  12.957  21.155  0.00  0.00    +0.000 A 
ATOM     28  N   UNL     1       0.241  13.498  19.976  0.00  0.00    +0.000 NA
ATOM     29  N   UNL     1       0.590  14.827  20.069  0.00  0.00    +0.000 NA
ATOM     30  C   UNL     1       1.020  14.997  21.295  0.00  0.00    +0.000 A 
ATOM     31  O   UNL     1       0.981  13.867  22.052  0.00  0.00    +0.000 OA
ENDBRANCH  25  27
ENDBRANCH  19  21
ENDBRANCH   1  18
TORSDOF 4
ENDMDL
MODEL 8
REMARK VINA RESULT:      -9.0      3.063      8.971
REMARK  Name = 
REMARK  4 active torsions:
REMARK  status: ('A' for Active; 'I' for Inactive)
REMARK    1  A    between atoms: C_2  and  C_15
REMARK    2  A    between atoms: N_3  and  C_4
REMARK    3  A    between atoms: C_8  and  C_9
REMARK    4  A    between atoms: C_17  and  C_18
REMARK                            x       y       z     vdW  Elec       q    Type
REMARK                         _______ _______ _______ _____ _____    ______ ____
ROOT
ATOM      1  C   UNL     1       1.361  10.133  18.995  0.00  0.00    +0.000 A 
ATOM      2  N   UNL     1       1.842  11.366  18.593  0.00  0.00    +0.000 NA
ATOM      3  C   UNL     1       1.420  12.252  19.487  0.00  0.00    +0.000 A 
ATOM      4  N   UNL     1       0.662  11.609  20.463  0.00  0.00    +0.000 N 
ATOM      5  C   UNL     1       0.666  10.258  20.187  0.00  0.00    +0.000 A 
ATOM      6  C   UNL     1       0.017   9.192  21.018  0.00  0.00    +0.000 C 
ATOM      7  C   UNL     1       0.214   9.404  22.511  0.00  0.00    +0.000 C 
ATOM      8  C   UNL     1      -0.795  10.375  23.114  0.00  0.00    +0.000 C 
ATOM      9  C   UNL     1      -1.204  11.527  22.201  0.00  0.00    +0.000 C 
ATOM     10  C   UNL     1      -0.023  12.257  21.571  0.00  0.00    +0.000 C 
ENDROOT
BRANCH   3  11
ATOM     11  C   UNL     1       1.666  13.708  19.381  0.00  0.00    +0.000 A 
ATOM     12  C   UNL     1       2.931  14.212  19.720  0.00  0.00    +0.000 A 
ATOM     13  C   UNL     1       3.232  15.573  19.582  0.00  0.00    +0.000 A 
ATOM     14  C   UNL     1       2.271  16.454  19.093  0.00  0.00    +0.000 A 
ATOM     15  C   UNL     1       1.001  15.983  18.781  0.00  0.00    +0.000 A 
ATOM     16  C   UNL     1       0.696  14.628  18.952  0.00  0.00    +0.000 A 
ENDBRANCH   3  11
BRANCH   1  18
ATOM     17  O   UNL     1       0.895   8.635  17.239  0.00  0.00    +0.000 OA
ATOM     18  C   UNL     1       1.558   8.884  18.245  0.00  0.00    +0.000 C 
ATOM     19  N   UNL     1       2.509   8.041  18.789  0.00  0.00    +0.000 N 
ATOM     20  H   UNL     1       2.892   8.345  19.681  0.00  0.00    +0.000 HD
BRANCH  19  21
ATOM     21  C   UNL     1       2.895   6.787  18.259  0.00  0.00    +0.000 A 
ATOM     22  C   UNL     1       2.208   5.599  18.540  0.00  0.00    +0.000 A 
ATOM     23  C   UNL     1       2.638   4.376  18.025  0.00  0.00    +0.000 A 
ATOM     24  C   UNL     1       3.763   4.327  17.213  0.00  0.00    +0.000 A 
ATOM     25  C   UNL     1       4.465   5.500  16.897  0.00  0.00    +0.000 A 
ATOM     26  C   UNL     1       4.014   6.730  17.422  0.00  0.00    +0.000 A 
BRANCH  25  27
ATOM     27  C   UNL     1       5.639   5.406  16.043  0.00  0.00    +0.000 A 
ATOM     28  N   UNL     1       6.834   5.945  16.186  0.00  0.00    +0.000 NA
ATOM     29  N   UNL     1       7.583   5.552  15.100  0.00  0.00    +0.000 NA
ATOM     30  C   UNL     1       6.788   4.806  14.371  0.00  0.00    +0.000 A 
ATOM     31  O   UNL     1       5.541   4.659  14.896  0.00  0.00    +0.000 OA
ENDBRANCH  25  27
ENDBRANCH  19  21
ENDBRANCH   1  18
TORSDOF 4
ENDMDL
MODEL 9
REMARK VINA RESULT:      -8.6      2.977      9.127
REMARK  Name = 
REMARK  4 active torsions:
REMARK  status: ('A' for Active; 'I' for Inactive)
REMARK    1  A    between atoms: C_2  and  C_15
REMARK    2  A    between atoms: N_3  and  C_4
REMARK    3  A    between atoms: C_8  and  C_9
REMARK    4  A    between atoms: C_17  and  C_18
REMARK                            x       y       z     vdW  Elec       q    Type
REMARK                         _______ _______ _______ _____ _____    ______ ____
ROOT
ATOM      1  C   UNL     1       1.342  10.149  19.069  0.00  0.00    +0.000 A 
ATOM      2  N   UNL     1       1.778  11.405  18.689  0.00  0.00    +0.000 NA
ATOM      3  C   UNL     1       1.325  12.260  19.598  0.00  0.00    +0.000 A 
ATOM      4  N   UNL     1       0.591  11.573  20.563  0.00  0.00    +0.000 N 
ATOM      5  C   UNL     1       0.644  10.228  20.264  0.00  0.00    +0.000 A 
ATOM      6  C   UNL     1       0.033   9.126  21.076  0.00  0.00    +0.000 C 
ATOM      7  C   UNL     1       0.223   9.319  22.572  0.00  0.00    +0.000 C 
ATOM      8  C   UNL     1      -0.819  10.242  23.191  0.00  0.00    +0.000 C 
ATOM      9  C   UNL     1      -1.270  11.395  22.299  0.00  0.00    +0.000 C 
ATOM     10  C   UNL     1      -0.116  12.178  21.682  0.00  0.00    +0.000 C 
ENDROOT
BRANCH   3  11
ATOM     11  C   UNL     1       1.518  13.726  19.517  0.00  0.00    +0.000 A 
ATOM     12  C   UNL     1       2.713  14.284  20.000  0.00  0.00    +0.000 A 
ATOM     13  C   UNL     1       2.968  15.656  19.894  0.00  0.00    +0.000 A 
ATOM     14  C   UNL     1       2.033  16.496  19.294  0.00  0.00    +0.000 A 
ATOM     15  C   UNL     1       0.831  15.971  18.837  0.00  0.00    +0.000 A 
ATOM     16  C   UNL     1       0.566  14.604  18.976  0.00  0.00    +0.000 A 
ENDBRANCH   3  11
BRANCH   1  18
ATOM     17  O   UNL     1       1.173   8.804  17.144  0.00  0.00    +0.000 OA
ATOM     18  C   UNL     1       1.583   8.921  18.298  0.00  0.00    +0.000 C 
ATOM     19  N   UNL     1       2.267   7.941  18.993  0.00  0.00    +0.000 N 
ATOM     20  H   UNL     1       2.444   8.154  19.973  0.00  0.00    +0.000 HD
BRANCH  19  21
ATOM     21  C   UNL     1       2.635   6.674  18.481  0.00  0.00    +0.000 A 
ATOM     22  C   UNL     1       1.710   5.645  18.265  0.00  0.00    +0.000 A 
ATOM     23  C   UNL     1       2.114   4.398  17.789  0.00  0.00    +0.000 A 
ATOM     24  C   UNL     1       3.455   4.166  17.514  0.00  0.00    +0.000 A 
ATOM     25  C   UNL     1       4.406   5.181  17.700  0.00  0.00    +0.000 A 
ATOM     26  C   UNL     1       3.980   6.439  18.178  0.00  0.00    +0.000 A 
BRANCH  25  27
ATOM     27  C   UNL     1       5.801   4.899  17.401  0.00  0.00    +0.000 A 
ATOM     28  N   UNL     1       6.400   4.727  16.239  0.00  0.00    +0.000 NA
ATOM     29  N   UNL     1       7.728   4.479  16.506  0.00  0.00    +0.000 NA
ATOM     30  C   UNL     1       7.841   4.513  17.811  0.00  0.00    +0.000 A 
ATOM     31  O   UNL     1       6.671   4.775  18.456  0.00  0.00    +0.000 OA
ENDBRANCH  25  27
ENDBRANCH  19  21
ENDBRANCH   1  18
TORSDOF 4
ENDMDL
