MODEL 1
REMARK VINA RESULT:      -9.4      0.000      0.000
REMARK  Name = 
REMARK  3 active torsions:
REMARK  status: ('A' for Active; 'I' for Inactive)
REMARK    1  A    between atoms: C_1  and  C_2
REMARK    2  A    between atoms: C_7  and  C_9
REMARK    3  A    between atoms: C_14  and  C_16
REMARK                            x       y       z     vdW  Elec       q    Type
REMARK                         _______ _______ _______ _____ _____    ______ ____
ROOT
ATOM      1  C   UNL     1       3.063   2.287  19.088  0.00  0.00    +0.000 C 
ATOM      2  C   UNL     1       1.548   2.029  19.045  0.00  0.00    +0.000 C 
ATOM      3  C   UNL     1       0.703   3.306  19.059  0.00  0.00    +0.000 C 
ATOM      4  C   UNL     1       1.182   4.268  20.150  0.00  0.00    +0.000 C 
ATOM      5  N   UNL     1       2.624   4.517  19.998  0.00  0.00    +0.000 N 
ATOM      6  C   UNL     1       3.291   5.739  19.819  0.00  0.00    +0.000 C 
ATOM      7  O   UNL     1       4.508   5.841  19.868  0.00  0.00    +0.000 OA
ATOM      8  C   UNL     1       3.444   3.318  20.145  0.00  0.00    +0.000 C 
ENDROOT
BRANCH   1  15
ATOM      9  C   UNL     1       7.524   5.312  13.175  0.00  0.00    +0.000 C 
ATOM     10  C   UNL     1       6.863   4.783  14.406  0.00  0.00    +0.000 A 
ATOM     11  C   UNL     1       7.406   4.955  15.674  0.00  0.00    +0.000 A 
ATOM     12  C   UNL     1       6.744   4.433  16.787  0.00  0.00    +0.000 A 
ATOM     13  C   UNL     1       5.538   3.758  16.598  0.00  0.00    +0.000 A 
ATOM     14  N   UNL     1       4.873   3.253  17.726  0.00  0.00    +0.000 N 
ATOM     15  C   UNL     1       3.648   2.621  17.714  0.00  0.00    +0.000 C 
ATOM     16  O   UNL     1       2.974   2.356  16.720  0.00  0.00    +0.000 OA
ATOM     17  N   UNL     1       5.003   3.597  15.385  0.00  0.00    +0.000 NA
ATOM     18  C   UNL     1       5.663   4.091  14.318  0.00  0.00    +0.000 A 
ATOM     19  H   UNL     1       5.369   3.299  18.596  0.00  0.00    +0.000 HD
ENDBRANCH   1  15
BRANCH   6  20
ATOM     20  C   UNL     1       2.521   6.970  19.510  0.00  0.00    +0.000 A 
ATOM     21  C   UNL     1       2.501   7.440  18.197  0.00  0.00    +0.000 A 
ATOM     22  C   UNL     1       1.827   8.624  17.895  0.00  0.00    +0.000 A 
ATOM     23  C   UNL     1       1.171   9.351  18.903  0.00  0.00    +0.000 A 
ATOM     24  C   UNL     1       0.519  10.560  18.639  0.00  0.00    +0.000 A 
ATOM     25  C   UNL     1      -0.119  11.264  19.665  0.00  0.00    +0.000 A 
ATOM     26  C   UNL     1      -0.102  10.778  20.969  0.00  0.00    +0.000 A 
ATOM     27  C   UNL     1       0.535   9.574  21.250  0.00  0.00    +0.000 A 
ATOM     28  C   UNL     1       1.158   8.852  20.218  0.00  0.00    +0.000 A 
ATOM     29  C   UNL     1       1.775   7.635  20.487  0.00  0.00    +0.000 A 
ENDBRANCH   6  20
TORSDOF 2
ENDMDL
MODEL 2
REMARK VINA RESULT:      -7.9      4.288      8.707
REMARK  Name = 
REMARK  3 active torsions:
REMARK  status: ('A' for Active; 'I' for Inactive)
REMARK    1  A    between atoms: C_1  and  C_2
REMARK    2  A    between atoms: C_7  and  C_9
REMARK    3  A    between atoms: C_14  and  C_16
REMARK                            x       y       z     vdW  Elec       q    Type
REMARK                         _______ _______ _______ _____ _____    ______ ____
ROOT
ATOM      1  C   UNL     1      -1.336  12.548  21.426  0.00  0.00    +0.000 C 
ATOM      2  C   UNL     1      -0.185  13.520  21.119  0.00  0.00    +0.000 C 
ATOM      3  C   UNL     1       1.026  12.854  20.462  0.00  0.00    +0.000 C 
ATOM      4  C   UNL     1       1.418  11.573  21.205  0.00  0.00    +0.000 C 
ATOM      5  N   UNL     1       0.251  10.687  21.322  0.00  0.00    +0.000 N 
ATOM      6  C   UNL     1       0.102   9.365  20.873  0.00  0.00    +0.000 C 
ATOM      7  O   UNL     1      -0.859   8.671  21.171  0.00  0.00    +0.000 OA
ATOM      8  C   UNL     1      -0.848  11.265  22.090  0.00  0.00    +0.000 C 
ENDROOT
BRANCH   1  15
ATOM      9  C   UNL     1      -4.068  10.041  14.335  0.00  0.00    +0.000 C 
ATOM     10  C   UNL     1      -3.418  10.344  15.646  0.00  0.00    +0.000 A 
ATOM     11  C   UNL     1      -2.232   9.738  16.046  0.00  0.00    +0.000 A 
ATOM     12  C   UNL     1      -1.676  10.059  17.285  0.00  0.00    +0.000 A 
ATOM     13  C   UNL     1      -2.321  10.996  18.092  0.00  0.00    +0.000 A 
ATOM     14  N   UNL     1      -1.742  11.322  19.328  0.00  0.00    +0.000 N 
ATOM     15  C   UNL     1      -2.220  12.271  20.207  0.00  0.00    +0.000 C 
ATOM     16  O   UNL     1      -3.246  12.936  20.075  0.00  0.00    +0.000 OA
ATOM     17  N   UNL     1      -3.455  11.591  17.711  0.00  0.00    +0.000 NA
ATOM     18  C   UNL     1      -3.990  11.258  16.520  0.00  0.00    +0.000 A 
ATOM     19  H   UNL     1      -0.959  10.767  19.616  0.00  0.00    +0.000 HD
ENDBRANCH   1  15
BRANCH   6  20
ATOM     20  C   UNL     1       1.110   8.770  19.961  0.00  0.00    +0.000 A 
ATOM     21  C   UNL     1       1.385   9.410  18.752  0.00  0.00    +0.000 A 
ATOM     22  C   UNL     1       2.291   8.840  17.857  0.00  0.00    +0.000 A 
ATOM     23  C   UNL     1       2.925   7.623  18.158  0.00  0.00    +0.000 A 
ATOM     24  C   UNL     1       3.808   7.008  17.265  0.00  0.00    +0.000 A 
ATOM     25  C   UNL     1       4.419   5.792  17.591  0.00  0.00    +0.000 A 
ATOM     26  C   UNL     1       4.144   5.169  18.805  0.00  0.00    +0.000 A 
ATOM     27  C   UNL     1       3.275   5.770  19.710  0.00  0.00    +0.000 A 
ATOM     28  C   UNL     1       2.677   7.002  19.395  0.00  0.00    +0.000 A 
ATOM     29  C   UNL     1       1.825   7.620  20.304  0.00  0.00    +0.000 A 
ENDBRANCH   6  20
TORSDOF 2
ENDMDL
MODEL 3
REMARK VINA RESULT:      -7.8      3.735      6.653
REMARK  Name = 
REMARK  3 active torsions:
REMARK  status: ('A' for Active; 'I' for Inactive)
REMARK    1  A    between atoms: C_1  and  C_2
REMARK    2  A    between atoms: C_7  and  C_9
REMARK    3  A    between atoms: C_14  and  C_16
REMARK                            x       y       z     vdW  Elec       q    Type
REMARK                         _______ _______ _______ _____ _____    ______ ____
ROOT
ATOM      1  C   UNL     1       1.651   9.477  21.549  0.00  0.00    +0.000 C 
ATOM      2  C   UNL     1       0.749   9.117  22.741  0.00  0.00    +0.000 C 
ATOM      3  C   UNL     1      -0.739   9.378  22.491  0.00  0.00    +0.000 C 
ATOM      4  C   UNL     1      -0.957  10.769  21.889  0.00  0.00    +0.000 C 
ATOM      5  N   UNL     1      -0.122  10.932  20.690  0.00  0.00    +0.000 N 
ATOM      6  C   UNL     1      -0.516  11.237  19.378  0.00  0.00    +0.000 C 
ATOM      7  O   UNL     1       0.284  11.508  18.494  0.00  0.00    +0.000 OA
ATOM      8  C   UNL     1       1.311  10.841  20.959  0.00  0.00    +0.000 C 
ENDROOT
BRANCH   1  15
ATOM      9  C   UNL     1       2.425   2.456  17.791  0.00  0.00    +0.000 C 
ATOM     10  C   UNL     1       2.238   3.649  18.669  0.00  0.00    +0.000 A 
ATOM     11  C   UNL     1       2.161   3.548  20.054  0.00  0.00    +0.000 A 
ATOM     12  C   UNL     1       1.981   4.700  20.822  0.00  0.00    +0.000 A 
ATOM     13  C   UNL     1       1.896   5.934  20.178  0.00  0.00    +0.000 A 
ATOM     14  N   UNL     1       1.732   7.086  20.962  0.00  0.00    +0.000 N 
ATOM     15  C   UNL     1       1.695   8.379  20.484  0.00  0.00    +0.000 C 
ATOM     16  O   UNL     1       1.745   8.721  19.304  0.00  0.00    +0.000 OA
ATOM     17  N   UNL     1       1.980   6.042  18.849  0.00  0.00    +0.000 NA
ATOM     18  C   UNL     1       2.136   4.920  18.119  0.00  0.00    +0.000 A 
ATOM     19  H   UNL     1       1.560   6.942  21.939  0.00  0.00    +0.000 HD
ENDBRANCH   1  15
BRANCH   6  20
ATOM     20  C   UNL     1      -1.951  11.193  19.002  0.00  0.00    +0.000 A 
ATOM     21  C   UNL     1      -2.379  10.225  18.093  0.00  0.00    +0.000 A 
ATOM     22  C   UNL     1      -3.714  10.199  17.686  0.00  0.00    +0.000 A 
ATOM     23  C   UNL     1      -4.630  11.143  18.179  0.00  0.00    +0.000 A 
ATOM     24  C   UNL     1      -5.965  11.166  17.762  0.00  0.00    +0.000 A 
ATOM     25  C   UNL     1      -6.853  12.123  18.267  0.00  0.00    +0.000 A 
ATOM     26  C   UNL     1      -6.415  13.076  19.182  0.00  0.00    +0.000 A 
ATOM     27  C   UNL     1      -5.093  13.064  19.615  0.00  0.00    +0.000 A 
ATOM     28  C   UNL     1      -4.205  12.091  19.128  0.00  0.00    +0.000 A 
ATOM     29  C   UNL     1      -2.888  12.057  19.574  0.00  0.00    +0.000 A 
ENDBRANCH   6  20
TORSDOF 2
ENDMDL
MODEL 4
REMARK VINA RESULT:      -7.6      0.707      1.503
REMARK  Name = 
REMARK  3 active torsions:
REMARK  status: ('A' for Active; 'I' for Inactive)
REMARK    1  A    between atoms: C_1  and  C_2
REMARK    2  A    between atoms: C_7  and  C_9
REMARK    3  A    between atoms: C_14  and  C_16
REMARK                            x       y       z     vdW  Elec       q    Type
REMARK                         _______ _______ _______ _____ _____    ______ ____
ROOT
ATOM      1  C   UNL     1       2.654   1.979  18.882  0.00  0.00    +0.000 C 
ATOM      2  C   UNL     1       1.127   1.840  18.784  0.00  0.00    +0.000 C 
ATOM      3  C   UNL     1       0.371   3.149  19.024  0.00  0.00    +0.000 C 
ATOM      4  C   UNL     1       0.893   3.861  20.275  0.00  0.00    +0.000 C 
ATOM      5  N   UNL     1       2.350   4.032  20.180  0.00  0.00    +0.000 N 
ATOM      6  C   UNL     1       3.103   5.217  20.231  0.00  0.00    +0.000 C 
ATOM      7  O   UNL     1       4.323   5.222  20.305  0.00  0.00    +0.000 OA
ATOM      8  C   UNL     1       3.084   2.772  20.112  0.00  0.00    +0.000 C 
ENDROOT
BRANCH   1  15
ATOM      9  C   UNL     1       7.480   5.619  13.640  0.00  0.00    +0.000 C 
ATOM     10  C   UNL     1       6.753   4.930  14.748  0.00  0.00    +0.000 A 
ATOM     11  C   UNL     1       7.298   4.785  16.019  0.00  0.00    +0.000 A 
ATOM     12  C   UNL     1       6.572   4.128  17.012  0.00  0.00    +0.000 A 
ATOM     13  C   UNL     1       5.301   3.639  16.707  0.00  0.00    +0.000 A 
ATOM     14  N   UNL     1       4.574   2.995  17.719  0.00  0.00    +0.000 N 
ATOM     15  C   UNL     1       3.287   2.515  17.596  0.00  0.00    +0.000 C 
ATOM     16  O   UNL     1       2.598   2.528  16.576  0.00  0.00    +0.000 OA
ATOM     17  N   UNL     1       4.765   3.783  15.492  0.00  0.00    +0.000 NA
ATOM     18  C   UNL     1       5.485   4.404  14.538  0.00  0.00    +0.000 A 
ATOM     19  H   UNL     1       5.063   2.811  18.575  0.00  0.00    +0.000 HD
ENDBRANCH   1  15
BRANCH   6  20
ATOM     20  C   UNL     1       2.424   6.534  20.147  0.00  0.00    +0.000 A 
ATOM     21  C   UNL     1       1.607   6.939  21.203  0.00  0.00    +0.000 A 
ATOM     22  C   UNL     1       0.918   8.150  21.121  0.00  0.00    +0.000 A 
ATOM     23  C   UNL     1       1.036   8.964  19.982  0.00  0.00    +0.000 A 
ATOM     24  C   UNL     1       0.329  10.165  19.854  0.00  0.00    +0.000 A 
ATOM     25  C   UNL     1       0.462  10.950  18.704  0.00  0.00    +0.000 A 
ATOM     26  C   UNL     1       1.289  10.540  17.663  0.00  0.00    +0.000 A 
ATOM     27  C   UNL     1       2.006   9.353  17.775  0.00  0.00    +0.000 A 
ATOM     28  C   UNL     1       1.893   8.573  18.938  0.00  0.00    +0.000 A 
ATOM     29  C   UNL     1       2.625   7.397  19.067  0.00  0.00    +0.000 A 
ENDBRANCH   6  20
TORSDOF 2
ENDMDL
MODEL 5
REMARK VINA RESULT:      -7.4      8.948     11.197
REMARK  Name = 
REMARK  3 active torsions:
REMARK  status: ('A' for Active; 'I' for Inactive)
REMARK    1  A    between atoms: C_1  and  C_2
REMARK    2  A    between atoms: C_7  and  C_9
REMARK    3  A    between atoms: C_14  and  C_16
REMARK                            x       y       z     vdW  Elec       q    Type
REMARK                         _______ _______ _______ _____ _____    ______ ____
ROOT
ATOM      1  C   UNL     1       9.713  12.752  17.778  0.00  0.00    +0.000 C 
ATOM      2  C   UNL     1       9.791  11.268  18.173  0.00  0.00    +0.000 C 
ATOM      3  C   UNL     1       9.569  11.015  19.667  0.00  0.00    +0.000 C 
ATOM      4  C   UNL     1      10.409  11.973  20.516  0.00  0.00    +0.000 C 
ATOM      5  N   UNL     1      10.146  13.362  20.109  0.00  0.00    +0.000 N 
ATOM      6  C   UNL     1       9.683  14.434  20.889  0.00  0.00    +0.000 C 
ATOM      7  O   UNL     1       9.657  15.585  20.479  0.00  0.00    +0.000 OA
ATOM      8  C   UNL     1      10.509  13.644  18.724  0.00  0.00    +0.000 C 
ENDROOT
BRANCH   1  15
ATOM      9  C   UNL     1       2.845  16.811  18.397  0.00  0.00    +0.000 C 
ATOM     10  C   UNL     1       4.222  16.234  18.354  0.00  0.00    +0.000 A 
ATOM     11  C   UNL     1       5.312  16.864  18.945  0.00  0.00    +0.000 A 
ATOM     12  C   UNL     1       6.576  16.277  18.868  0.00  0.00    +0.000 A 
ATOM     13  C   UNL     1       6.714  15.057  18.205  0.00  0.00    +0.000 A 
ATOM     14  N   UNL     1       7.986  14.469  18.149  0.00  0.00    +0.000 N 
ATOM     15  C   UNL     1       8.275  13.242  17.591  0.00  0.00    +0.000 C 
ATOM     16  O   UNL     1       7.483  12.500  17.012  0.00  0.00    +0.000 OA
ATOM     17  N   UNL     1       5.671  14.439  17.644  0.00  0.00    +0.000 NA
ATOM     18  C   UNL     1       4.460  15.026  17.712  0.00  0.00    +0.000 A 
ATOM     19  H   UNL     1       8.752  15.025  18.483  0.00  0.00    +0.000 HD
ENDBRANCH   1  15
BRANCH   6  20
ATOM     20  C   UNL     1       9.153  14.189  22.253  0.00  0.00    +0.000 A 
ATOM     21  C   UNL     1       9.478  15.084  23.273  0.00  0.00    +0.000 A 
ATOM     22  C   UNL     1       9.034  14.844  24.573  0.00  0.00    +0.000 A 
ATOM     23  C   UNL     1       8.266  13.705  24.868  0.00  0.00    +0.000 A 
ATOM     24  C   UNL     1       7.837  13.417  26.168  0.00  0.00    +0.000 A 
ATOM     25  C   UNL     1       7.079  12.271  26.431  0.00  0.00    +0.000 A 
ATOM     26  C   UNL     1       6.752  11.392  25.403  0.00  0.00    +0.000 A 
ATOM     27  C   UNL     1       7.162  11.665  24.102  0.00  0.00    +0.000 A 
ATOM     28  C   UNL     1       7.904  12.827  23.830  0.00  0.00    +0.000 A 
ATOM     29  C   UNL     1       8.297  13.119  22.528  0.00  0.00    +0.000 A 
ENDBRANCH   6  20
TORSDOF 2
ENDMDL
MODEL 6
REMARK VINA RESULT:      -7.4      1.144      1.594
REMARK  Name = 
REMARK  3 active torsions:
REMARK  status: ('A' for Active; 'I' for Inactive)
REMARK    1  A    between atoms: C_1  and  C_2
REMARK    2  A    between atoms: C_7  and  C_9
REMARK    3  A    between atoms: C_14  and  C_16
REMARK                            x       y       z     vdW  Elec       q    Type
REMARK                         _______ _______ _______ _____ _____    ______ ____
ROOT
ATOM      1  C   UNL     1       3.879   2.878  18.164  0.00  0.00    +0.000 C 
ATOM      2  C   UNL     1       2.578   2.558  17.409  0.00  0.00    +0.000 C 
ATOM      3  C   UNL     1       1.576   3.715  17.388  0.00  0.00    +0.000 C 
ATOM      4  C   UNL     1       1.402   4.315  18.787  0.00  0.00    +0.000 C 
ATOM      5  N   UNL     1       2.715   4.683  19.338  0.00  0.00    +0.000 N 
ATOM      6  C   UNL     1       3.161   5.937  19.786  0.00  0.00    +0.000 C 
ATOM      7  O   UNL     1       4.220   6.089  20.377  0.00  0.00    +0.000 OA
ATOM      8  C   UNL     1       3.617   3.548  19.508  0.00  0.00    +0.000 C 
ENDROOT
BRANCH   1  15
ATOM      9  C   UNL     1       8.336   5.564  12.086  0.00  0.00    +0.000 C 
ATOM     10  C   UNL     1       7.364   4.999  13.069  0.00  0.00    +0.000 A 
ATOM     11  C   UNL     1       6.296   4.197  12.681  0.00  0.00    +0.000 A 
ATOM     12  C   UNL     1       5.418   3.701  13.646  0.00  0.00    +0.000 A 
ATOM     13  C   UNL     1       5.642   4.014  14.987  0.00  0.00    +0.000 A 
ATOM     14  N   UNL     1       4.762   3.495  15.948  0.00  0.00    +0.000 N 
ATOM     15  C   UNL     1       4.883   3.658  17.312  0.00  0.00    +0.000 C 
ATOM     16  O   UNL     1       5.741   4.321  17.894  0.00  0.00    +0.000 OA
ATOM     17  N   UNL     1       6.671   4.774  15.370  0.00  0.00    +0.000 NA
ATOM     18  C   UNL     1       7.501   5.260  14.425  0.00  0.00    +0.000 A 
ATOM     19  H   UNL     1       3.944   3.028  15.602  0.00  0.00    +0.000 HD
ENDBRANCH   1  15
BRANCH   6  20
ATOM     20  C   UNL     1       2.361   7.155  19.506  0.00  0.00    +0.000 A 
ATOM     21  C   UNL     1       2.357   7.676  18.212  0.00  0.00    +0.000 A 
ATOM     22  C   UNL     1       1.654   8.850  17.939  0.00  0.00    +0.000 A 
ATOM     23  C   UNL     1       0.953   9.517  18.958  0.00  0.00    +0.000 A 
ATOM     24  C   UNL     1       0.270  10.715  18.725  0.00  0.00    +0.000 A 
ATOM     25  C   UNL     1      -0.414  11.359  19.762  0.00  0.00    +0.000 A 
ATOM     26  C   UNL     1      -0.412  10.823  21.046  0.00  0.00    +0.000 A 
ATOM     27  C   UNL     1       0.254   9.628  21.296  0.00  0.00    +0.000 A 
ATOM     28  C   UNL     1       0.923   8.966  20.252  0.00  0.00    +0.000 A 
ATOM     29  C   UNL     1       1.572   7.759  20.489  0.00  0.00    +0.000 A 
ENDBRANCH   6  20
TORSDOF 2
ENDMDL
MODEL 7
REMARK VINA RESULT:      -7.2      9.045     11.205
REMARK  Name = 
REMARK  3 active torsions:
REMARK  status: ('A' for Active; 'I' for Inactive)
REMARK    1  A    between atoms: C_1  and  C_2
REMARK    2  A    between atoms: C_7  and  C_9
REMARK    3  A    between atoms: C_14  and  C_16
REMARK                            x       y       z     vdW  Elec       q    Type
REMARK                         _______ _______ _______ _____ _____    ______ ____
ROOT
ATOM      1  C   UNL     1      10.009  13.296  18.201  0.00  0.00    +0.000 C 
ATOM      2  C   UNL     1      10.294  11.785  18.217  0.00  0.00    +0.000 C 
ATOM      3  C   UNL     1       9.930  11.102  19.538  0.00  0.00    +0.000 C 
ATOM      4  C   UNL     1      10.475  11.893  20.731  0.00  0.00    +0.000 C 
ATOM      5  N   UNL     1      10.028  13.292  20.649  0.00  0.00    +0.000 N 
ATOM      6  C   UNL     1       9.289  14.036  21.583  0.00  0.00    +0.000 C 
ATOM      7  O   UNL     1       9.115  15.241  21.479  0.00  0.00    +0.000 OA
ATOM      8  C   UNL     1      10.510  13.992  19.462  0.00  0.00    +0.000 C 
ENDROOT
BRANCH   1  15
ATOM      9  C   UNL     1       2.721  16.598  18.224  0.00  0.00    +0.000 C 
ATOM     10  C   UNL     1       4.152  16.174  18.293  0.00  0.00    +0.000 A 
ATOM     11  C   UNL     1       5.124  16.934  18.933  0.00  0.00    +0.000 A 
ATOM     12  C   UNL     1       6.445  16.486  18.960  0.00  0.00    +0.000 A 
ATOM     13  C   UNL     1       6.759  15.272  18.350  0.00  0.00    +0.000 A 
ATOM     14  N   UNL     1       8.088  14.825  18.399  0.00  0.00    +0.000 N 
ATOM     15  C   UNL     1       8.544  13.622  17.902  0.00  0.00    +0.000 C 
ATOM     16  O   UNL     1       7.878  12.783  17.298  0.00  0.00    +0.000 OA
ATOM     17  N   UNL     1       5.830  14.529  17.742  0.00  0.00    +0.000 NA
ATOM     18  C   UNL     1       4.561  14.982  17.709  0.00  0.00    +0.000 A 
ATOM     19  H   UNL     1       8.764  15.469  18.763  0.00  0.00    +0.000 HD
ENDBRANCH   1  15
BRANCH   6  20
ATOM     20  C   UNL     1       8.640  13.355  22.732  0.00  0.00    +0.000 A 
ATOM     21  C   UNL     1       7.808  12.263  22.484  0.00  0.00    +0.000 A 
ATOM     22  C   UNL     1       7.147  11.642  23.544  0.00  0.00    +0.000 A 
ATOM     23  C   UNL     1       7.307  12.109  24.860  0.00  0.00    +0.000 A 
ATOM     24  C   UNL     1       6.629  11.531  25.938  0.00  0.00    +0.000 A 
ATOM     25  C   UNL     1       6.805  12.023  27.236  0.00  0.00    +0.000 A 
ATOM     26  C   UNL     1       7.647  13.106  27.471  0.00  0.00    +0.000 A 
ATOM     27  C   UNL     1       8.336  13.689  26.412  0.00  0.00    +0.000 A 
ATOM     28  C   UNL     1       8.180  13.183  25.111  0.00  0.00    +0.000 A 
ATOM     29  C   UNL     1       8.884  13.745  24.051  0.00  0.00    +0.000 A 
ENDBRANCH   6  20
TORSDOF 2
ENDMDL
MODEL 8
REMARK VINA RESULT:      -7.1      4.926      9.118
REMARK  Name = 
REMARK  3 active torsions:
REMARK  status: ('A' for Active; 'I' for Inactive)
REMARK    1  A    between atoms: C_1  and  C_2
REMARK    2  A    between atoms: C_7  and  C_9
REMARK    3  A    between atoms: C_14  and  C_16
REMARK                            x       y       z     vdW  Elec       q    Type
REMARK                         _______ _______ _______ _____ _____    ______ ____
ROOT
ATOM      1  C   UNL     1      -0.113  13.696  19.762  0.00  0.00    +0.000 C 
ATOM      2  C   UNL     1      -1.349  13.175  20.513  0.00  0.00    +0.000 C 
ATOM      3  C   UNL     1      -1.354  11.658  20.718  0.00  0.00    +0.000 C 
ATOM      4  C   UNL     1      -1.011  10.928  19.415  0.00  0.00    +0.000 C 
ATOM      5  N   UNL     1       0.253  11.445  18.871  0.00  0.00    +0.000 N 
ATOM      6  C   UNL     1       1.434  10.746  18.574  0.00  0.00    +0.000 C 
ATOM      7  O   UNL     1       2.369  11.254  17.972  0.00  0.00    +0.000 OA
ATOM      8  C   UNL     1       0.206  12.863  18.525  0.00  0.00    +0.000 C 
ENDROOT
BRANCH   1  15
ATOM      9  C   UNL     1       7.313  14.841  22.512  0.00  0.00    +0.000 C 
ATOM     10  C   UNL     1       5.993  14.735  21.823  0.00  0.00    +0.000 A 
ATOM     11  C   UNL     1       5.826  15.058  20.481  0.00  0.00    +0.000 A 
ATOM     12  C   UNL     1       4.565  14.942  19.893  0.00  0.00    +0.000 A 
ATOM     13  C   UNL     1       3.498  14.490  20.669  0.00  0.00    +0.000 A 
ATOM     14  N   UNL     1       2.240  14.362  20.062  0.00  0.00    +0.000 N 
ATOM     15  C   UNL     1       1.105  13.871  20.673  0.00  0.00    +0.000 C 
ATOM     16  O   UNL     1       1.003  13.521  21.847  0.00  0.00    +0.000 OA
ATOM     17  N   UNL     1       3.650  14.167  21.956  0.00  0.00    +0.000 NA
ATOM     18  C   UNL     1       4.870  14.300  22.515  0.00  0.00    +0.000 A 
ATOM     19  H   UNL     1       2.152  14.725  19.131  0.00  0.00    +0.000 HD
ENDBRANCH   1  15
BRANCH   6  20
ATOM     20  C   UNL     1       1.608   9.346  19.036  0.00  0.00    +0.000 A 
ATOM     21  C   UNL     1       1.203   9.009  20.328  0.00  0.00    +0.000 A 
ATOM     22  C   UNL     1       1.405   7.712  20.801  0.00  0.00    +0.000 A 
ATOM     23  C   UNL     1       2.017   6.742  19.989  0.00  0.00    +0.000 A 
ATOM     24  C   UNL     1       2.267   5.444  20.446  0.00  0.00    +0.000 A 
ATOM     25  C   UNL     1       2.884   4.502  19.616  0.00  0.00    +0.000 A 
ATOM     26  C   UNL     1       3.272   4.848  18.326  0.00  0.00    +0.000 A 
ATOM     27  C   UNL     1       3.025   6.132  17.849  0.00  0.00    +0.000 A 
ATOM     28  C   UNL     1       2.385   7.073  18.672  0.00  0.00    +0.000 A 
ATOM     29  C   UNL     1       2.112   8.351  18.195  0.00  0.00    +0.000 A 
ENDBRANCH   6  20
TORSDOF 2
ENDMDL
MODEL 9
REMARK VINA RESULT:      -7.1      5.014      8.820
REMARK  Name = 
REMARK  3 active torsions:
REMARK  status: ('A' for Active; 'I' for Inactive)
REMARK    1  A    between atoms: C_1  and  C_2
REMARK    2  A    between atoms: C_7  and  C_9
REMARK    3  A    between atoms: C_14  and  C_16
REMARK                            x       y       z     vdW  Elec       q    Type
REMARK                         _______ _______ _______ _____ _____    ______ ____
ROOT
ATOM      1  C   UNL     1       0.856  12.817  18.667  0.00  0.00    +0.000 C 
ATOM      2  C   UNL     1       1.322  13.999  19.533  0.00  0.00    +0.000 C 
ATOM      3  C   UNL     1       0.317  14.408  20.611  0.00  0.00    +0.000 C 
ATOM      4  C   UNL     1      -1.094  14.529  20.027  0.00  0.00    +0.000 C 
ATOM      5  N   UNL     1      -1.454  13.286  19.330  0.00  0.00    +0.000 N 
ATOM      6  C   UNL     1      -2.544  12.431  19.560  0.00  0.00    +0.000 C 
ATOM      7  O   UNL     1      -2.832  11.511  18.809  0.00  0.00    +0.000 OA
ATOM      8  C   UNL     1      -0.586  12.979  18.196  0.00  0.00    +0.000 C 
ENDROOT
BRANCH   1  15
ATOM      9  C   UNL     1       2.373   5.069  19.966  0.00  0.00    +0.000 C 
ATOM     10  C   UNL     1       2.197   6.489  19.537  0.00  0.00    +0.000 A 
ATOM     11  C   UNL     1       2.489   6.918  18.247  0.00  0.00    +0.000 A 
ATOM     12  C   UNL     1       2.308   8.259  17.907  0.00  0.00    +0.000 A 
ATOM     13  C   UNL     1       1.823   9.141  18.874  0.00  0.00    +0.000 A 
ATOM     14  N   UNL     1       1.630  10.483  18.514  0.00  0.00    +0.000 N 
ATOM     15  C   UNL     1       1.101  11.460  19.331  0.00  0.00    +0.000 C 
ATOM     16  O   UNL     1       0.767  11.325  20.507  0.00  0.00    +0.000 OA
ATOM     17  N   UNL     1       1.530   8.736  20.112  0.00  0.00    +0.000 NA
ATOM     18  C   UNL     1       1.726   7.442  20.431  0.00  0.00    +0.000 A 
ATOM     19  H   UNL     1       1.972  10.760  17.613  0.00  0.00    +0.000 HD
ENDBRANCH   1  15
BRANCH   6  20
ATOM     20  C   UNL     1      -3.374  12.595  20.779  0.00  0.00    +0.000 A 
ATOM     21  C   UNL     1      -2.758  12.513  22.029  0.00  0.00    +0.000 A 
ATOM     22  C   UNL     1      -3.528  12.612  23.188  0.00  0.00    +0.000 A 
ATOM     23  C   UNL     1      -4.920  12.788  23.110  0.00  0.00    +0.000 A 
ATOM     24  C   UNL     1      -5.723  12.852  24.253  0.00  0.00    +0.000 A 
ATOM     25  C   UNL     1      -7.108  13.021  24.142  0.00  0.00    +0.000 A 
ATOM     26  C   UNL     1      -7.708  13.113  22.891  0.00  0.00    +0.000 A 
ATOM     27  C   UNL     1      -6.925  13.059  21.742  0.00  0.00    +0.000 A 
ATOM     28  C   UNL     1      -5.532  12.912  21.849  0.00  0.00    +0.000 A 
ATOM     29  C   UNL     1      -4.739  12.881  20.707  0.00  0.00    +0.000 A 
ENDBRANCH   6  20
TORSDOF 2
ENDMDL
