MODEL 1
REMARK VINA RESULT:      -8.8      0.000      0.000
REMARK  Name = 
REMARK  5 active torsions:
REMARK  status: ('A' for Active; 'I' for Inactive)
REMARK    1  A    between atoms: C_2  and  C_3
REMARK    2  A    between atoms: C_3  and  C_4
REMARK    3  A    between atoms: N_11  and  C_12
REMARK    4  A    between atoms: C_16  and  C_17
REMARK    5  A    between atoms: C_20  and  C_21
REMARK                            x       y       z     vdW  Elec       q    Type
REMARK                         _______ _______ _______ _____ _____    ______ ____
ROOT
ATOM      1  C   UNL     1       6.447   6.652  16.921  0.00  0.00    +0.000 A 
ATOM      2  C   UNL     1       7.158   5.649  16.256  0.00  0.00    +0.000 A 
ATOM      3  C   UNL     1       6.597   4.386  16.049  0.00  0.00    +0.000 A 
ATOM      4  C   UNL     1       5.341   4.089  16.562  0.00  0.00    +0.000 A 
ATOM      5  C   UNL     1       4.637   5.048  17.300  0.00  0.00    +0.000 A 
ATOM      6  C   UNL     1       5.182   6.340  17.444  0.00  0.00    +0.000 A 
ENDROOT
BRANCH   5   7
ATOM      7  C   UNL     1       3.379   4.672  17.932  0.00  0.00    +0.000 A 
ATOM      8  N   UNL     1       2.219   4.521  17.275  0.00  0.00    +0.000 NA
ATOM      9  O   UNL     1       1.310   4.201  18.278  0.00  0.00    +0.000 OA
ATOM     10  C   UNL     1       2.009   4.191  19.458  0.00  0.00    +0.000 A 
ATOM     11  N   UNL     1       3.279   4.476  19.293  0.00  0.00    +0.000 NA
BRANCH  10  12
ATOM     12  C   UNL     1       1.354   3.881  20.790  0.00  0.00    +0.000 C 
ATOM     13  C   UNL     1       2.220   3.453  21.960  0.00  0.00    +0.000 C 
ATOM     14  C   UNL     1       1.342   2.450  21.296  0.00  0.00    +0.000 C 
ENDBRANCH  10  12
ENDBRANCH   5   7
BRANCH   1  17
ATOM     15  O   UNL     1       8.607   7.620  18.708  0.00  0.00    +0.000 OA
ATOM     16  C   UNL     1       7.947   8.358  17.978  0.00  0.00    +0.000 C 
ATOM     17  N   UNL     1       6.941   7.970  17.112  0.00  0.00    +0.000 N 
ATOM     18  H   UNL     1       6.508   8.689  16.544  0.00  0.00    +0.000 HD
BRANCH  16  19
ATOM     19  C   UNL     1       8.201   9.855  18.015  0.00  0.00    +0.000 C 
BRANCH  19  20
ATOM     20  C   UNL     1       9.441  10.187  18.848  0.00  0.00    +0.000 C 
ATOM     21  C   UNL     1       9.137  10.604  20.292  0.00  0.00    +0.000 C 
ATOM     22  C   UNL     1      10.227  11.614  20.675  0.00  0.00    +0.000 C 
ATOM     23  C   UNL     1      11.104  11.791  19.437  0.00  0.00    +0.000 C 
ATOM     24  C   UNL     1      10.189  11.388  18.303  0.00  0.00    +0.000 C 
ATOM     25  F   UNL     1      10.862  11.108  17.176  0.00  0.00    +0.000 F 
ATOM     26  F   UNL     1       9.328  12.399  18.031  0.00  0.00    +0.000 F 
ENDBRANCH  19  20
ENDBRANCH  16  19
ENDBRANCH   1  17
TORSDOF 5
ENDMDL
MODEL 2
REMARK VINA RESULT:      -8.8      1.078      1.271
REMARK  Name = 
REMARK  5 active torsions:
REMARK  status: ('A' for Active; 'I' for Inactive)
REMARK    1  A    between atoms: C_2  and  C_3
REMARK    2  A    between atoms: C_3  and  C_4
REMARK    3  A    between atoms: N_11  and  C_12
REMARK    4  A    between atoms: C_16  and  C_17
REMARK    5  A    between atoms: C_20  and  C_21
REMARK                            x       y       z     vdW  Elec       q    Type
REMARK                         _______ _______ _______ _____ _____    ______ ____
ROOT
ATOM      1  C   UNL     1       6.854   6.657  16.921  0.00  0.00    +0.000 A 
ATOM      2  C   UNL     1       7.242   5.866  15.836  0.00  0.00    +0.000 A 
ATOM      3  C   UNL     1       6.732   4.576  15.667  0.00  0.00    +0.000 A 
ATOM      4  C   UNL     1       5.876   4.034  16.618  0.00  0.00    +0.000 A 
ATOM      5  C   UNL     1       5.531   4.773  17.755  0.00  0.00    +0.000 A 
ATOM      6  C   UNL     1       5.996   6.098  17.882  0.00  0.00    +0.000 A 
ENDROOT
BRANCH   5   7
ATOM      7  C   UNL     1       4.733   4.138  18.797  0.00  0.00    +0.000 A 
ATOM      8  N   UNL     1       5.074   3.000  19.421  0.00  0.00    +0.000 NA
ATOM      9  O   UNL     1       4.011   2.769  20.288  0.00  0.00    +0.000 OA
ATOM     10  C   UNL     1       3.118   3.794  20.104  0.00  0.00    +0.000 A 
ATOM     11  N   UNL     1       3.519   4.654  19.199  0.00  0.00    +0.000 NA
BRANCH  10  12
ATOM     12  C   UNL     1       1.818   3.890  20.880  0.00  0.00    +0.000 C 
ATOM     13  C   UNL     1       1.308   2.671  21.625  0.00  0.00    +0.000 C 
ATOM     14  C   UNL     1       0.604   3.121  20.391  0.00  0.00    +0.000 C 
ENDBRANCH  10  12
ENDBRANCH   5   7
BRANCH   1  17
ATOM     15  O   UNL     1       8.737   7.752  18.933  0.00  0.00    +0.000 OA
ATOM     16  C   UNL     1       8.168   8.442  18.089  0.00  0.00    +0.000 C 
ATOM     17  N   UNL     1       7.294   7.993  17.116  0.00  0.00    +0.000 N 
ATOM     18  H   UNL     1       6.927   8.676  16.463  0.00  0.00    +0.000 HD
BRANCH  16  19
ATOM     19  C   UNL     1       8.387   9.945  18.091  0.00  0.00    +0.000 C 
BRANCH  19  20
ATOM     20  C   UNL     1       9.609  10.326  18.930  0.00  0.00    +0.000 C 
ATOM     21  C   UNL     1       9.278  10.797  20.350  0.00  0.00    +0.000 C 
ATOM     22  C   UNL     1      10.349  11.835  20.708  0.00  0.00    +0.000 C 
ATOM     23  C   UNL     1      11.243  11.973  19.479  0.00  0.00    +0.000 C 
ATOM     24  C   UNL     1      10.351  11.513  18.348  0.00  0.00    +0.000 C 
ATOM     25  F   UNL     1      11.045  11.196  17.243  0.00  0.00    +0.000 F 
ATOM     26  F   UNL     1       9.483  12.501  18.022  0.00  0.00    +0.000 F 
ENDBRANCH  19  20
ENDBRANCH  16  19
ENDBRANCH   1  17
TORSDOF 5
ENDMDL
MODEL 3
REMARK VINA RESULT:      -8.2      3.154      8.336
REMARK  Name = 
REMARK  5 active torsions:
REMARK  status: ('A' for Active; 'I' for Inactive)
REMARK    1  A    between atoms: C_2  and  C_3
REMARK    2  A    between atoms: C_3  and  C_4
REMARK    3  A    between atoms: N_11  and  C_12
REMARK    4  A    between atoms: C_16  and  C_17
REMARK    5  A    between atoms: C_20  and  C_21
REMARK                            x       y       z     vdW  Elec       q    Type
REMARK                         _______ _______ _______ _____ _____    ______ ____
ROOT
ATOM      1  C   UNL     1       4.853   4.641  16.627  0.00  0.00    +0.000 A 
ATOM      2  C   UNL     1       5.303   4.298  15.349  0.00  0.00    +0.000 A 
ATOM      3  C   UNL     1       6.518   4.783  14.858  0.00  0.00    +0.000 A 
ATOM      4  C   UNL     1       7.269   5.674  15.614  0.00  0.00    +0.000 A 
ATOM      5  C   UNL     1       6.807   6.097  16.866  0.00  0.00    +0.000 A 
ATOM      6  C   UNL     1       5.616   5.548  17.381  0.00  0.00    +0.000 A 
ENDROOT
BRANCH   5   7
ATOM      7  C   UNL     1       7.551   7.124  17.584  0.00  0.00    +0.000 A 
ATOM      8  N   UNL     1       8.238   6.908  18.717  0.00  0.00    +0.000 NA
ATOM      9  O   UNL     1       8.739   8.163  19.044  0.00  0.00    +0.000 OA
ATOM     10  C   UNL     1       8.305   9.029  18.073  0.00  0.00    +0.000 A 
ATOM     11  N   UNL     1       7.573   8.437  17.161  0.00  0.00    +0.000 NA
BRANCH  10  12
ATOM     12  C   UNL     1       8.651  10.506  18.086  0.00  0.00    +0.000 C 
ATOM     13  C   UNL     1      10.110  10.924  18.078  0.00  0.00    +0.000 C 
ATOM     14  C   UNL     1       9.305  11.104  19.319  0.00  0.00    +0.000 C 
ENDBRANCH  10  12
ENDBRANCH   5   7
BRANCH   1  17
ATOM     15  O   UNL     1       2.458   6.098  17.593  0.00  0.00    +0.000 OA
ATOM     16  C   UNL     1       2.578   4.876  17.647  0.00  0.00    +0.000 C 
ATOM     17  N   UNL     1       3.657   4.136  17.201  0.00  0.00    +0.000 N 
ATOM     18  H   UNL     1       3.599   3.127  17.280  0.00  0.00    +0.000 HD
BRANCH  16  19
ATOM     19  C   UNL     1       1.472   4.052  18.286  0.00  0.00    +0.000 C 
BRANCH  19  20
ATOM     20  C   UNL     1       1.960   3.367  19.565  0.00  0.00    +0.000 C 
ATOM     21  C   UNL     1       0.929   2.437  20.214  0.00  0.00    +0.000 C 
ATOM     22  C   UNL     1       1.188   2.513  21.724  0.00  0.00    +0.000 C 
ATOM     23  C   UNL     1       2.325   3.514  21.916  0.00  0.00    +0.000 C 
ATOM     24  C   UNL     1       2.253   4.365  20.669  0.00  0.00    +0.000 C 
ATOM     25  F   UNL     1       3.384   5.055  20.452  0.00  0.00    +0.000 F 
ATOM     26  F   UNL     1       1.238   5.256  20.783  0.00  0.00    +0.000 F 
ENDBRANCH  19  20
ENDBRANCH  16  19
ENDBRANCH   1  17
TORSDOF 5
ENDMDL
MODEL 4
REMARK VINA RESULT:      -8.1      6.463      8.886
REMARK  Name = 
REMARK  5 active torsions:
REMARK  status: ('A' for Active; 'I' for Inactive)
REMARK    1  A    between atoms: C_2  and  C_3
REMARK    2  A    between atoms: C_3  and  C_4
REMARK    3  A    between atoms: N_11  and  C_12
REMARK    4  A    between atoms: C_16  and  C_17
REMARK    5  A    between atoms: C_20  and  C_21
REMARK                            x       y       z     vdW  Elec       q    Type
REMARK                         _______ _______ _______ _____ _____    ______ ____
ROOT
ATOM      1  C   UNL     1       2.079   8.043  18.938  0.00  0.00    +0.000 A 
ATOM      2  C   UNL     1       2.062   8.921  17.851  0.00  0.00    +0.000 A 
ATOM      3  C   UNL     1       1.578  10.225  17.985  0.00  0.00    +0.000 A 
ATOM      4  C   UNL     1       1.042  10.648  19.195  0.00  0.00    +0.000 A 
ATOM      5  C   UNL     1       0.973   9.767  20.280  0.00  0.00    +0.000 A 
ATOM      6  C   UNL     1       1.526   8.477  20.154  0.00  0.00    +0.000 A 
ENDROOT
BRANCH   5   7
ATOM      7  C   UNL     1       0.294  10.195  21.497  0.00  0.00    +0.000 A 
ATOM      8  N   UNL     1       0.675   9.850  22.736  0.00  0.00    +0.000 NA
ATOM      9  O   UNL     1      -0.275  10.451  23.554  0.00  0.00    +0.000 OA
ATOM     10  C   UNL     1      -1.151  11.108  22.727  0.00  0.00    +0.000 A 
ATOM     11  N   UNL     1      -0.842  10.976  21.460  0.00  0.00    +0.000 NA
BRANCH  10  12
ATOM     12  C   UNL     1      -2.338  11.891  23.256  0.00  0.00    +0.000 C 
ATOM     13  C   UNL     1      -3.081  12.828  22.323  0.00  0.00    +0.000 C 
ATOM     14  C   UNL     1      -2.227  13.398  23.402  0.00  0.00    +0.000 C 
ENDBRANCH  10  12
ENDBRANCH   5   7
BRANCH   1  17
ATOM     15  O   UNL     1       4.301   6.974  17.292  0.00  0.00    +0.000 OA
ATOM     16  C   UNL     1       3.643   6.289  18.072  0.00  0.00    +0.000 C 
ATOM     17  N   UNL     1       2.609   6.727  18.878  0.00  0.00    +0.000 N 
ATOM     18  H   UNL     1       2.180   6.052  19.500  0.00  0.00    +0.000 HD
BRANCH  16  19
ATOM     19  C   UNL     1       3.934   4.801  18.177  0.00  0.00    +0.000 C 
BRANCH  19  20
ATOM     20  C   UNL     1       2.783   4.058  18.859  0.00  0.00    +0.000 C 
ATOM     21  C   UNL     1       3.211   2.809  19.637  0.00  0.00    +0.000 C 
ATOM     22  C   UNL     1       2.040   1.824  19.527  0.00  0.00    +0.000 C 
ATOM     23  C   UNL     1       0.986   2.504  18.656  0.00  0.00    +0.000 C 
ATOM     24  C   UNL     1       1.789   3.504  17.856  0.00  0.00    +0.000 C 
ATOM     25  F   UNL     1       1.021   4.460  17.309  0.00  0.00    +0.000 F 
ATOM     26  F   UNL     1       2.437   2.868  16.850  0.00  0.00    +0.000 F 
ENDBRANCH  19  20
ENDBRANCH  16  19
ENDBRANCH   1  17
TORSDOF 5
ENDMDL
MODEL 5
REMARK VINA RESULT:      -8.1      1.764      2.221
REMARK  Name = 
REMARK  5 active torsions:
REMARK  status: ('A' for Active; 'I' for Inactive)
REMARK    1  A    between atoms: C_2  and  C_3
REMARK    2  A    between atoms: C_3  and  C_4
REMARK    3  A    between atoms: N_11  and  C_12
REMARK    4  A    between atoms: C_16  and  C_17
REMARK    5  A    between atoms: C_20  and  C_21
REMARK                            x       y       z     vdW  Elec       q    Type
REMARK                         _______ _______ _______ _____ _____    ______ ____
ROOT
ATOM      1  C   UNL     1       7.336   6.515  17.853  0.00  0.00    +0.000 A 
ATOM      2  C   UNL     1       7.307   6.334  16.468  0.00  0.00    +0.000 A 
ATOM      3  C   UNL     1       6.410   5.440  15.877  0.00  0.00    +0.000 A 
ATOM      4  C   UNL     1       5.573   4.666  16.671  0.00  0.00    +0.000 A 
ATOM      5  C   UNL     1       5.633   4.769  18.065  0.00  0.00    +0.000 A 
ATOM      6  C   UNL     1       6.493   5.722  18.648  0.00  0.00    +0.000 A 
ENDROOT
BRANCH   5   7
ATOM      7  C   UNL     1       4.835   3.858  18.877  0.00  0.00    +0.000 A 
ATOM      8  N   UNL     1       5.346   2.874  19.632  0.00  0.00    +0.000 NA
ATOM      9  O   UNL     1       4.224   2.263  20.181  0.00  0.00    +0.000 OA
ATOM     10  C   UNL     1       3.130   2.937  19.702  0.00  0.00    +0.000 A 
ATOM     11  N   UNL     1       3.457   3.921  18.898  0.00  0.00    +0.000 NA
BRANCH  10  12
ATOM     12  C   UNL     1       1.710   2.560  20.079  0.00  0.00    +0.000 C 
ATOM     13  C   UNL     1       0.703   3.658  20.363  0.00  0.00    +0.000 C 
ATOM     14  C   UNL     1       1.221   2.833  21.490  0.00  0.00    +0.000 C 
ENDBRANCH  10  12
ENDBRANCH   5   7
BRANCH   1  17
ATOM     15  O   UNL     1       7.524   9.456  17.520  0.00  0.00    +0.000 OA
ATOM     16  C   UNL     1       8.232   8.813  18.292  0.00  0.00    +0.000 C 
ATOM     17  N   UNL     1       8.185   7.448  18.506  0.00  0.00    +0.000 N 
ATOM     18  H   UNL     1       8.810   7.060  19.203  0.00  0.00    +0.000 HD
BRANCH  16  19
ATOM     19  C   UNL     1       9.303   9.537  19.091  0.00  0.00    +0.000 C 
BRANCH  19  20
ATOM     20  C   UNL     1       9.318  11.033  18.769  0.00  0.00    +0.000 C 
ATOM     21  C   UNL     1      10.384  11.447  17.748  0.00  0.00    +0.000 C 
ATOM     22  C   UNL     1      10.811  12.867  18.141  0.00  0.00    +0.000 C 
ATOM     23  C   UNL     1      10.021  13.223  19.398  0.00  0.00    +0.000 C 
ATOM     24  C   UNL     1       9.671  11.873  19.981  0.00  0.00    +0.000 C 
ATOM     25  F   UNL     1       8.668  11.942  20.870  0.00  0.00    +0.000 F 
ATOM     26  F   UNL     1      10.752  11.357  20.616  0.00  0.00    +0.000 F 
ENDBRANCH  19  20
ENDBRANCH  16  19
ENDBRANCH   1  17
TORSDOF 5
ENDMDL
MODEL 6
REMARK VINA RESULT:      -8.1      6.211      8.652
REMARK  Name = 
REMARK  5 active torsions:
REMARK  status: ('A' for Active; 'I' for Inactive)
REMARK    1  A    between atoms: C_2  and  C_3
REMARK    2  A    between atoms: C_3  and  C_4
REMARK    3  A    between atoms: N_11  and  C_12
REMARK    4  A    between atoms: C_16  and  C_17
REMARK    5  A    between atoms: C_20  and  C_21
REMARK                            x       y       z     vdW  Elec       q    Type
REMARK                         _______ _______ _______ _____ _____    ______ ____
ROOT
ATOM      1  C   UNL     1       2.305   7.575  19.062  0.00  0.00    +0.000 A 
ATOM      2  C   UNL     1       2.022   8.254  17.874  0.00  0.00    +0.000 A 
ATOM      3  C   UNL     1       1.333   9.470  17.886  0.00  0.00    +0.000 A 
ATOM      4  C   UNL     1       0.861   9.991  19.084  0.00  0.00    +0.000 A 
ATOM      5  C   UNL     1       1.061   9.295  20.282  0.00  0.00    +0.000 A 
ATOM      6  C   UNL     1       1.816   8.105  20.267  0.00  0.00    +0.000 A 
ENDROOT
BRANCH   5   7
ATOM      7  C   UNL     1       0.449   9.800  21.504  0.00  0.00    +0.000 A 
ATOM      8  N   UNL     1       0.876   9.504  22.741  0.00  0.00    +0.000 NA
ATOM      9  O   UNL     1      -0.020  10.170  23.569  0.00  0.00    +0.000 OA
ATOM     10  C   UNL     1      -0.915  10.811  22.750  0.00  0.00    +0.000 A 
ATOM     11  N   UNL     1      -0.667  10.610  21.478  0.00  0.00    +0.000 NA
BRANCH  10  12
ATOM     12  C   UNL     1      -2.056  11.652  23.291  0.00  0.00    +0.000 C 
ATOM     13  C   UNL     1      -2.819  12.560  22.345  0.00  0.00    +0.000 C 
ATOM     14  C   UNL     1      -1.901  13.160  23.353  0.00  0.00    +0.000 C 
ENDBRANCH  10  12
ENDBRANCH   5   7
BRANCH   1  17
ATOM     15  O   UNL     1       4.238   6.451  17.113  0.00  0.00    +0.000 OA
ATOM     16  C   UNL     1       3.927   5.891  18.163  0.00  0.00    +0.000 C 
ATOM     17  N   UNL     1       3.048   6.366  19.118  0.00  0.00    +0.000 N 
ATOM     18  H   UNL     1       2.917   5.807  19.954  0.00  0.00    +0.000 HD
BRANCH  16  19
ATOM     19  C   UNL     1       4.514   4.524  18.474  0.00  0.00    +0.000 C 
BRANCH  19  20
ATOM     20  C   UNL     1       3.475   3.418  18.282  0.00  0.00    +0.000 C 
ATOM     21  C   UNL     1       2.092   3.919  17.853  0.00  0.00    +0.000 C 
ATOM     22  C   UNL     1       1.081   2.948  18.478  0.00  0.00    +0.000 C 
ATOM     23  C   UNL     1       1.895   1.941  19.286  0.00  0.00    +0.000 C 
ATOM     24  C   UNL     1       3.179   2.684  19.576  0.00  0.00    +0.000 C 
ATOM     25  F   UNL     1       4.176   1.863  19.943  0.00  0.00    +0.000 F 
ATOM     26  F   UNL     1       2.976   3.566  20.585  0.00  0.00    +0.000 F 
ENDBRANCH  19  20
ENDBRANCH  16  19
ENDBRANCH   1  17
TORSDOF 5
ENDMDL
MODEL 7
REMARK VINA RESULT:      -8.0      5.147      8.598
REMARK  Name = 
REMARK  5 active torsions:
REMARK  status: ('A' for Active; 'I' for Inactive)
REMARK    1  A    between atoms: C_2  and  C_3
REMARK    2  A    between atoms: C_3  and  C_4
REMARK    3  A    between atoms: N_11  and  C_12
REMARK    4  A    between atoms: C_16  and  C_17
REMARK    5  A    between atoms: C_20  and  C_21
REMARK                            x       y       z     vdW  Elec       q    Type
REMARK                         _______ _______ _______ _____ _____    ______ ____
ROOT
ATOM      1  C   UNL     1       4.770   4.769  17.665  0.00  0.00    +0.000 A 
ATOM      2  C   UNL     1       5.795   4.892  18.606  0.00  0.00    +0.000 A 
ATOM      3  C   UNL     1       7.126   5.040  18.206  0.00  0.00    +0.000 A 
ATOM      4  C   UNL     1       7.457   5.002  16.858  0.00  0.00    +0.000 A 
ATOM      5  C   UNL     1       6.461   4.802  15.895  0.00  0.00    +0.000 A 
ATOM      6  C   UNL     1       5.115   4.722  16.304  0.00  0.00    +0.000 A 
ENDROOT
BRANCH   5   7
ATOM      7  C   UNL     1       6.849   4.642  14.499  0.00  0.00    +0.000 A 
ATOM      8  N   UNL     1       7.749   5.414  13.871  0.00  0.00    +0.000 NA
ATOM      9  O   UNL     1       7.760   4.918  12.572  0.00  0.00    +0.000 OA
ATOM     10  C   UNL     1       6.858   3.886  12.533  0.00  0.00    +0.000 A 
ATOM     11  N   UNL     1       6.275   3.683  13.690  0.00  0.00    +0.000 NA
BRANCH  10  12
ATOM     12  C   UNL     1       6.587   3.088  11.272  0.00  0.00    +0.000 C 
ATOM     13  C   UNL     1       5.848   1.767  11.376  0.00  0.00    +0.000 C 
ATOM     14  C   UNL     1       7.305   1.766  11.062  0.00  0.00    +0.000 C 
ENDBRANCH  10  12
ENDBRANCH   5   7
BRANCH   1  17
ATOM     15  O   UNL     1       2.965   6.809  18.838  0.00  0.00    +0.000 OA
ATOM     16  C   UNL     1       2.611   5.663  18.569  0.00  0.00    +0.000 C 
ATOM     17  N   UNL     1       3.395   4.672  18.008  0.00  0.00    +0.000 N 
ATOM     18  H   UNL     1       2.954   3.781  17.809  0.00  0.00    +0.000 HD
BRANCH  16  19
ATOM     19  C   UNL     1       1.191   5.231  18.894  0.00  0.00    +0.000 C 
BRANCH  19  20
ATOM     20  C   UNL     1       1.130   4.487  20.230  0.00  0.00    +0.000 C 
ATOM     21  C   UNL     1       2.374   4.664  21.108  0.00  0.00    +0.000 C 
ATOM     22  C   UNL     1       2.530   3.350  21.884  0.00  0.00    +0.000 C 
ATOM     23  C   UNL     1       1.407   2.432  21.407  0.00  0.00    +0.000 C 
ATOM     24  C   UNL     1       1.064   2.984  20.042  0.00  0.00    +0.000 C 
ATOM     25  F   UNL     1      -0.137   2.571  19.608  0.00  0.00    +0.000 F 
ATOM     26  F   UNL     1       1.992   2.578  19.141  0.00  0.00    +0.000 F 
ENDBRANCH  19  20
ENDBRANCH  16  19
ENDBRANCH   1  17
TORSDOF 5
ENDMDL
MODEL 8
REMARK VINA RESULT:      -8.0      3.424      4.745
REMARK  Name = 
REMARK  5 active torsions:
REMARK  status: ('A' for Active; 'I' for Inactive)
REMARK    1  A    between atoms: C_2  and  C_3
REMARK    2  A    between atoms: C_3  and  C_4
REMARK    3  A    between atoms: N_11  and  C_12
REMARK    4  A    between atoms: C_16  and  C_17
REMARK    5  A    between atoms: C_20  and  C_21
REMARK                            x       y       z     vdW  Elec       q    Type
REMARK                         _______ _______ _______ _____ _____    ______ ____
ROOT
ATOM      1  C   UNL     1       7.910   7.832  17.794  0.00  0.00    +0.000 A 
ATOM      2  C   UNL     1       8.185   7.145  18.980  0.00  0.00    +0.000 A 
ATOM      3  C   UNL     1       8.003   5.762  19.070  0.00  0.00    +0.000 A 
ATOM      4  C   UNL     1       7.480   5.057  17.994  0.00  0.00    +0.000 A 
ATOM      5  C   UNL     1       7.122   5.729  16.819  0.00  0.00    +0.000 A 
ATOM      6  C   UNL     1       7.374   7.112  16.715  0.00  0.00    +0.000 A 
ENDROOT
BRANCH   5   7
ATOM      7  C   UNL     1       6.462   4.987  15.753  0.00  0.00    +0.000 A 
ATOM      8  N   UNL     1       5.370   4.226  15.925  0.00  0.00    +0.000 NA
ATOM      9  O   UNL     1       5.132   3.699  14.660  0.00  0.00    +0.000 OA
ATOM     10  C   UNL     1       6.110   4.191  13.835  0.00  0.00    +0.000 A 
ATOM     11  N   UNL     1       6.947   4.982  14.461  0.00  0.00    +0.000 NA
BRANCH  10  12
ATOM     12  C   UNL     1       6.186   3.837  12.362  0.00  0.00    +0.000 C 
ATOM     13  C   UNL     1       4.988   3.190  11.693  0.00  0.00    +0.000 C 
ATOM     14  C   UNL     1       6.210   2.376  11.950  0.00  0.00    +0.000 C 
ENDBRANCH  10  12
ENDBRANCH   5   7
BRANCH   1  17
ATOM     15  O   UNL     1       9.417   9.732  19.502  0.00  0.00    +0.000 OA
ATOM     16  C   UNL     1       8.832  10.061  18.472  0.00  0.00    +0.000 C 
ATOM     17  N   UNL     1       8.127   9.225  17.625  0.00  0.00    +0.000 N 
ATOM     18  H   UNL     1       7.726   9.634  16.789  0.00  0.00    +0.000 HD
BRANCH  16  19
ATOM     19  C   UNL     1       8.825  11.523  18.059  0.00  0.00    +0.000 C 
BRANCH  19  20
ATOM     20  C   UNL     1       9.898  12.315  18.809  0.00  0.00    +0.000 C 
ATOM     21  C   UNL     1       9.488  13.748  19.169  0.00  0.00    +0.000 C 
ATOM     22  C   UNL     1      10.778  14.578  19.120  0.00  0.00    +0.000 C 
ATOM     23  C   UNL     1      11.889  13.622  18.692  0.00  0.00    +0.000 C 
ATOM     24  C   UNL     1      11.143  12.524  17.969  0.00  0.00    +0.000 C 
ATOM     25  F   UNL     1      11.873  11.405  17.842  0.00  0.00    +0.000 F 
ATOM     26  F   UNL     1      10.810  12.944  16.724  0.00  0.00    +0.000 F 
ENDBRANCH  19  20
ENDBRANCH  16  19
ENDBRANCH   1  17
TORSDOF 5
ENDMDL
MODEL 9
REMARK VINA RESULT:      -7.9      5.852      8.637
REMARK  Name = 
REMARK  5 active torsions:
REMARK  status: ('A' for Active; 'I' for Inactive)
REMARK    1  A    between atoms: C_2  and  C_3
REMARK    2  A    between atoms: C_3  and  C_4
REMARK    3  A    between atoms: N_11  and  C_12
REMARK    4  A    between atoms: C_16  and  C_17
REMARK    5  A    between atoms: C_20  and  C_21
REMARK                            x       y       z     vdW  Elec       q    Type
REMARK                         _______ _______ _______ _____ _____    ______ ____
ROOT
ATOM      1  C   UNL     1       2.307   7.212  18.624  0.00  0.00    +0.000 A 
ATOM      2  C   UNL     1       2.250   8.078  17.529  0.00  0.00    +0.000 A 
ATOM      3  C   UNL     1       1.847   9.408  17.682  0.00  0.00    +0.000 A 
ATOM      4  C   UNL     1       1.431   9.871  18.923  0.00  0.00    +0.000 A 
ATOM      5  C   UNL     1       1.403   9.006  20.024  0.00  0.00    +0.000 A 
ATOM      6  C   UNL     1       1.876   7.688  19.873  0.00  0.00    +0.000 A 
ENDROOT
BRANCH   5   7
ATOM      7  C   UNL     1       0.846   9.483  21.284  0.00  0.00    +0.000 A 
ATOM      8  N   UNL     1       1.333   9.165  22.493  0.00  0.00    +0.000 NA
ATOM      9  O   UNL     1       0.473   9.808  23.375  0.00  0.00    +0.000 OA
ATOM     10  C   UNL     1      -0.463  10.459  22.613  0.00  0.00    +0.000 A 
ATOM     11  N   UNL     1      -0.274  10.286  21.327  0.00  0.00    +0.000 NA
BRANCH  10  12
ATOM     12  C   UNL     1      -1.583  11.281  23.223  0.00  0.00    +0.000 C 
ATOM     13  C   UNL     1      -2.420  12.174  22.326  0.00  0.00    +0.000 C 
ATOM     14  C   UNL     1      -1.451  12.793  23.274  0.00  0.00    +0.000 C 
ENDBRANCH  10  12
ENDBRANCH   5   7
BRANCH   1  17
ATOM     15  O   UNL     1       1.058   4.873  17.296  0.00  0.00    +0.000 OA
ATOM     16  C   UNL     1       2.119   4.817  17.915  0.00  0.00    +0.000 C 
ATOM     17  N   UNL     1       2.761   5.869  18.541  0.00  0.00    +0.000 N 
ATOM     18  H   UNL     1       3.652   5.678  18.985  0.00  0.00    +0.000 HD
BRANCH  16  19
ATOM     19  C   UNL     1       2.819   3.477  18.064  0.00  0.00    +0.000 C 
BRANCH  19  20
ATOM     20  C   UNL     1       2.340   2.737  19.315  0.00  0.00    +0.000 C 
ATOM     21  C   UNL     1       1.098   3.348  19.972  0.00  0.00    +0.000 C 
ATOM     22  C   UNL     1       1.247   3.085  21.477  0.00  0.00    +0.000 C 
ATOM     23  C   UNL     1       2.585   2.373  21.659  0.00  0.00    +0.000 C 
ATOM     24  C   UNL     1       3.366   2.782  20.431  0.00  0.00    +0.000 C 
ATOM     25  F   UNL     1       4.416   1.978  20.199  0.00  0.00    +0.000 F 
ATOM     26  F   UNL     1       3.837   4.043  20.590  0.00  0.00    +0.000 F 
ENDBRANCH  19  20
ENDBRANCH  16  19
ENDBRANCH   1  17
TORSDOF 5
ENDMDL
