MODEL 1
REMARK VINA RESULT:      -8.6      0.000      0.000
REMARK  Name = 
REMARK  7 active torsions:
REMARK  status: ('A' for Active; 'I' for Inactive)
REMARK    1  A    between atoms: C_1  and  C_2
REMARK    2  A    between atoms: C_7  and  N_8
REMARK    3  A    between atoms: C_9  and  C_11
REMARK    4  A    between atoms: N_13  and  C_14
REMARK    5  A    between atoms: C_14  and  C_15
REMARK    6  A    between atoms: C_15  and  C_16
REMARK    7  A    between atoms: C_15  and  C_17
REMARK                            x       y       z     vdW  Elec       q    Type
REMARK                         _______ _______ _______ _____ _____    ______ ____
ROOT
ATOM      1  C   UNL     1       3.234   6.577  17.854  0.00  0.00    +0.000 A 
ATOM      2  N   UNL     1       4.401   6.998  17.463  0.00  0.00    +0.000 NA
ATOM      3  N   UNL     1       5.337   6.068  17.050  0.00  0.00    +0.000 N 
ATOM      4  C   UNL     1       5.121   4.690  17.049  0.00  0.00    +0.000 A 
ATOM      5  O   UNL     1       5.971   3.855  16.738  0.00  0.00    +0.000 OA
ATOM      6  C   UNL     1       3.786   4.227  17.459  0.00  0.00    +0.000 A 
ATOM      7  C   UNL     1       3.508   2.853  17.525  0.00  0.00    +0.000 A 
ATOM      8  C   UNL     1       2.252   2.412  17.937  0.00  0.00    +0.000 A 
ATOM      9  C   UNL     1       1.261   3.340  18.242  0.00  0.00    +0.000 A 
ATOM     10  C   UNL     1       1.535   4.709  18.160  0.00  0.00    +0.000 A 
ATOM     11  C   UNL     1       2.816   5.157  17.810  0.00  0.00    +0.000 A 
ENDROOT
BRANCH   1  13
ATOM     12  N   UNL     1       1.894   8.633  17.658  0.00  0.00    +0.000 N 
ATOM     13  C   UNL     1       2.312   7.610  18.494  0.00  0.00    +0.000 C 
ATOM     14  O   UNL     1       2.086   7.513  19.694  0.00  0.00    +0.000 OA
ATOM     15  H   UNL     1       2.387   8.709  16.773  0.00  0.00    +0.000 HD
BRANCH  12  22
ATOM     16  C   UNL     1      -0.927  15.036  20.589  0.00  0.00    +0.000 C 
ATOM     17  C   UNL     1      -0.493  13.755  19.971  0.00  0.00    +0.000 A 
ATOM     18  N   UNL     1      -1.323  12.856  19.488  0.00  0.00    +0.000 NA
ATOM     19  C   UNL     1      -0.613  11.784  18.987  0.00  0.00    +0.000 A 
ATOM     20  C   UNL     1      -1.179  10.640  18.400  0.00  0.00    +0.000 A 
ATOM     21  C   UNL     1      -0.345   9.615  17.947  0.00  0.00    +0.000 A 
ATOM     22  C   UNL     1       1.046   9.692  18.065  0.00  0.00    +0.000 A 
ATOM     23  C   UNL     1       1.628  10.849  18.606  0.00  0.00    +0.000 A 
ATOM     24  C   UNL     1       0.776  11.873  19.078  0.00  0.00    +0.000 A 
ATOM     25  S   UNL     1       1.176  13.370  19.840  0.00  0.00    +0.000 S 
ENDBRANCH  12  22
ENDBRANCH   1  13
BRANCH   3  26
ATOM     26  C   UNL     1       6.692   6.573  16.828  0.00  0.00    +0.000 C 
BRANCH  26  27
ATOM     27  C   UNL     1       7.301   7.233  18.080  0.00  0.00    +0.000 C 
ATOM     28  C   UNL     1       8.118   6.252  18.927  0.00  0.00    +0.000 C 
ATOM     29  C   UNL     1       8.180   8.416  17.673  0.00  0.00    +0.000 C 
ENDBRANCH  26  27
ENDBRANCH   3  26
TORSDOF 4
ENDMDL
MODEL 2
REMARK VINA RESULT:      -8.6      1.933      1.977
REMARK  Name = 
REMARK  7 active torsions:
REMARK  status: ('A' for Active; 'I' for Inactive)
REMARK    1  A    between atoms: C_1  and  C_2
REMARK    2  A    between atoms: C_7  and  N_8
REMARK    3  A    between atoms: C_9  and  C_11
REMARK    4  A    between atoms: N_13  and  C_14
REMARK    5  A    between atoms: C_14  and  C_15
REMARK    6  A    between atoms: C_15  and  C_16
REMARK    7  A    between atoms: C_15  and  C_17
REMARK                            x       y       z     vdW  Elec       q    Type
REMARK                         _______ _______ _______ _____ _____    ______ ____
ROOT
ATOM      1  C   UNL     1       3.160   6.633  17.829  0.00  0.00    +0.000 A 
ATOM      2  N   UNL     1       4.315   7.083  17.436  0.00  0.00    +0.000 NA
ATOM      3  N   UNL     1       5.282   6.176  17.048  0.00  0.00    +0.000 N 
ATOM      4  C   UNL     1       5.110   4.791  17.074  0.00  0.00    +0.000 A 
ATOM      5  O   UNL     1       5.988   3.978  16.785  0.00  0.00    +0.000 OA
ATOM      6  C   UNL     1       3.788   4.295  17.487  0.00  0.00    +0.000 A 
ATOM      7  C   UNL     1       3.553   2.914  17.580  0.00  0.00    +0.000 A 
ATOM      8  C   UNL     1       2.309   2.442  17.995  0.00  0.00    +0.000 A 
ATOM      9  C   UNL     1       1.288   3.345  18.275  0.00  0.00    +0.000 A 
ATOM     10  C   UNL     1       1.518   4.719  18.166  0.00  0.00    +0.000 A 
ATOM     11  C   UNL     1       2.787   5.201  17.814  0.00  0.00    +0.000 A 
ENDROOT
BRANCH   1  13
ATOM     12  N   UNL     1       2.110   7.623  19.824  0.00  0.00    +0.000 N 
ATOM     13  C   UNL     1       2.201   7.650  18.442  0.00  0.00    +0.000 C 
ATOM     14  O   UNL     1       1.531   8.339  17.683  0.00  0.00    +0.000 OA
ATOM     15  H   UNL     1       2.528   6.816  20.278  0.00  0.00    +0.000 HD
BRANCH  12  22
ATOM     16  C   UNL     1      -1.322  13.632  22.933  0.00  0.00    +0.000 C 
ATOM     17  C   UNL     1      -0.732  12.379  22.390  0.00  0.00    +0.000 A 
ATOM     18  N   UNL     1      -1.018  11.178  22.843  0.00  0.00    +0.000 NA
ATOM     19  C   UNL     1      -0.309  10.230  22.135  0.00  0.00    +0.000 A 
ATOM     20  C   UNL     1      -0.367   8.843  22.355  0.00  0.00    +0.000 A 
ATOM     21  C   UNL     1       0.419   7.989  21.576  0.00  0.00    +0.000 A 
ATOM     22  C   UNL     1       1.270   8.477  20.580  0.00  0.00    +0.000 A 
ATOM     23  C   UNL     1       1.303   9.855  20.317  0.00  0.00    +0.000 A 
ATOM     24  C   UNL     1       0.519  10.713  21.121  0.00  0.00    +0.000 A 
ATOM     25  S   UNL     1       0.389  12.435  21.089  0.00  0.00    +0.000 S 
ENDBRANCH  12  22
ENDBRANCH   1  13
BRANCH   3  26
ATOM     26  C   UNL     1       6.622   6.718  16.822  0.00  0.00    +0.000 C 
BRANCH  26  27
ATOM     27  C   UNL     1       7.265   7.284  18.103  0.00  0.00    +0.000 C 
ATOM     28  C   UNL     1       8.065   6.230  18.877  0.00  0.00    +0.000 C 
ATOM     29  C   UNL     1       8.172   8.465  17.756  0.00  0.00    +0.000 C 
ENDBRANCH  26  27
ENDBRANCH   3  26
TORSDOF 4
ENDMDL
MODEL 3
REMARK VINA RESULT:      -8.5      1.977      2.002
REMARK  Name = 
REMARK  7 active torsions:
REMARK  status: ('A' for Active; 'I' for Inactive)
REMARK    1  A    between atoms: C_1  and  C_2
REMARK    2  A    between atoms: C_7  and  N_8
REMARK    3  A    between atoms: C_9  and  C_11
REMARK    4  A    between atoms: N_13  and  C_14
REMARK    5  A    between atoms: C_14  and  C_15
REMARK    6  A    between atoms: C_15  and  C_16
REMARK    7  A    between atoms: C_15  and  C_17
REMARK                            x       y       z     vdW  Elec       q    Type
REMARK                         _______ _______ _______ _____ _____    ______ ____
ROOT
ATOM      1  C   UNL     1       2.766   6.050  18.766  0.00  0.00    +0.000 A 
ATOM      2  N   UNL     1       3.740   6.664  18.160  0.00  0.00    +0.000 NA
ATOM      3  N   UNL     1       4.533   5.946  17.285  0.00  0.00    +0.000 N 
ATOM      4  C   UNL     1       4.375   4.585  17.025  0.00  0.00    +0.000 A 
ATOM      5  O   UNL     1       5.116   3.929  16.291  0.00  0.00    +0.000 OA
ATOM      6  C   UNL     1       3.250   3.909  17.688  0.00  0.00    +0.000 A 
ATOM      7  C   UNL     1       3.053   2.530  17.509  0.00  0.00    +0.000 A 
ATOM      8  C   UNL     1       2.003   1.883  18.156  0.00  0.00    +0.000 A 
ATOM      9  C   UNL     1       1.124   2.617  18.947  0.00  0.00    +0.000 A 
ATOM     10  C   UNL     1       1.311   3.993  19.111  0.00  0.00    +0.000 A 
ATOM     11  C   UNL     1       2.405   4.636  18.516  0.00  0.00    +0.000 A 
ENDROOT
BRANCH   1  13
ATOM     12  N   UNL     1       1.676   8.115  19.546  0.00  0.00    +0.000 N 
ATOM     13  C   UNL     1       2.052   6.822  19.871  0.00  0.00    +0.000 C 
ATOM     14  O   UNL     1       1.946   6.288  20.969  0.00  0.00    +0.000 OA
ATOM     15  H   UNL     1       2.076   8.489  18.691  0.00  0.00    +0.000 HD
BRANCH  12  22
ATOM     16  C   UNL     1      -1.137  14.221  23.061  0.00  0.00    +0.000 C 
ATOM     17  C   UNL     1      -0.646  12.952  22.461  0.00  0.00    +0.000 A 
ATOM     18  N   UNL     1      -0.760  11.776  23.039  0.00  0.00    +0.000 NA
ATOM     19  C   UNL     1      -0.207  10.803  22.233  0.00  0.00    +0.000 A 
ATOM     20  C   UNL     1      -0.148   9.432  22.540  0.00  0.00    +0.000 A 
ATOM     21  C   UNL     1       0.456   8.551  21.640  0.00  0.00    +0.000 A 
ATOM     22  C   UNL     1       1.013   8.994  20.437  0.00  0.00    +0.000 A 
ATOM     23  C   UNL     1       0.921  10.353  20.095  0.00  0.00    +0.000 A 
ATOM     24  C   UNL     1       0.323  11.240  21.019  0.00  0.00    +0.000 A 
ATOM     25  S   UNL     1       0.115  12.952  20.921  0.00  0.00    +0.000 S 
ENDBRANCH  12  22
ENDBRANCH   1  13
BRANCH   3  26
ATOM     26  C   UNL     1       5.735   6.625  16.799  0.00  0.00    +0.000 C 
BRANCH  26  27
ATOM     27  C   UNL     1       6.784   6.855  17.905  0.00  0.00    +0.000 C 
ATOM     28  C   UNL     1       7.611   5.601  18.204  0.00  0.00    +0.000 C 
ATOM     29  C   UNL     1       7.715   8.003  17.512  0.00  0.00    +0.000 C 
ENDBRANCH  26  27
ENDBRANCH   3  26
TORSDOF 4
ENDMDL
MODEL 4
REMARK VINA RESULT:      -8.5      1.608      1.637
REMARK  Name = 
REMARK  7 active torsions:
REMARK  status: ('A' for Active; 'I' for Inactive)
REMARK    1  A    between atoms: C_1  and  C_2
REMARK    2  A    between atoms: C_7  and  N_8
REMARK    3  A    between atoms: C_9  and  C_11
REMARK    4  A    between atoms: N_13  and  C_14
REMARK    5  A    between atoms: C_14  and  C_15
REMARK    6  A    between atoms: C_15  and  C_16
REMARK    7  A    between atoms: C_15  and  C_17
REMARK                            x       y       z     vdW  Elec       q    Type
REMARK                         _______ _______ _______ _____ _____    ______ ____
ROOT
ATOM      1  C   UNL     1       3.150   6.312  18.207  0.00  0.00    +0.000 A 
ATOM      2  N   UNL     1       4.253   6.826  17.747  0.00  0.00    +0.000 NA
ATOM      3  N   UNL     1       5.163   5.993  17.126  0.00  0.00    +0.000 N 
ATOM      4  C   UNL     1       4.990   4.616  16.980  0.00  0.00    +0.000 A 
ATOM      5  O   UNL     1       5.824   3.861  16.479  0.00  0.00    +0.000 OA
ATOM      6  C   UNL     1       3.724   4.052  17.471  0.00  0.00    +0.000 A 
ATOM      7  C   UNL     1       3.496   2.668  17.399  0.00  0.00    +0.000 A 
ATOM      8  C   UNL     1       2.308   2.128  17.888  0.00  0.00    +0.000 A 
ATOM      9  C   UNL     1       1.331   2.971  18.408  0.00  0.00    +0.000 A 
ATOM     10  C   UNL     1       1.552   4.350  18.465  0.00  0.00    +0.000 A 
ATOM     11  C   UNL     1       2.772   4.891  18.037  0.00  0.00    +0.000 A 
ENDROOT
BRANCH   1  13
ATOM     12  N   UNL     1       1.859   8.395  18.453  0.00  0.00    +0.000 N 
ATOM     13  C   UNL     1       2.275   7.222  19.064  0.00  0.00    +0.000 C 
ATOM     14  O   UNL     1       2.083   6.902  20.230  0.00  0.00    +0.000 OA
ATOM     15  H   UNL     1       2.327   8.628  17.583  0.00  0.00    +0.000 HD
BRANCH  12  22
ATOM     16  C   UNL     1      -2.294  12.377  23.396  0.00  0.00    +0.000 C 
ATOM     17  C   UNL     1      -1.499  11.693  22.342  0.00  0.00    +0.000 A 
ATOM     18  N   UNL     1      -1.459  12.081  21.086  0.00  0.00    +0.000 NA
ATOM     19  C   UNL     1      -0.638  11.241  20.362  0.00  0.00    +0.000 A 
ATOM     20  C   UNL     1      -0.369  11.356  18.988  0.00  0.00    +0.000 A 
ATOM     21  C   UNL     1       0.470  10.425  18.370  0.00  0.00    +0.000 A 
ATOM     22  C   UNL     1       1.052   9.373  19.083  0.00  0.00    +0.000 A 
ATOM     23  C   UNL     1       0.830   9.272  20.466  0.00  0.00    +0.000 A 
ATOM     24  C   UNL     1      -0.034  10.207  21.079  0.00  0.00    +0.000 A 
ATOM     25  S   UNL     1      -0.549  10.313  22.724  0.00  0.00    +0.000 S 
ENDBRANCH  12  22
ENDBRANCH   1  13
BRANCH   3  26
ATOM     26  C   UNL     1       6.470   6.578  16.822  0.00  0.00    +0.000 C 
BRANCH  26  27
ATOM     27  C   UNL     1       7.168   7.168  18.063  0.00  0.00    +0.000 C 
ATOM     28  C   UNL     1       7.985   6.125  18.832  0.00  0.00    +0.000 C 
ATOM     29  C   UNL     1       8.074   8.329  17.651  0.00  0.00    +0.000 C 
ENDBRANCH  26  27
ENDBRANCH   3  26
TORSDOF 4
ENDMDL
MODEL 5
REMARK VINA RESULT:      -8.3      1.406      1.435
REMARK  Name = 
REMARK  7 active torsions:
REMARK  status: ('A' for Active; 'I' for Inactive)
REMARK    1  A    between atoms: C_1  and  C_2
REMARK    2  A    between atoms: C_7  and  N_8
REMARK    3  A    between atoms: C_9  and  C_11
REMARK    4  A    between atoms: N_13  and  C_14
REMARK    5  A    between atoms: C_14  and  C_15
REMARK    6  A    between atoms: C_15  and  C_16
REMARK    7  A    between atoms: C_15  and  C_17
REMARK                            x       y       z     vdW  Elec       q    Type
REMARK                         _______ _______ _______ _____ _____    ______ ____
ROOT
ATOM      1  C   UNL     1       2.929   6.430  18.954  0.00  0.00    +0.000 A 
ATOM      2  N   UNL     1       3.995   6.602  18.230  0.00  0.00    +0.000 NA
ATOM      3  N   UNL     1       4.866   5.541  18.071  0.00  0.00    +0.000 N 
ATOM      4  C   UNL     1       4.691   4.290  18.665  0.00  0.00    +0.000 A 
ATOM      5  O   UNL     1       5.494   3.361  18.574  0.00  0.00    +0.000 OA
ATOM      6  C   UNL     1       3.464   4.096  19.452  0.00  0.00    +0.000 A 
ATOM      7  C   UNL     1       3.239   2.879  20.115  0.00  0.00    +0.000 A 
ATOM      8  C   UNL     1       2.089   2.703  20.883  0.00  0.00    +0.000 A 
ATOM      9  C   UNL     1       1.145   3.722  20.954  0.00  0.00    +0.000 A 
ATOM     10  C   UNL     1       1.362   4.927  20.280  0.00  0.00    +0.000 A 
ATOM     11  C   UNL     1       2.548   5.135  19.561  0.00  0.00    +0.000 A 
ENDROOT
BRANCH   1  13
ATOM     12  N   UNL     1       1.850   8.510  18.195  0.00  0.00    +0.000 N 
ATOM     13  C   UNL     1       2.108   7.676  19.272  0.00  0.00    +0.000 C 
ATOM     14  O   UNL     1       1.820   7.892  20.443  0.00  0.00    +0.000 OA
ATOM     15  H   UNL     1       2.386   8.321  17.354  0.00  0.00    +0.000 HD
BRANCH  12  22
ATOM     16  C   UNL     1      -0.268  15.731  19.149  0.00  0.00    +0.000 C 
ATOM     17  C   UNL     1       0.024  14.290  18.930  0.00  0.00    +0.000 A 
ATOM     18  N   UNL     1      -0.902  13.373  18.752  0.00  0.00    +0.000 NA
ATOM     19  C   UNL     1      -0.311  12.138  18.579  0.00  0.00    +0.000 A 
ATOM     20  C   UNL     1      -1.001  10.931  18.369  0.00  0.00    +0.000 A 
ATOM     21  C   UNL     1      -0.280   9.743  18.224  0.00  0.00    +0.000 A 
ATOM     22  C   UNL     1       1.117   9.717  18.286  0.00  0.00    +0.000 A 
ATOM     23  C   UNL     1       1.821  10.921  18.448  0.00  0.00    +0.000 A 
ATOM     24  C   UNL     1       1.083  12.116  18.611  0.00  0.00    +0.000 A 
ATOM     25  S   UNL     1       1.646  13.725  18.886  0.00  0.00    +0.000 S 
ENDBRANCH  12  22
ENDBRANCH   1  13
BRANCH   3  26
ATOM     26  C   UNL     1       6.146   5.848  17.431  0.00  0.00    +0.000 C 
BRANCH  26  27
ATOM     27  C   UNL     1       7.084   6.676  18.331  0.00  0.00    +0.000 C 
ATOM     28  C   UNL     1       8.110   5.810  19.069  0.00  0.00    +0.000 C 
ATOM     29  C   UNL     1       7.809   7.733  17.497  0.00  0.00    +0.000 C 
ENDBRANCH  26  27
ENDBRANCH   3  26
TORSDOF 4
ENDMDL
MODEL 6
REMARK VINA RESULT:      -8.2      2.487      2.643
REMARK  Name = 
REMARK  7 active torsions:
REMARK  status: ('A' for Active; 'I' for Inactive)
REMARK    1  A    between atoms: C_1  and  C_2
REMARK    2  A    between atoms: C_7  and  N_8
REMARK    3  A    between atoms: C_9  and  C_11
REMARK    4  A    between atoms: N_13  and  C_14
REMARK    5  A    between atoms: C_14  and  C_15
REMARK    6  A    between atoms: C_15  and  C_16
REMARK    7  A    between atoms: C_15  and  C_17
REMARK                            x       y       z     vdW  Elec       q    Type
REMARK                         _______ _______ _______ _____ _____    ______ ____
ROOT
ATOM      1  C   UNL     1       2.965   6.292  19.459  0.00  0.00    +0.000 A 
ATOM      2  N   UNL     1       4.175   6.501  19.032  0.00  0.00    +0.000 NA
ATOM      3  N   UNL     1       5.047   5.432  18.963  0.00  0.00    +0.000 N 
ATOM      4  C   UNL     1       4.722   4.131  19.350  0.00  0.00    +0.000 A 
ATOM      5  O   UNL     1       5.513   3.188  19.346  0.00  0.00    +0.000 OA
ATOM      6  C   UNL     1       3.340   3.900  19.798  0.00  0.00    +0.000 A 
ATOM      7  C   UNL     1       2.950   2.627  20.245  0.00  0.00    +0.000 A 
ATOM      8  C   UNL     1       1.649   2.411  20.694  0.00  0.00    +0.000 A 
ATOM      9  C   UNL     1       0.725   3.452  20.656  0.00  0.00    +0.000 A 
ATOM     10  C   UNL     1       1.111   4.714  20.196  0.00  0.00    +0.000 A 
ATOM     11  C   UNL     1       2.436   4.954  19.807  0.00  0.00    +0.000 A 
ENDROOT
BRANCH   1  13
ATOM     12  N   UNL     1       1.787   7.764  21.043  0.00  0.00    +0.000 N 
ATOM     13  C   UNL     1       2.106   7.527  19.716  0.00  0.00    +0.000 C 
ATOM     14  O   UNL     1       1.695   8.153  18.746  0.00  0.00    +0.000 OA
ATOM     15  H   UNL     1       1.983   7.003  21.686  0.00  0.00    +0.000 HD
BRANCH  12  22
ATOM     16  C   UNL     1      -1.247  14.622  22.188  0.00  0.00    +0.000 C 
ATOM     17  C   UNL     1      -0.744  13.230  22.042  0.00  0.00    +0.000 A 
ATOM     18  N   UNL     1      -1.149  12.223  22.785  0.00  0.00    +0.000 NA
ATOM     19  C   UNL     1      -0.494  11.069  22.406  0.00  0.00    +0.000 A 
ATOM     20  C   UNL     1      -0.678   9.804  22.990  0.00  0.00    +0.000 A 
ATOM     21  C   UNL     1       0.064   8.716  22.521  0.00  0.00    +0.000 A 
ATOM     22  C   UNL     1       0.993   8.850  21.485  0.00  0.00    +0.000 A 
ATOM     23  C   UNL     1       1.153  10.097  20.861  0.00  0.00    +0.000 A 
ATOM     24  C   UNL     1       0.412  11.196  21.353  0.00  0.00    +0.000 A 
ATOM     25  S   UNL     1       0.429  12.847  20.847  0.00  0.00    +0.000 S 
ENDBRANCH  12  22
ENDBRANCH   1  13
BRANCH   3  26
ATOM     26  C   UNL     1       6.446   5.758  18.683  0.00  0.00    +0.000 C 
BRANCH  26  27
ATOM     27  C   UNL     1       6.624   6.597  17.403  0.00  0.00    +0.000 C 
ATOM     28  C   UNL     1       7.688   7.688  17.555  0.00  0.00    +0.000 C 
ATOM     29  C   UNL     1       6.984   5.687  16.227  0.00  0.00    +0.000 C 
ENDBRANCH  26  27
ENDBRANCH   3  26
TORSDOF 4
ENDMDL
MODEL 7
REMARK VINA RESULT:      -8.2      1.421      1.558
REMARK  Name = 
REMARK  7 active torsions:
REMARK  status: ('A' for Active; 'I' for Inactive)
REMARK    1  A    between atoms: C_1  and  C_2
REMARK    2  A    between atoms: C_7  and  N_8
REMARK    3  A    between atoms: C_9  and  C_11
REMARK    4  A    between atoms: N_13  and  C_14
REMARK    5  A    between atoms: C_14  and  C_15
REMARK    6  A    between atoms: C_15  and  C_16
REMARK    7  A    between atoms: C_15  and  C_17
REMARK                            x       y       z     vdW  Elec       q    Type
REMARK                         _______ _______ _______ _____ _____    ______ ____
ROOT
ATOM      1  C   UNL     1       3.017   6.229  18.363  0.00  0.00    +0.000 A 
ATOM      2  N   UNL     1       4.074   6.797  17.862  0.00  0.00    +0.000 NA
ATOM      3  N   UNL     1       4.970   6.020  17.153  0.00  0.00    +0.000 N 
ATOM      4  C   UNL     1       4.830   4.645  16.959  0.00  0.00    +0.000 A 
ATOM      5  O   UNL     1       5.655   3.939  16.379  0.00  0.00    +0.000 OA
ATOM      6  C   UNL     1       3.613   4.021  17.500  0.00  0.00    +0.000 A 
ATOM      7  C   UNL     1       3.423   2.634  17.383  0.00  0.00    +0.000 A 
ATOM      8  C   UNL     1       2.283   2.037  17.917  0.00  0.00    +0.000 A 
ATOM      9  C   UNL     1       1.314   2.825  18.529  0.00  0.00    +0.000 A 
ATOM     10  C   UNL     1       1.497   4.207  18.631  0.00  0.00    +0.000 A 
ATOM     11  C   UNL     1       2.673   4.805  18.155  0.00  0.00    +0.000 A 
ENDROOT
BRANCH   1  13
ATOM     12  N   UNL     1       1.784   8.312  18.816  0.00  0.00    +0.000 N 
ATOM     13  C   UNL     1       2.169   7.075  19.308  0.00  0.00    +0.000 C 
ATOM     14  O   UNL     1       1.969   6.648  20.439  0.00  0.00    +0.000 OA
ATOM     15  H   UNL     1       2.256   8.616  17.971  0.00  0.00    +0.000 HD
BRANCH  12  22
ATOM     16  C   UNL     1      -2.923  13.903  20.849  0.00  0.00    +0.000 C 
ATOM     17  C   UNL     1      -1.984  12.783  20.577  0.00  0.00    +0.000 A 
ATOM     18  N   UNL     1      -1.263  12.189  21.503  0.00  0.00    +0.000 NA
ATOM     19  C   UNL     1      -0.495  11.194  20.933  0.00  0.00    +0.000 A 
ATOM     20  C   UNL     1       0.399  10.361  21.628  0.00  0.00    +0.000 A 
ATOM     21  C   UNL     1       1.131   9.401  20.925  0.00  0.00    +0.000 A 
ATOM     22  C   UNL     1       1.004   9.245  19.542  0.00  0.00    +0.000 A 
ATOM     23  C   UNL     1       0.082  10.038  18.842  0.00  0.00    +0.000 A 
ATOM     24  C   UNL     1      -0.643  11.019  19.557  0.00  0.00    +0.000 A 
ATOM     25  S   UNL     1      -1.790  12.174  18.982  0.00  0.00    +0.000 S 
ENDBRANCH  12  22
ENDBRANCH   1  13
BRANCH   3  26
ATOM     26  C   UNL     1       6.238   6.659  16.798  0.00  0.00    +0.000 C 
BRANCH  26  27
ATOM     27  C   UNL     1       7.044   7.120  18.028  0.00  0.00    +0.000 C 
ATOM     28  C   UNL     1       7.826   5.978  18.683  0.00  0.00    +0.000 C 
ATOM     29  C   UNL     1       8.006   8.242  17.632  0.00  0.00    +0.000 C 
ENDBRANCH  26  27
ENDBRANCH   3  26
TORSDOF 4
ENDMDL
MODEL 8
REMARK VINA RESULT:      -8.1      0.855      1.102
REMARK  Name = 
REMARK  7 active torsions:
REMARK  status: ('A' for Active; 'I' for Inactive)
REMARK    1  A    between atoms: C_1  and  C_2
REMARK    2  A    between atoms: C_7  and  N_8
REMARK    3  A    between atoms: C_9  and  C_11
REMARK    4  A    between atoms: N_13  and  C_14
REMARK    5  A    between atoms: C_14  and  C_15
REMARK    6  A    between atoms: C_15  and  C_16
REMARK    7  A    between atoms: C_15  and  C_17
REMARK                            x       y       z     vdW  Elec       q    Type
REMARK                         _______ _______ _______ _____ _____    ______ ____
ROOT
ATOM      1  C   UNL     1       3.268   6.274  17.825  0.00  0.00    +0.000 A 
ATOM      2  N   UNL     1       4.368   6.570  17.198  0.00  0.00    +0.000 NA
ATOM      3  N   UNL     1       5.150   5.540  16.711  0.00  0.00    +0.000 N 
ATOM      4  C   UNL     1       4.849   4.187  16.872  0.00  0.00    +0.000 A 
ATOM      5  O   UNL     1       5.573   3.266  16.491  0.00  0.00    +0.000 OA
ATOM      6  C   UNL     1       3.586   3.865  17.551  0.00  0.00    +0.000 A 
ATOM      7  C   UNL     1       3.236   2.526  17.789  0.00  0.00    +0.000 A 
ATOM      8  C   UNL     1       2.051   2.219  18.455  0.00  0.00    +0.000 A 
ATOM      9  C   UNL     1       1.195   3.244  18.846  0.00  0.00    +0.000 A 
ATOM     10  C   UNL     1       1.537   4.576  18.595  0.00  0.00    +0.000 A 
ATOM     11  C   UNL     1       2.758   4.893  17.985  0.00  0.00    +0.000 A 
ENDROOT
BRANCH   1  13
ATOM     12  N   UNL     1       2.211   8.495  17.712  0.00  0.00    +0.000 N 
ATOM     13  C   UNL     1       2.547   7.423  18.524  0.00  0.00    +0.000 C 
ATOM     14  O   UNL     1       2.401   7.357  19.738  0.00  0.00    +0.000 OA
ATOM     15  H   UNL     1       2.642   8.504  16.793  0.00  0.00    +0.000 HD
BRANCH  12  22
ATOM     16  C   UNL     1       0.469  15.569  19.826  0.00  0.00    +0.000 C 
ATOM     17  C   UNL     1       0.687  14.151  19.436  0.00  0.00    +0.000 A 
ATOM     18  N   UNL     1      -0.187  13.191  19.645  0.00  0.00    +0.000 NA
ATOM     19  C   UNL     1       0.311  11.993  19.173  0.00  0.00    +0.000 A 
ATOM     20  C   UNL     1      -0.355  10.757  19.236  0.00  0.00    +0.000 A 
ATOM     21  C   UNL     1       0.271   9.613  18.735  0.00  0.00    +0.000 A 
ATOM     22  C   UNL     1       1.550   9.660  18.172  0.00  0.00    +0.000 A 
ATOM     23  C   UNL     1       2.207  10.895  18.060  0.00  0.00    +0.000 A 
ATOM     24  C   UNL     1       1.575  12.045  18.585  0.00  0.00    +0.000 A 
ATOM     25  S   UNL     1       2.141  13.674  18.655  0.00  0.00    +0.000 S 
ENDBRANCH  12  22
ENDBRANCH   1  13
BRANCH   3  26
ATOM     26  C   UNL     1       6.471   5.917  16.207  0.00  0.00    +0.000 C 
BRANCH  26  27
ATOM     27  C   UNL     1       7.433   6.369  17.323  0.00  0.00    +0.000 C 
ATOM     28  C   UNL     1       7.496   7.893  17.467  0.00  0.00    +0.000 C 
ATOM     29  C   UNL     1       7.019   5.743  18.656  0.00  0.00    +0.000 C 
ENDBRANCH  26  27
ENDBRANCH   3  26
TORSDOF 4
ENDMDL
MODEL 9
REMARK VINA RESULT:      -8.0      1.590      1.874
REMARK  Name = 
REMARK  7 active torsions:
REMARK  status: ('A' for Active; 'I' for Inactive)
REMARK    1  A    between atoms: C_1  and  C_2
REMARK    2  A    between atoms: C_7  and  N_8
REMARK    3  A    between atoms: C_9  and  C_11
REMARK    4  A    between atoms: N_13  and  C_14
REMARK    5  A    between atoms: C_14  and  C_15
REMARK    6  A    between atoms: C_15  and  C_16
REMARK    7  A    between atoms: C_15  and  C_17
REMARK                            x       y       z     vdW  Elec       q    Type
REMARK                         _______ _______ _______ _____ _____    ______ ____
ROOT
ATOM      1  C   UNL     1       3.008   6.457  19.162  0.00  0.00    +0.000 A 
ATOM      2  N   UNL     1       4.150   6.665  18.577  0.00  0.00    +0.000 NA
ATOM      3  N   UNL     1       5.051   5.621  18.491  0.00  0.00    +0.000 N 
ATOM      4  C   UNL     1       4.826   4.350  19.020  0.00  0.00    +0.000 A 
ATOM      5  O   UNL     1       5.649   3.434  18.998  0.00  0.00    +0.000 OA
ATOM      6  C   UNL     1       3.517   4.115  19.648  0.00  0.00    +0.000 A 
ATOM      7  C   UNL     1       3.234   2.874  20.241  0.00  0.00    +0.000 A 
ATOM      8  C   UNL     1       2.004   2.658  20.859  0.00  0.00    +0.000 A 
ATOM      9  C   UNL     1       1.041   3.662  20.848  0.00  0.00    +0.000 A 
ATOM     10  C   UNL     1       1.318   4.892  20.243  0.00  0.00    +0.000 A 
ATOM     11  C   UNL     1       2.578   5.138  19.679  0.00  0.00    +0.000 A 
ENDROOT
BRANCH   1  13
ATOM     12  N   UNL     1       1.948   8.517  18.328  0.00  0.00    +0.000 N 
ATOM     13  C   UNL     1       2.135   7.682  19.418  0.00  0.00    +0.000 C 
ATOM     14  O   UNL     1       1.747   7.882  20.562  0.00  0.00    +0.000 OA
ATOM     15  H   UNL     1       2.555   8.346  17.532  0.00  0.00    +0.000 HD
BRANCH  12  22
ATOM     16  C   UNL     1      -0.391  15.696  19.061  0.00  0.00    +0.000 C 
ATOM     17  C   UNL     1      -0.053  14.259  18.880  0.00  0.00    +0.000 A 
ATOM     18  N   UNL     1      -0.947  13.316  18.675  0.00  0.00    +0.000 NA
ATOM     19  C   UNL     1      -0.318  12.095  18.549  0.00  0.00    +0.000 A 
ATOM     20  C   UNL     1      -0.967  10.868  18.328  0.00  0.00    +0.000 A 
ATOM     21  C   UNL     1      -0.211   9.696  18.237  0.00  0.00    +0.000 A 
ATOM     22  C   UNL     1       1.181   9.707  18.364  0.00  0.00    +0.000 A 
ATOM     23  C   UNL     1       1.847  10.930  18.539  0.00  0.00    +0.000 A 
ATOM     24  C   UNL     1       1.073  12.108  18.647  0.00  0.00    +0.000 A 
ATOM     25  S   UNL     1       1.583  13.735  18.921  0.00  0.00    +0.000 S 
ENDBRANCH  12  22
ENDBRANCH   1  13
BRANCH   3  26
ATOM     26  C   UNL     1       6.393   5.965  18.020  0.00  0.00    +0.000 C 
BRANCH  26  27
ATOM     27  C   UNL     1       6.544   5.837  16.491  0.00  0.00    +0.000 C 
ATOM     28  C   UNL     1       7.069   4.463  16.062  0.00  0.00    +0.000 C 
ATOM     29  C   UNL     1       5.204   6.111  15.808  0.00  0.00    +0.000 C 
ENDBRANCH  26  27
ENDBRANCH   3  26
TORSDOF 4
ENDMDL
