MODEL 1
REMARK VINA RESULT:      -8.8      0.000      0.000
REMARK  Name = 
REMARK  4 active torsions:
REMARK  status: ('A' for Active; 'I' for Inactive)
REMARK    1  A    between atoms: C_1  and  C_2
REMARK    2  A    between atoms: C_2  and  C_3
REMARK    3  A    between atoms: C_2  and  C_14
REMARK    4  A    between atoms: C_3  and  C_4
REMARK                            x       y       z     vdW  Elec       q    Type
REMARK                         _______ _______ _______ _____ _____    ______ ____
ROOT
ATOM      1  C   UNL     1       2.470   7.799  18.155  0.00  0.00    +0.000 C 
ATOM      2  O   UNL     1       2.892   8.544  17.265  0.00  0.00    +0.000 OA
ATOM      3  N   UNL     1       2.954   6.507  18.267  0.00  0.00    +0.000 N 
ATOM      4  C   UNL     1       2.491   5.377  19.115  0.00  0.00    +0.000 C 
ATOM      5  C   UNL     1       3.072   4.074  18.448  0.00  0.00    +0.000 C 
ATOM      6  C   UNL     1       1.862   3.405  17.708  0.00  0.00    +0.000 C 
ATOM      7  C   UNL     1       0.958   2.601  18.710  0.00  0.00    +0.000 C 
ATOM      8  O   UNL     1       1.658   1.735  19.606  0.00  0.00    +0.000 OA
ATOM      9  C   UNL     1       2.720   2.377  20.288  0.00  0.00    +0.000 C 
ATOM     10  C   UNL     1       3.661   2.885  19.244  0.00  0.00    +0.000 C 
ATOM     11  C   UNL     1       4.303   4.687  17.717  0.00  0.00    +0.000 C 
ATOM     12  C   UNL     1       5.443   5.006  18.747  0.00  0.00    +0.000 C 
ATOM     13  C   UNL     1       6.133   6.280  18.323  0.00  0.00    +0.000 C 
ATOM     14  C   UNL     1       5.251   6.866  17.239  0.00  0.00    +0.000 C 
ATOM     15  C   UNL     1       3.918   6.085  17.261  0.00  0.00    +0.000 C 
ENDROOT
BRANCH   1  17
ATOM     16  C   UNL     1       1.881   7.973  20.571  0.00  0.00    +0.000 C 
ATOM     17  C   UNL     1       1.452   8.333  19.148  0.00  0.00    +0.000 C 
BRANCH  17  18
ATOM     18  C   UNL     1       1.270   9.858  18.934  0.00  0.00    +0.000 C 
BRANCH  18  19
ATOM     19  C   UNL     1      -0.124  10.363  18.676  0.00  0.00    +0.000 A 
ATOM     20  C   UNL     1      -0.808  11.134  19.608  0.00  0.00    +0.000 A 
ATOM     21  N   UNL     1      -2.069  11.587  19.421  0.00  0.00    +0.000 NA
ATOM     22  C   UNL     1      -2.655  11.241  18.265  0.00  0.00    +0.000 A 
ATOM     23  C   UNL     1      -3.966  11.636  18.014  0.00  0.00    +0.000 A 
ATOM     24  C   UNL     1      -4.608  11.317  16.818  0.00  0.00    +0.000 A 
ATOM     25  C   UNL     1      -3.932  10.579  15.856  0.00  0.00    +0.000 A 
ATOM     26  C   UNL     1      -2.623  10.157  16.106  0.00  0.00    +0.000 A 
ATOM     27  C   UNL     1      -1.965  10.470  17.283  0.00  0.00    +0.000 A 
ATOM     28  N   UNL     1      -0.706  10.047  17.489  0.00  0.00    +0.000 NA
ENDBRANCH  18  19
ENDBRANCH  17  18
ENDBRANCH   1  17
TORSDOF 3
ENDMDL
MODEL 2
REMARK VINA RESULT:      -8.8      2.413      4.323
REMARK  Name = 
REMARK  4 active torsions:
REMARK  status: ('A' for Active; 'I' for Inactive)
REMARK    1  A    between atoms: C_1  and  C_2
REMARK    2  A    between atoms: C_2  and  C_3
REMARK    3  A    between atoms: C_2  and  C_14
REMARK    4  A    between atoms: C_3  and  C_4
REMARK                            x       y       z     vdW  Elec       q    Type
REMARK                         _______ _______ _______ _____ _____    ______ ____
ROOT
ATOM      1  C   UNL     1       2.288   6.765  19.683  0.00  0.00    +0.000 C 
ATOM      2  O   UNL     1       1.694   6.319  20.669  0.00  0.00    +0.000 OA
ATOM      3  N   UNL     1       3.081   5.930  18.914  0.00  0.00    +0.000 N 
ATOM      4  C   UNL     1       4.024   6.247  17.809  0.00  0.00    +0.000 C 
ATOM      5  C   UNL     1       4.978   5.001  17.688  0.00  0.00    +0.000 C 
ATOM      6  C   UNL     1       6.331   5.441  18.347  0.00  0.00    +0.000 C 
ATOM      7  C   UNL     1       7.188   6.310  17.358  0.00  0.00    +0.000 C 
ATOM      8  O   UNL     1       7.315   5.784  16.035  0.00  0.00    +0.000 OA
ATOM      9  C   UNL     1       6.075   5.432  15.452  0.00  0.00    +0.000 C 
ATOM     10  C   UNL     1       5.454   4.404  16.342  0.00  0.00    +0.000 C 
ATOM     11  C   UNL     1       4.043   3.903  18.279  0.00  0.00    +0.000 C 
ATOM     12  C   UNL     1       2.939   3.512  17.236  0.00  0.00    +0.000 C 
ATOM     13  C   UNL     1       1.653   3.238  17.977  0.00  0.00    +0.000 C 
ATOM     14  C   UNL     1       1.896   3.731  19.388  0.00  0.00    +0.000 C 
ATOM     15  C   UNL     1       3.204   4.552  19.368  0.00  0.00    +0.000 C 
ENDROOT
BRANCH   1  17
ATOM     16  C   UNL     1       1.654   8.321  17.842  0.00  0.00    +0.000 C 
ATOM     17  C   UNL     1       2.103   8.223  19.301  0.00  0.00    +0.000 C 
BRANCH  17  18
ATOM     18  C   UNL     1       1.114   8.895  20.289  0.00  0.00    +0.000 C 
BRANCH  18  19
ATOM     19  C   UNL     1       0.630  10.280  19.954  0.00  0.00    +0.000 A 
ATOM     20  C   UNL     1      -0.707  10.544  19.684  0.00  0.00    +0.000 A 
ATOM     21  N   UNL     1      -1.175  11.772  19.359  0.00  0.00    +0.000 NA
ATOM     22  C   UNL     1      -0.263  12.753  19.295  0.00  0.00    +0.000 A 
ATOM     23  C   UNL     1      -0.660  14.036  18.930  0.00  0.00    +0.000 A 
ATOM     24  C   UNL     1       0.251  15.092  18.871  0.00  0.00    +0.000 A 
ATOM     25  C   UNL     1       1.586  14.860  19.172  0.00  0.00    +0.000 A 
ATOM     26  C   UNL     1       2.000  13.571  19.518  0.00  0.00    +0.000 A 
ATOM     27  C   UNL     1       1.111  12.511  19.591  0.00  0.00    +0.000 A 
ATOM     28  N   UNL     1       1.546  11.285  19.927  0.00  0.00    +0.000 NA
ENDBRANCH  18  19
ENDBRANCH  17  18
ENDBRANCH   1  17
TORSDOF 3
ENDMDL
MODEL 3
REMARK VINA RESULT:      -8.5      1.590      3.323
REMARK  Name = 
REMARK  4 active torsions:
REMARK  status: ('A' for Active; 'I' for Inactive)
REMARK    1  A    between atoms: C_1  and  C_2
REMARK    2  A    between atoms: C_2  and  C_3
REMARK    3  A    between atoms: C_2  and  C_14
REMARK    4  A    between atoms: C_3  and  C_4
REMARK                            x       y       z     vdW  Elec       q    Type
REMARK                         _______ _______ _______ _____ _____    ______ ____
ROOT
ATOM      1  C   UNL     1       2.173   7.462  19.558  0.00  0.00    +0.000 C 
ATOM      2  O   UNL     1       1.579   7.152  20.596  0.00  0.00    +0.000 OA
ATOM      3  N   UNL     1       2.931   6.520  18.884  0.00  0.00    +0.000 N 
ATOM      4  C   UNL     1       3.868   6.679  17.741  0.00  0.00    +0.000 C 
ATOM      5  C   UNL     1       4.785   5.399  17.756  0.00  0.00    +0.000 C 
ATOM      6  C   UNL     1       6.159   5.873  18.346  0.00  0.00    +0.000 C 
ATOM      7  C   UNL     1       7.026   6.596  17.255  0.00  0.00    +0.000 C 
ATOM      8  O   UNL     1       7.122   5.916  16.001  0.00  0.00    +0.000 OA
ATOM      9  C   UNL     1       5.864   5.536  15.475  0.00  0.00    +0.000 C 
ATOM     10  C   UNL     1       5.226   4.637  16.484  0.00  0.00    +0.000 C 
ATOM     11  C   UNL     1       3.827   4.406  18.479  0.00  0.00    +0.000 C 
ATOM     12  C   UNL     1       2.699   3.929  17.500  0.00  0.00    +0.000 C 
ATOM     13  C   UNL     1       1.415   3.782  18.280  0.00  0.00    +0.000 C 
ATOM     14  C   UNL     1       1.691   4.427  19.622  0.00  0.00    +0.000 C 
ATOM     15  C   UNL     1       3.021   5.201  19.494  0.00  0.00    +0.000 C 
ENDROOT
BRANCH   1  17
ATOM     16  C   UNL     1       1.487   8.815  17.581  0.00  0.00    +0.000 C 
ATOM     17  C   UNL     1       2.023   8.871  19.012  0.00  0.00    +0.000 C 
BRANCH  17  18
ATOM     18  C   UNL     1       1.129   9.704  19.965  0.00  0.00    +0.000 C 
BRANCH  18  19
ATOM     19  C   UNL     1      -0.150  10.267  19.405  0.00  0.00    +0.000 A 
ATOM     20  C   UNL     1      -0.898  11.213  20.094  0.00  0.00    +0.000 A 
ATOM     21  N   UNL     1      -2.063  11.725  19.633  0.00  0.00    +0.000 NA
ATOM     22  C   UNL     1      -2.484  11.258  18.449  0.00  0.00    +0.000 A 
ATOM     23  C   UNL     1      -3.692  11.707  17.924  0.00  0.00    +0.000 A 
ATOM     24  C   UNL     1      -4.160  11.264  16.686  0.00  0.00    +0.000 A 
ATOM     25  C   UNL     1      -3.411  10.346  15.962  0.00  0.00    +0.000 A 
ATOM     26  C   UNL     1      -2.208   9.871  16.489  0.00  0.00    +0.000 A 
ATOM     27  C   UNL     1      -1.721  10.304  17.712  0.00  0.00    +0.000 A 
ATOM     28  N   UNL     1      -0.560   9.824  18.187  0.00  0.00    +0.000 NA
ENDBRANCH  18  19
ENDBRANCH  17  18
ENDBRANCH   1  17
TORSDOF 3
ENDMDL
MODEL 4
REMARK VINA RESULT:      -8.5      2.503      4.425
REMARK  Name = 
REMARK  4 active torsions:
REMARK  status: ('A' for Active; 'I' for Inactive)
REMARK    1  A    between atoms: C_1  and  C_2
REMARK    2  A    between atoms: C_2  and  C_3
REMARK    3  A    between atoms: C_2  and  C_14
REMARK    4  A    between atoms: C_3  and  C_4
REMARK                            x       y       z     vdW  Elec       q    Type
REMARK                         _______ _______ _______ _____ _____    ______ ____
ROOT
ATOM      1  C   UNL     1       2.495   5.756  20.265  0.00  0.00    +0.000 C 
ATOM      2  O   UNL     1       2.009   5.047  21.151  0.00  0.00    +0.000 OA
ATOM      3  N   UNL     1       3.354   5.206  19.329  0.00  0.00    +0.000 N 
ATOM      4  C   UNL     1       4.197   5.862  18.295  0.00  0.00    +0.000 C 
ATOM      5  C   UNL     1       5.299   4.807  17.907  0.00  0.00    +0.000 C 
ATOM      6  C   UNL     1       6.612   5.288  18.617  0.00  0.00    +0.000 C 
ATOM      7  C   UNL     1       7.303   6.444  17.810  0.00  0.00    +0.000 C 
ATOM      8  O   UNL     1       7.438   6.214  16.406  0.00  0.00    +0.000 OA
ATOM      9  C   UNL     1       6.229   5.819  15.786  0.00  0.00    +0.000 C 
ATOM     10  C   UNL     1       5.788   4.560  16.459  0.00  0.00    +0.000 C 
ATOM     11  C   UNL     1       4.542   3.497  18.279  0.00  0.00    +0.000 C 
ATOM     12  C   UNL     1       3.452   3.174  17.198  0.00  0.00    +0.000 C 
ATOM     13  C   UNL     1       2.247   2.586  17.891  0.00  0.00    +0.000 C 
ATOM     14  C   UNL     1       2.487   2.816  19.368  0.00  0.00    +0.000 C 
ATOM     15  C   UNL     1       3.676   3.796  19.491  0.00  0.00    +0.000 C 
ENDROOT
BRANCH   1  17
ATOM     16  C   UNL     1       2.144   7.693  18.736  0.00  0.00    +0.000 C 
ATOM     17  C   UNL     1       2.105   7.222  20.190  0.00  0.00    +0.000 C 
BRANCH  17  18
ATOM     18  C   UNL     1       0.720   7.424  20.859  0.00  0.00    +0.000 C 
BRANCH  18  19
ATOM     19  C   UNL     1       0.339   8.823  21.261  0.00  0.00    +0.000 A 
ATOM     20  C   UNL     1       0.537   9.294  22.553  0.00  0.00    +0.000 A 
ATOM     21  N   UNL     1       0.188  10.537  22.957  0.00  0.00    +0.000 NA
ATOM     22  C   UNL     1      -0.385  11.319  22.031  0.00  0.00    +0.000 A 
ATOM     23  C   UNL     1      -0.808  12.599  22.378  0.00  0.00    +0.000 A 
ATOM     24  C   UNL     1      -1.390  13.454  21.442  0.00  0.00    +0.000 A 
ATOM     25  C   UNL     1      -1.565  13.019  20.135  0.00  0.00    +0.000 A 
ATOM     26  C   UNL     1      -1.166  11.728  19.780  0.00  0.00    +0.000 A 
ATOM     27  C   UNL     1      -0.578  10.866  20.691  0.00  0.00    +0.000 A 
ATOM     28  N   UNL     1      -0.206   9.632  20.314  0.00  0.00    +0.000 NA
ENDBRANCH  18  19
ENDBRANCH  17  18
ENDBRANCH   1  17
TORSDOF 3
ENDMDL
MODEL 5
REMARK VINA RESULT:      -8.4      2.947      4.399
REMARK  Name = 
REMARK  4 active torsions:
REMARK  status: ('A' for Active; 'I' for Inactive)
REMARK    1  A    between atoms: C_1  and  C_2
REMARK    2  A    between atoms: C_2  and  C_3
REMARK    3  A    between atoms: C_2  and  C_14
REMARK    4  A    between atoms: C_3  and  C_4
REMARK                            x       y       z     vdW  Elec       q    Type
REMARK                         _______ _______ _______ _____ _____    ______ ____
ROOT
ATOM      1  C   UNL     1       2.536   6.076  19.899  0.00  0.00    +0.000 C 
ATOM      2  O   UNL     1       2.056   5.522  20.893  0.00  0.00    +0.000 OA
ATOM      3  N   UNL     1       3.323   5.356  19.016  0.00  0.00    +0.000 N 
ATOM      4  C   UNL     1       4.149   5.817  17.869  0.00  0.00    +0.000 C 
ATOM      5  C   UNL     1       5.179   4.659  17.589  0.00  0.00    +0.000 C 
ATOM      6  C   UNL     1       6.545   5.160  18.175  0.00  0.00    +0.000 C 
ATOM      7  C   UNL     1       7.254   6.156  17.188  0.00  0.00    +0.000 C 
ATOM      8  O   UNL     1       7.314   5.728  15.826  0.00  0.00    +0.000 OA
ATOM      9  C   UNL     1       6.059   5.319  15.314  0.00  0.00    +0.000 C 
ATOM     10  C   UNL     1       5.588   4.190  16.172  0.00  0.00    +0.000 C 
ATOM     11  C   UNL     1       4.376   3.457  18.169  0.00  0.00    +0.000 C 
ATOM     12  C   UNL     1       3.223   3.049  17.186  0.00  0.00    +0.000 C 
ATOM     13  C   UNL     1       2.023   2.629  18.000  0.00  0.00    +0.000 C 
ATOM     14  C   UNL     1       2.342   3.046  19.421  0.00  0.00    +0.000 C 
ATOM     15  C   UNL     1       3.582   3.966  19.361  0.00  0.00    +0.000 C 
ENDROOT
BRANCH   1  17
ATOM     16  C   UNL     1       1.831   7.725  18.168  0.00  0.00    +0.000 C 
ATOM     17  C   UNL     1       2.215   7.537  19.637  0.00  0.00    +0.000 C 
BRANCH  17  18
ATOM     18  C   UNL     1       1.114   8.010  20.620  0.00  0.00    +0.000 C 
BRANCH  18  19
ATOM     19  C   UNL     1       0.875   9.492  20.736  0.00  0.00    +0.000 A 
ATOM     20  C   UNL     1       0.415  10.069  21.913  0.00  0.00    +0.000 A 
ATOM     21  N   UNL     1       0.168  11.393  22.048  0.00  0.00    +0.000 NA
ATOM     22  C   UNL     1       0.383  12.147  20.961  0.00  0.00    +0.000 A 
ATOM     23  C   UNL     1       0.117  13.512  21.008  0.00  0.00    +0.000 A 
ATOM     24  C   UNL     1       0.345  14.339  19.908  0.00  0.00    +0.000 A 
ATOM     25  C   UNL     1       0.839  13.791  18.732  0.00  0.00    +0.000 A 
ATOM     26  C   UNL     1       1.089  12.417  18.665  0.00  0.00    +0.000 A 
ATOM     27  C   UNL     1       0.878  11.580  19.749  0.00  0.00    +0.000 A 
ATOM     28  N   UNL     1       1.129  10.265  19.647  0.00  0.00    +0.000 NA
ENDBRANCH  18  19
ENDBRANCH  17  18
ENDBRANCH   1  17
TORSDOF 3
ENDMDL
MODEL 6
REMARK VINA RESULT:      -8.4      3.027      4.676
REMARK  Name = 
REMARK  4 active torsions:
REMARK  status: ('A' for Active; 'I' for Inactive)
REMARK    1  A    between atoms: C_1  and  C_2
REMARK    2  A    between atoms: C_2  and  C_3
REMARK    3  A    between atoms: C_2  and  C_14
REMARK    4  A    between atoms: C_3  and  C_4
REMARK                            x       y       z     vdW  Elec       q    Type
REMARK                         _______ _______ _______ _____ _____    ______ ____
ROOT
ATOM      1  C   UNL     1       2.534   5.897  20.025  0.00  0.00    +0.000 C 
ATOM      2  O   UNL     1       2.055   5.293  20.990  0.00  0.00    +0.000 OA
ATOM      3  N   UNL     1       3.332   5.228  19.113  0.00  0.00    +0.000 N 
ATOM      4  C   UNL     1       4.160   5.750  17.993  0.00  0.00    +0.000 C 
ATOM      5  C   UNL     1       5.202   4.616  17.665  0.00  0.00    +0.000 C 
ATOM      6  C   UNL     1       6.560   5.102  18.280  0.00  0.00    +0.000 C 
ATOM      7  C   UNL     1       7.264   6.149  17.345  0.00  0.00    +0.000 C 
ATOM      8  O   UNL     1       7.334   5.787  15.964  0.00  0.00    +0.000 OA
ATOM      9  C   UNL     1       6.086   5.390  15.427  0.00  0.00    +0.000 C 
ATOM     10  C   UNL     1       5.622   4.218  16.230  0.00  0.00    +0.000 C 
ATOM     11  C   UNL     1       4.408   3.380  18.183  0.00  0.00    +0.000 C 
ATOM     12  C   UNL     1       3.264   3.008  17.177  0.00  0.00    +0.000 C 
ATOM     13  C   UNL     1       2.064   2.538  17.964  0.00  0.00    +0.000 C 
ATOM     14  C   UNL     1       2.372   2.891  19.404  0.00  0.00    +0.000 C 
ATOM     15  C   UNL     1       3.603   3.825  19.394  0.00  0.00    +0.000 C 
ENDROOT
BRANCH   1  17
ATOM     16  C   UNL     1       1.803   7.616  18.374  0.00  0.00    +0.000 C 
ATOM     17  C   UNL     1       2.200   7.366  19.830  0.00  0.00    +0.000 C 
BRANCH  17  18
ATOM     18  C   UNL     1       1.103   7.787  20.841  0.00  0.00    +0.000 C 
BRANCH  18  19
ATOM     19  C   UNL     1       0.729   9.244  20.896  0.00  0.00    +0.000 A 
ATOM     20  C   UNL     1       1.162  10.148  19.934  0.00  0.00    +0.000 A 
ATOM     21  N   UNL     1       0.864  11.468  19.962  0.00  0.00    +0.000 NA
ATOM     22  C   UNL     1       0.117  11.882  20.996  0.00  0.00    +0.000 A 
ATOM     23  C   UNL     1      -0.201  13.231  21.116  0.00  0.00    +0.000 A 
ATOM     24  C   UNL     1      -0.993  13.704  22.163  0.00  0.00    +0.000 A 
ATOM     25  C   UNL     1      -1.468  12.813  23.116  0.00  0.00    +0.000 A 
ATOM     26  C   UNL     1      -1.137  11.459  23.018  0.00  0.00    +0.000 A 
ATOM     27  C   UNL     1      -0.360  10.968  21.982  0.00  0.00    +0.000 A 
ATOM     28  N   UNL     1      -0.061   9.660  21.921  0.00  0.00    +0.000 NA
ENDBRANCH  18  19
ENDBRANCH  17  18
ENDBRANCH   1  17
TORSDOF 3
ENDMDL
MODEL 7
REMARK VINA RESULT:      -8.4      3.000      4.740
REMARK  Name = 
REMARK  4 active torsions:
REMARK  status: ('A' for Active; 'I' for Inactive)
REMARK    1  A    between atoms: C_1  and  C_2
REMARK    2  A    between atoms: C_2  and  C_3
REMARK    3  A    between atoms: C_2  and  C_14
REMARK    4  A    between atoms: C_3  and  C_4
REMARK                            x       y       z     vdW  Elec       q    Type
REMARK                         _______ _______ _______ _____ _____    ______ ____
ROOT
ATOM      1  C   UNL     1       2.059   7.201  19.789  0.00  0.00    +0.000 C 
ATOM      2  O   UNL     1       1.538   6.811  20.839  0.00  0.00    +0.000 OA
ATOM      3  N   UNL     1       2.805   6.328  19.018  0.00  0.00    +0.000 N 
ATOM      4  C   UNL     1       3.668   6.586  17.834  0.00  0.00    +0.000 C 
ATOM      5  C   UNL     1       4.625   5.340  17.720  0.00  0.00    +0.000 C 
ATOM      6  C   UNL     1       6.015   5.827  18.258  0.00  0.00    +0.000 C 
ATOM      7  C   UNL     1       6.793   6.642  17.164  0.00  0.00    +0.000 C 
ATOM      8  O   UNL     1       6.836   6.041  15.868  0.00  0.00    +0.000 OA
ATOM      9  C   UNL     1       5.562   5.647  15.393  0.00  0.00    +0.000 C 
ATOM     10  C   UNL     1       5.014   4.669  16.381  0.00  0.00    +0.000 C 
ATOM     11  C   UNL     1       3.743   4.274  18.436  0.00  0.00    +0.000 C 
ATOM     12  C   UNL     1       2.574   3.815  17.495  0.00  0.00    +0.000 C 
ATOM     13  C   UNL     1       1.344   3.577  18.338  0.00  0.00    +0.000 C 
ATOM     14  C   UNL     1       1.678   4.153  19.698  0.00  0.00    +0.000 C 
ATOM     15  C   UNL     1       2.974   4.979  19.541  0.00  0.00    +0.000 C 
ENDROOT
BRANCH   1  17
ATOM     16  C   UNL     1       1.911   8.712  17.813  0.00  0.00    +0.000 C 
ATOM     17  C   UNL     1       1.833   8.634  19.338  0.00  0.00    +0.000 C 
BRANCH  17  18
ATOM     18  C   UNL     1       0.486   9.150  19.907  0.00  0.00    +0.000 C 
BRANCH  18  19
ATOM     19  C   UNL     1       0.437  10.572  20.398  0.00  0.00    +0.000 A 
ATOM     20  C   UNL     1       1.223  11.569  19.834  0.00  0.00    +0.000 A 
ATOM     21  N   UNL     1       1.222  12.852  20.263  0.00  0.00    +0.000 NA
ATOM     22  C   UNL     1       0.412  13.129  21.295  0.00  0.00    +0.000 A 
ATOM     23  C   UNL     1       0.382  14.418  21.819  0.00  0.00    +0.000 A 
ATOM     24  C   UNL     1      -0.461  14.756  22.878  0.00  0.00    +0.000 A 
ATOM     25  C   UNL     1      -1.283  13.785  23.434  0.00  0.00    +0.000 A 
ATOM     26  C   UNL     1      -1.245  12.481  22.931  0.00  0.00    +0.000 A 
ATOM     27  C   UNL     1      -0.422  12.127  21.875  0.00  0.00    +0.000 A 
ATOM     28  N   UNL     1      -0.412  10.863  21.418  0.00  0.00    +0.000 NA
ENDBRANCH  18  19
ENDBRANCH  17  18
ENDBRANCH   1  17
TORSDOF 3
ENDMDL
MODEL 8
REMARK VINA RESULT:      -8.3      2.773      4.352
REMARK  Name = 
REMARK  4 active torsions:
REMARK  status: ('A' for Active; 'I' for Inactive)
REMARK    1  A    between atoms: C_1  and  C_2
REMARK    2  A    between atoms: C_2  and  C_3
REMARK    3  A    between atoms: C_2  and  C_14
REMARK    4  A    between atoms: C_3  and  C_4
REMARK                            x       y       z     vdW  Elec       q    Type
REMARK                         _______ _______ _______ _____ _____    ______ ____
ROOT
ATOM      1  C   UNL     1       2.207   7.278  19.515  0.00  0.00    +0.000 C 
ATOM      2  O   UNL     1       1.620   6.945  20.549  0.00  0.00    +0.000 OA
ATOM      3  N   UNL     1       2.987   6.360  18.833  0.00  0.00    +0.000 N 
ATOM      4  C   UNL     1       3.921   6.551  17.692  0.00  0.00    +0.000 C 
ATOM      5  C   UNL     1       4.868   5.293  17.697  0.00  0.00    +0.000 C 
ATOM      6  C   UNL     1       6.229   5.793  18.292  0.00  0.00    +0.000 C 
ATOM      7  C   UNL     1       7.081   6.545  17.208  0.00  0.00    +0.000 C 
ATOM      8  O   UNL     1       7.193   5.879  15.948  0.00  0.00    +0.000 OA
ATOM      9  C   UNL     1       5.945   5.475  15.418  0.00  0.00    +0.000 C 
ATOM     10  C   UNL     1       5.327   4.552  16.418  0.00  0.00    +0.000 C 
ATOM     11  C   UNL     1       3.932   4.271  18.410  0.00  0.00    +0.000 C 
ATOM     12  C   UNL     1       2.816   3.777  17.425  0.00  0.00    +0.000 C 
ATOM     13  C   UNL     1       1.535   3.593  18.203  0.00  0.00    +0.000 C 
ATOM     14  C   UNL     1       1.795   4.232  19.551  0.00  0.00    +0.000 C 
ATOM     15  C   UNL     1       3.107   5.038  19.431  0.00  0.00    +0.000 C 
ENDROOT
BRANCH   1  17
ATOM     16  C   UNL     1       1.479   8.633  17.553  0.00  0.00    +0.000 C 
ATOM     17  C   UNL     1       2.025   8.688  18.981  0.00  0.00    +0.000 C 
BRANCH  17  18
ATOM     18  C   UNL     1       1.122   9.496  19.948  0.00  0.00    +0.000 C 
BRANCH  18  19
ATOM     19  C   UNL     1       0.910  10.955  19.646  0.00  0.00    +0.000 A 
ATOM     20  C   UNL     1       1.734  11.649  18.770  0.00  0.00    +0.000 A 
ATOM     21  N   UNL     1       1.588  12.966  18.490  0.00  0.00    +0.000 NA
ATOM     22  C   UNL     1       0.587  13.595  19.124  0.00  0.00    +0.000 A 
ATOM     23  C   UNL     1       0.395  14.958  18.919  0.00  0.00    +0.000 A 
ATOM     24  C   UNL     1      -0.646  15.649  19.541  0.00  0.00    +0.000 A 
ATOM     25  C   UNL     1      -1.505  14.969  20.393  0.00  0.00    +0.000 A 
ATOM     26  C   UNL     1      -1.308  13.605  20.623  0.00  0.00    +0.000 A 
ATOM     27  C   UNL     1      -0.287  12.898  20.010  0.00  0.00    +0.000 A 
ATOM     28  N   UNL     1      -0.128  11.587  20.256  0.00  0.00    +0.000 NA
ENDBRANCH  18  19
ENDBRANCH  17  18
ENDBRANCH   1  17
TORSDOF 3
ENDMDL
MODEL 9
REMARK VINA RESULT:      -8.2      0.971      1.752
REMARK  Name = 
REMARK  4 active torsions:
REMARK  status: ('A' for Active; 'I' for Inactive)
REMARK    1  A    between atoms: C_1  and  C_2
REMARK    2  A    between atoms: C_2  and  C_3
REMARK    3  A    between atoms: C_2  and  C_14
REMARK    4  A    between atoms: C_3  and  C_4
REMARK                            x       y       z     vdW  Elec       q    Type
REMARK                         _______ _______ _______ _____ _____    ______ ____
ROOT
ATOM      1  C   UNL     1       2.526   7.788  17.939  0.00  0.00    +0.000 C 
ATOM      2  O   UNL     1       3.023   8.456  17.026  0.00  0.00    +0.000 OA
ATOM      3  N   UNL     1       2.978   6.503  18.183  0.00  0.00    +0.000 N 
ATOM      4  C   UNL     1       2.437   5.448  19.081  0.00  0.00    +0.000 C 
ATOM      5  C   UNL     1       3.040   4.090  18.559  0.00  0.00    +0.000 C 
ATOM      6  C   UNL     1       1.874   3.380  17.789  0.00  0.00    +0.000 C 
ATOM      7  C   UNL     1       0.888   2.668  18.782  0.00  0.00    +0.000 C 
ATOM      8  O   UNL     1       1.509   1.866  19.790  0.00  0.00    +0.000 OA
ATOM      9  C   UNL     1       2.531   2.546  20.494  0.00  0.00    +0.000 C 
ATOM     10  C   UNL     1       3.551   2.960  19.484  0.00  0.00    +0.000 C 
ATOM     11  C   UNL     1       4.331   4.630  17.873  0.00  0.00    +0.000 C 
ATOM     12  C   UNL     1       5.401   5.014  18.953  0.00  0.00    +0.000 C 
ATOM     13  C   UNL     1       6.141   6.242  18.482  0.00  0.00    +0.000 C 
ATOM     14  C   UNL     1       5.348   6.752  17.297  0.00  0.00    +0.000 C 
ATOM     15  C   UNL     1       4.003   5.992  17.284  0.00  0.00    +0.000 C 
ENDROOT
BRANCH   1  17
ATOM     16  C   UNL     1       1.889   8.371  20.277  0.00  0.00    +0.000 C 
ATOM     17  C   UNL     1       1.451   8.410  18.813  0.00  0.00    +0.000 C 
BRANCH  17  18
ATOM     18  C   UNL     1       1.139   9.843  18.308  0.00  0.00    +0.000 C 
BRANCH  18  19
ATOM     19  C   UNL     1      -0.289  10.314  18.392  0.00  0.00    +0.000 A 
ATOM     20  C   UNL     1      -1.243   9.930  17.459  0.00  0.00    +0.000 A 
ATOM     21  N   UNL     1      -2.529  10.350  17.489  0.00  0.00    +0.000 NA
ATOM     22  C   UNL     1      -2.852  11.188  18.485  0.00  0.00    +0.000 A 
ATOM     23  C   UNL     1      -4.146  11.695  18.563  0.00  0.00    +0.000 A 
ATOM     24  C   UNL     1      -4.532  12.554  19.593  0.00  0.00    +0.000 A 
ATOM     25  C   UNL     1      -3.606  12.923  20.558  0.00  0.00    +0.000 A 
ATOM     26  C   UNL     1      -2.297  12.438  20.477  0.00  0.00    +0.000 A 
ATOM     27  C   UNL     1      -1.895  11.578  19.468  0.00  0.00    +0.000 A 
ATOM     28  N   UNL     1      -0.629  11.133  19.423  0.00  0.00    +0.000 NA
ENDBRANCH  18  19
ENDBRANCH  17  18
ENDBRANCH   1  17
TORSDOF 3
ENDMDL
