MODEL 1
REMARK VINA RESULT:      -9.2      0.000      0.000
REMARK  Name = 
REMARK  2 active torsions:
REMARK  status: ('A' for Active; 'I' for Inactive)
REMARK    1  A    between atoms: C_2  and  C_18
REMARK    2  A    between atoms: C_6  and  C_7
REMARK                            x       y       z     vdW  Elec       q    Type
REMARK                         _______ _______ _______ _____ _____    ______ ____
ROOT
ATOM      1  O   UNL     1       1.864   9.108  19.304  0.00  0.00    +0.000 OA
ATOM      2  C   UNL     1       1.429   8.634  20.346  0.00  0.00    +0.000 C 
ATOM      3  N   UNL     1       1.620   7.359  20.831  0.00  0.00    +0.000 N 
ATOM      4  C   UNL     1       2.389   6.461  20.142  0.00  0.00    +0.000 A 
ATOM      5  N   UNL     1       3.208   6.667  19.146  0.00  0.00    +0.000 NA
ATOM      6  C   UNL     1       3.764   5.469  18.728  0.00  0.00    +0.000 A 
ATOM      7  C   UNL     1       3.296   4.358  19.407  0.00  0.00    +0.000 A 
ATOM      8  S   UNL     1       2.231   4.844  20.665  0.00  0.00    +0.000 S 
ATOM      9  H   UNL     1       1.090   7.006  21.609  0.00  0.00    +0.000 HD
ENDROOT
BRANCH   2  10
ATOM     10  C   UNL     1       0.530   9.497  21.156  0.00  0.00    +0.000 A 
ATOM     11  C   UNL     1       0.377   9.171  22.516  0.00  0.00    +0.000 A 
ATOM     12  C   UNL     1      -0.504   9.874  23.345  0.00  0.00    +0.000 A 
ATOM     13  C   UNL     1      -1.230  10.895  22.736  0.00  0.00    +0.000 A 
ATOM     14  N   UNL     1      -2.193  11.754  23.189  0.00  0.00    +0.000 N 
ATOM     15  N   UNL     1      -2.618  12.581  22.220  0.00  0.00    +0.000 NA
ATOM     16  N   UNL     1      -1.952  12.277  21.112  0.00  0.00    +0.000 NA
ATOM     17  C   UNL     1      -1.099  11.244  21.398  0.00  0.00    +0.000 A 
ATOM     18  C   UNL     1      -0.201  10.546  20.577  0.00  0.00    +0.000 A 
ATOM     19  H   UNL     1      -2.605  11.825  24.110  0.00  0.00    +0.000 HD
ENDBRANCH   2  10
BRANCH   6  20
ATOM     20  C   UNL     1       4.751   5.434  17.653  0.00  0.00    +0.000 A 
ATOM     21  C   UNL     1       6.014   6.040  17.849  0.00  0.00    +0.000 A 
ATOM     22  C   UNL     1       7.000   6.004  16.857  0.00  0.00    +0.000 A 
ATOM     23  C   UNL     1       6.710   5.340  15.685  0.00  0.00    +0.000 A 
ATOM     24  C   UNL     1       5.480   4.739  15.472  0.00  0.00    +0.000 A 
ATOM     25  C   UNL     1       4.487   4.779  16.437  0.00  0.00    +0.000 A 
ATOM     26  C   UNL     1       5.450   4.162  14.110  0.00  0.00    +0.000 C 
ATOM     27  C   UNL     1       6.945   4.210  13.797  0.00  0.00    +0.000 C 
ATOM     28  O   UNL     1       7.574   5.213  14.629  0.00  0.00    +0.000 OA
ENDBRANCH   6  20
TORSDOF 2
ENDMDL
MODEL 2
REMARK VINA RESULT:      -9.0      1.451      2.236
REMARK  Name = 
REMARK  2 active torsions:
REMARK  status: ('A' for Active; 'I' for Inactive)
REMARK    1  A    between atoms: C_2  and  C_18
REMARK    2  A    between atoms: C_6  and  C_7
REMARK                            x       y       z     vdW  Elec       q    Type
REMARK                         _______ _______ _______ _____ _____    ______ ____
ROOT
ATOM      1  O   UNL     1       2.272   8.290  17.764  0.00  0.00    +0.000 OA
ATOM      2  C   UNL     1       2.127   7.950  18.932  0.00  0.00    +0.000 C 
ATOM      3  N   UNL     1       2.617   6.816  19.541  0.00  0.00    +0.000 N 
ATOM      4  C   UNL     1       3.380   5.923  18.838  0.00  0.00    +0.000 A 
ATOM      5  N   UNL     1       3.949   6.062  17.671  0.00  0.00    +0.000 NA
ATOM      6  C   UNL     1       4.607   4.895  17.318  0.00  0.00    +0.000 A 
ATOM      7  C   UNL     1       4.469   3.865  18.232  0.00  0.00    +0.000 A 
ATOM      8  S   UNL     1       3.596   4.415  19.607  0.00  0.00    +0.000 S 
ATOM      9  H   UNL     1       2.311   6.534  20.456  0.00  0.00    +0.000 HD
ENDROOT
BRANCH   2  10
ATOM     10  C   UNL     1       1.267   8.811  19.784  0.00  0.00    +0.000 A 
ATOM     11  C   UNL     1       0.549   9.838  19.144  0.00  0.00    +0.000 A 
ATOM     12  C   UNL     1      -0.229  10.750  19.866  0.00  0.00    +0.000 A 
ATOM     13  C   UNL     1      -0.230  10.588  21.250  0.00  0.00    +0.000 A 
ATOM     14  N   UNL     1      -0.815  11.285  22.271  0.00  0.00    +0.000 N 
ATOM     15  N   UNL     1      -0.525  10.752  23.468  0.00  0.00    +0.000 NA
ATOM     16  N   UNL     1       0.262   9.703  23.260  0.00  0.00    +0.000 NA
ATOM     17  C   UNL     1       0.463   9.583  21.911  0.00  0.00    +0.000 A 
ATOM     18  C   UNL     1       1.228   8.662  21.179  0.00  0.00    +0.000 A 
ATOM     19  H   UNL     1      -1.396  12.113  22.231  0.00  0.00    +0.000 HD
ENDBRANCH   2  10
BRANCH   6  20
ATOM     20  C   UNL     1       5.364   4.807  16.073  0.00  0.00    +0.000 A 
ATOM     21  C   UNL     1       6.646   5.402  15.995  0.00  0.00    +0.000 A 
ATOM     22  C   UNL     1       7.417   5.316  14.832  0.00  0.00    +0.000 A 
ATOM     23  C   UNL     1       6.899   4.614  13.765  0.00  0.00    +0.000 A 
ATOM     24  C   UNL     1       5.647   4.023  13.821  0.00  0.00    +0.000 A 
ATOM     25  C   UNL     1       4.864   4.112  14.958  0.00  0.00    +0.000 A 
ATOM     26  C   UNL     1       5.347   3.396  12.513  0.00  0.00    +0.000 C 
ATOM     27  C   UNL     1       6.753   3.412  11.912  0.00  0.00    +0.000 C 
ATOM     28  O   UNL     1       7.539   4.436  12.566  0.00  0.00    +0.000 OA
ENDBRANCH   6  20
TORSDOF 2
ENDMDL
MODEL 3
REMARK VINA RESULT:      -8.5      0.893      1.485
REMARK  Name = 
REMARK  2 active torsions:
REMARK  status: ('A' for Active; 'I' for Inactive)
REMARK    1  A    between atoms: C_2  and  C_18
REMARK    2  A    between atoms: C_6  and  C_7
REMARK                            x       y       z     vdW  Elec       q    Type
REMARK                         _______ _______ _______ _____ _____    ______ ____
ROOT
ATOM      1  O   UNL     1       1.730   9.196  18.748  0.00  0.00    +0.000 OA
ATOM      2  C   UNL     1       1.163   8.918  19.798  0.00  0.00    +0.000 C 
ATOM      3  N   UNL     1       1.276   7.756  20.529  0.00  0.00    +0.000 N 
ATOM      4  C   UNL     1       2.110   6.753  20.116  0.00  0.00    +0.000 A 
ATOM      5  N   UNL     1       3.048   6.779  19.207  0.00  0.00    +0.000 NA
ATOM      6  C   UNL     1       3.633   5.530  19.088  0.00  0.00    +0.000 A 
ATOM      7  C   UNL     1       3.070   4.558  19.897  0.00  0.00    +0.000 A 
ATOM      8  S   UNL     1       1.866   5.259  20.904  0.00  0.00    +0.000 S 
ATOM      9  H   UNL     1       0.649   7.547  21.287  0.00  0.00    +0.000 HD
ENDROOT
BRANCH   2  10
ATOM     10  C   UNL     1       0.184   9.907  20.318  0.00  0.00    +0.000 A 
ATOM     11  C   UNL     1      -0.588  10.608  19.373  0.00  0.00    +0.000 A 
ATOM     12  C   UNL     1      -1.483  11.613  19.757  0.00  0.00    +0.000 A 
ATOM     13  C   UNL     1      -1.544  11.886  21.121  0.00  0.00    +0.000 A 
ATOM     14  N   UNL     1      -2.244  12.800  21.860  0.00  0.00    +0.000 N 
ATOM     15  N   UNL     1      -1.973  12.694  23.170  0.00  0.00    +0.000 NA
ATOM     16  N   UNL     1      -1.084  11.718  23.318  0.00  0.00    +0.000 NA
ATOM     17  C   UNL     1      -0.800  11.210  22.079  0.00  0.00    +0.000 A 
ATOM     18  C   UNL     1       0.083  10.191  21.689  0.00  0.00    +0.000 A 
ATOM     19  H   UNL     1      -2.894  13.511  21.550  0.00  0.00    +0.000 HD
ENDBRANCH   2  10
BRANCH   6  20
ATOM     20  C   UNL     1       4.744   5.306  18.168  0.00  0.00    +0.000 A 
ATOM     21  C   UNL     1       6.037   5.058  18.685  0.00  0.00    +0.000 A 
ATOM     22  C   UNL     1       7.123   4.808  17.840  0.00  0.00    +0.000 A 
ATOM     23  C   UNL     1       6.892   4.792  16.482  0.00  0.00    +0.000 A 
ATOM     24  C   UNL     1       5.633   5.031  15.953  0.00  0.00    +0.000 A 
ATOM     25  C   UNL     1       4.551   5.295  16.775  0.00  0.00    +0.000 A 
ATOM     26  C   UNL     1       5.713   5.003  14.476  0.00  0.00    +0.000 C 
ATOM     27  C   UNL     1       7.084   4.345  14.322  0.00  0.00    +0.000 C 
ATOM     28  O   UNL     1       7.851   4.555  15.532  0.00  0.00    +0.000 OA
ENDBRANCH   6  20
TORSDOF 2
ENDMDL
MODEL 4
REMARK VINA RESULT:      -8.2      1.322      1.834
REMARK  Name = 
REMARK  2 active torsions:
REMARK  status: ('A' for Active; 'I' for Inactive)
REMARK    1  A    between atoms: C_2  and  C_18
REMARK    2  A    between atoms: C_6  and  C_7
REMARK                            x       y       z     vdW  Elec       q    Type
REMARK                         _______ _______ _______ _____ _____    ______ ____
ROOT
ATOM      1  O   UNL     1       2.142   8.696  17.425  0.00  0.00    +0.000 OA
ATOM      2  C   UNL     1       1.955   8.467  18.613  0.00  0.00    +0.000 C 
ATOM      3  N   UNL     1       2.410   7.388  19.340  0.00  0.00    +0.000 N 
ATOM      4  C   UNL     1       3.182   6.426  18.747  0.00  0.00    +0.000 A 
ATOM      5  N   UNL     1       3.790   6.451  17.591  0.00  0.00    +0.000 NA
ATOM      6  C   UNL     1       4.443   5.249  17.369  0.00  0.00    +0.000 A 
ATOM      7  C   UNL     1       4.261   4.310  18.369  0.00  0.00    +0.000 A 
ATOM      8  S   UNL     1       3.353   4.993  19.658  0.00  0.00    +0.000 S 
ATOM      9  H   UNL     1       2.071   7.196  20.267  0.00  0.00    +0.000 HD
ENDROOT
BRANCH   2  10
ATOM     10  C   UNL     1       1.080   9.412  19.354  0.00  0.00    +0.000 A 
ATOM     11  C   UNL     1       0.908   9.185  20.732  0.00  0.00    +0.000 A 
ATOM     12  C   UNL     1       0.045   9.972  21.503  0.00  0.00    +0.000 A 
ATOM     13  C   UNL     1      -0.641  10.973  20.819  0.00  0.00    +0.000 A 
ATOM     14  N   UNL     1      -1.578  11.892  21.203  0.00  0.00    +0.000 N 
ATOM     15  N   UNL     1      -1.968  12.666  20.178  0.00  0.00    +0.000 NA
ATOM     16  N   UNL     1      -1.304  12.264  19.099  0.00  0.00    +0.000 NA
ATOM     17  C   UNL     1      -0.489  11.225  19.462  0.00  0.00    +0.000 A 
ATOM     18  C   UNL     1       0.390  10.443  18.698  0.00  0.00    +0.000 A 
ATOM     19  H   UNL     1      -1.994  12.040  22.114  0.00  0.00    +0.000 HD
ENDBRANCH   2  10
BRANCH   6  20
ATOM     20  C   UNL     1       5.238   5.039  16.163  0.00  0.00    +0.000 A 
ATOM     21  C   UNL     1       6.589   5.459  16.138  0.00  0.00    +0.000 A 
ATOM     22  C   UNL     1       7.395   5.250  15.014  0.00  0.00    +0.000 A 
ATOM     23  C   UNL     1       6.838   4.602  13.934  0.00  0.00    +0.000 A 
ATOM     24  C   UNL     1       5.517   4.181  13.937  0.00  0.00    +0.000 A 
ATOM     25  C   UNL     1       4.701   4.393  15.035  0.00  0.00    +0.000 A 
ATOM     26  C   UNL     1       5.197   3.574  12.626  0.00  0.00    +0.000 C 
ATOM     27  C   UNL     1       6.619   3.393  12.092  0.00  0.00    +0.000 C 
ATOM     28  O   UNL     1       7.502   4.319  12.769  0.00  0.00    +0.000 OA
ENDBRANCH   6  20
TORSDOF 2
ENDMDL
MODEL 5
REMARK VINA RESULT:      -8.1      3.238      4.607
REMARK  Name = 
REMARK  2 active torsions:
REMARK  status: ('A' for Active; 'I' for Inactive)
REMARK    1  A    between atoms: C_2  and  C_18
REMARK    2  A    between atoms: C_6  and  C_7
REMARK                            x       y       z     vdW  Elec       q    Type
REMARK                         _______ _______ _______ _____ _____    ______ ____
ROOT
ATOM      1  O   UNL     1       0.267   9.713  22.455  0.00  0.00    +0.000 OA
ATOM      2  C   UNL     1      -0.035  10.594  21.660  0.00  0.00    +0.000 C 
ATOM      3  N   UNL     1       0.285  10.658  20.321  0.00  0.00    +0.000 N 
ATOM      4  C   UNL     1       1.002   9.655  19.728  0.00  0.00    +0.000 A 
ATOM      5  N   UNL     1       1.278   8.459  20.177  0.00  0.00    +0.000 NA
ATOM      6  C   UNL     1       2.057   7.773  19.260  0.00  0.00    +0.000 A 
ATOM      7  C   UNL     1       2.398   8.509  18.139  0.00  0.00    +0.000 A 
ATOM      8  S   UNL     1       1.628  10.045  18.189  0.00  0.00    +0.000 S 
ATOM      9  H   UNL     1       0.139  11.496  19.784  0.00  0.00    +0.000 HD
ENDROOT
BRANCH   2  10
ATOM     10  C   UNL     1      -0.766  11.769  22.199  0.00  0.00    +0.000 A 
ATOM     11  C   UNL     1      -0.194  13.037  21.987  0.00  0.00    +0.000 A 
ATOM     12  C   UNL     1      -0.765  14.198  22.519  0.00  0.00    +0.000 A 
ATOM     13  C   UNL     1      -1.916  14.017  23.283  0.00  0.00    +0.000 A 
ATOM     14  N   UNL     1      -2.715  14.876  23.985  0.00  0.00    +0.000 N 
ATOM     15  N   UNL     1      -3.731  14.234  24.584  0.00  0.00    +0.000 NA
ATOM     16  N   UNL     1      -3.613  12.943  24.297  0.00  0.00    +0.000 NA
ATOM     17  C   UNL     1      -2.508  12.780  23.506  0.00  0.00    +0.000 A 
ATOM     18  C   UNL     1      -1.939  11.622  22.955  0.00  0.00    +0.000 A 
ATOM     19  H   UNL     1      -2.628  15.876  24.107  0.00  0.00    +0.000 HD
ENDBRANCH   2  10
BRANCH   6  20
ATOM     20  C   UNL     1       2.464   6.393  19.506  0.00  0.00    +0.000 A 
ATOM     21  C   UNL     1       3.569   5.858  18.802  0.00  0.00    +0.000 A 
ATOM     22  C   UNL     1       4.012   4.551  19.028  0.00  0.00    +0.000 A 
ATOM     23  C   UNL     1       3.350   3.802  19.976  0.00  0.00    +0.000 A 
ATOM     24  C   UNL     1       2.266   4.306  20.677  0.00  0.00    +0.000 A 
ATOM     25  C   UNL     1       1.805   5.592  20.455  0.00  0.00    +0.000 A 
ATOM     26  C   UNL     1       1.736   3.254  21.574  0.00  0.00    +0.000 C 
ATOM     27  C   UNL     1       2.913   2.280  21.524  0.00  0.00    +0.000 C 
ATOM     28  O   UNL     1       3.671   2.513  20.313  0.00  0.00    +0.000 OA
ENDBRANCH   6  20
TORSDOF 2
ENDMDL
MODEL 6
REMARK VINA RESULT:      -8.1      3.110      4.890
REMARK  Name = 
REMARK  2 active torsions:
REMARK  status: ('A' for Active; 'I' for Inactive)
REMARK    1  A    between atoms: C_2  and  C_18
REMARK    2  A    between atoms: C_6  and  C_7
REMARK                            x       y       z     vdW  Elec       q    Type
REMARK                         _______ _______ _______ _____ _____    ______ ____
ROOT
ATOM      1  O   UNL     1      -0.239  10.631  23.025  0.00  0.00    +0.000 OA
ATOM      2  C   UNL     1      -0.867  11.478  22.402  0.00  0.00    +0.000 C 
ATOM      3  N   UNL     1      -0.863  11.692  21.041  0.00  0.00    +0.000 N 
ATOM      4  C   UNL     1      -0.114  10.898  20.215  0.00  0.00    +0.000 A 
ATOM      5  N   UNL     1       0.474   9.760  20.471  0.00  0.00    +0.000 NA
ATOM      6  C   UNL     1       1.152   9.310  19.351  0.00  0.00    +0.000 A 
ATOM      7  C   UNL     1       1.097  10.169  18.268  0.00  0.00    +0.000 A 
ATOM      8  S   UNL     1       0.079  11.506  18.632  0.00  0.00    +0.000 S 
ATOM      9  H   UNL     1      -1.278  12.513  20.634  0.00  0.00    +0.000 HD
ENDROOT
BRANCH   2  10
ATOM     10  C   UNL     1      -1.675  12.440  23.196  0.00  0.00    +0.000 A 
ATOM     11  C   UNL     1      -2.979  12.048  23.549  0.00  0.00    +0.000 A 
ATOM     12  C   UNL     1      -3.845  12.911  24.230  0.00  0.00    +0.000 A 
ATOM     13  C   UNL     1      -3.343  14.178  24.516  0.00  0.00    +0.000 A 
ATOM     14  N   UNL     1      -3.884  15.285  25.111  0.00  0.00    +0.000 N 
ATOM     15  N   UNL     1      -3.008  16.301  25.164  0.00  0.00    +0.000 NA
ATOM     16  N   UNL     1      -1.881  15.887  24.596  0.00  0.00    +0.000 NA
ATOM     17  C   UNL     1      -2.060  14.593  24.185  0.00  0.00    +0.000 A 
ATOM     18  C   UNL     1      -1.190  13.717  23.517  0.00  0.00    +0.000 A 
ATOM     19  H   UNL     1      -4.815  15.421  25.483  0.00  0.00    +0.000 HD
ENDBRANCH   2  10
BRANCH   6  20
ATOM     20  C   UNL     1       1.857   8.032  19.365  0.00  0.00    +0.000 A 
ATOM     21  C   UNL     1       1.674   7.147  20.454  0.00  0.00    +0.000 A 
ATOM     22  C   UNL     1       2.306   5.900  20.493  0.00  0.00    +0.000 A 
ATOM     23  C   UNL     1       3.101   5.547  19.425  0.00  0.00    +0.000 A 
ATOM     24  C   UNL     1       3.294   6.397  18.347  0.00  0.00    +0.000 A 
ATOM     25  C   UNL     1       2.689   7.641  18.300  0.00  0.00    +0.000 A 
ATOM     26  C   UNL     1       4.236   5.768  17.394  0.00  0.00    +0.000 C 
ATOM     27  C   UNL     1       4.201   4.337  17.932  0.00  0.00    +0.000 C 
ATOM     28  O   UNL     1       3.776   4.360  19.316  0.00  0.00    +0.000 OA
ENDBRANCH   6  20
TORSDOF 2
ENDMDL
MODEL 7
REMARK VINA RESULT:      -8.0      3.863      9.761
REMARK  Name = 
REMARK  2 active torsions:
REMARK  status: ('A' for Active; 'I' for Inactive)
REMARK    1  A    between atoms: C_2  and  C_18
REMARK    2  A    between atoms: C_6  and  C_7
REMARK                            x       y       z     vdW  Elec       q    Type
REMARK                         _______ _______ _______ _____ _____    ______ ____
ROOT
ATOM      1  O   UNL     1       1.456   5.818  20.707  0.00  0.00    +0.000 OA
ATOM      2  C   UNL     1       2.207   5.783  19.741  0.00  0.00    +0.000 C 
ATOM      3  N   UNL     1       2.510   6.814  18.878  0.00  0.00    +0.000 N 
ATOM      4  C   UNL     1       1.969   8.057  19.063  0.00  0.00    +0.000 A 
ATOM      5  N   UNL     1       1.341   8.539  20.101  0.00  0.00    +0.000 NA
ATOM      6  C   UNL     1       0.935   9.839  19.852  0.00  0.00    +0.000 A 
ATOM      7  C   UNL     1       1.232  10.295  18.580  0.00  0.00    +0.000 A 
ATOM      8  S   UNL     1       2.139   9.108  17.729  0.00  0.00    +0.000 S 
ATOM      9  H   UNL     1       3.005   6.653  18.017  0.00  0.00    +0.000 HD
ENDROOT
BRANCH   2  10
ATOM     10  C   UNL     1       2.812   4.469  19.402  0.00  0.00    +0.000 A 
ATOM     11  C   UNL     1       2.345   3.824  18.242  0.00  0.00    +0.000 A 
ATOM     12  C   UNL     1       2.795   2.550  17.879  0.00  0.00    +0.000 A 
ATOM     13  C   UNL     1       3.712   1.958  18.743  0.00  0.00    +0.000 A 
ATOM     14  N   UNL     1       4.333   0.740  18.754  0.00  0.00    +0.000 N 
ATOM     15  N   UNL     1       5.149   0.605  19.812  0.00  0.00    +0.000 NA
ATOM     16  N   UNL     1       5.073   1.726  20.521  0.00  0.00    +0.000 NA
ATOM     17  C   UNL     1       4.197   2.570  19.892  0.00  0.00    +0.000 A 
ATOM     18  C   UNL     1       3.753   3.854  20.242  0.00  0.00    +0.000 A 
ATOM     19  H   UNL     1       4.245  -0.030  18.103  0.00  0.00    +0.000 HD
ENDBRANCH   2  10
BRANCH   6  20
ATOM     20  C   UNL     1       0.247  10.620  20.877  0.00  0.00    +0.000 A 
ATOM     21  C   UNL     1      -0.326   9.958  21.988  0.00  0.00    +0.000 A 
ATOM     22  C   UNL     1      -0.967  10.669  23.007  0.00  0.00    +0.000 A 
ATOM     23  C   UNL     1      -1.007  12.042  22.908  0.00  0.00    +0.000 A 
ATOM     24  C   UNL     1      -0.451  12.712  21.829  0.00  0.00    +0.000 A 
ATOM     25  C   UNL     1       0.173  12.022  20.804  0.00  0.00    +0.000 A 
ATOM     26  C   UNL     1      -0.701  14.163  21.976  0.00  0.00    +0.000 C 
ATOM     27  C   UNL     1      -1.118  14.186  23.447  0.00  0.00    +0.000 C 
ATOM     28  O   UNL     1      -1.591  12.873  23.829  0.00  0.00    +0.000 OA
ENDBRANCH   6  20
TORSDOF 2
ENDMDL
MODEL 8
REMARK VINA RESULT:      -8.0      3.075      4.145
REMARK  Name = 
REMARK  2 active torsions:
REMARK  status: ('A' for Active; 'I' for Inactive)
REMARK    1  A    between atoms: C_2  and  C_18
REMARK    2  A    between atoms: C_6  and  C_7
REMARK                            x       y       z     vdW  Elec       q    Type
REMARK                         _______ _______ _______ _____ _____    ______ ____
ROOT
ATOM      1  O   UNL     1       0.227   9.602  22.298  0.00  0.00    +0.000 OA
ATOM      2  C   UNL     1       0.010  10.540  21.542  0.00  0.00    +0.000 C 
ATOM      3  N   UNL     1       0.393  10.660  20.224  0.00  0.00    +0.000 N 
ATOM      4  C   UNL     1       1.080   9.651  19.605  0.00  0.00    +0.000 A 
ATOM      5  N   UNL     1       1.269   8.419  19.996  0.00  0.00    +0.000 NA
ATOM      6  C   UNL     1       2.051   7.741  19.075  0.00  0.00    +0.000 A 
ATOM      7  C   UNL     1       2.482   8.516  18.013  0.00  0.00    +0.000 A 
ATOM      8  S   UNL     1       1.796  10.089  18.119  0.00  0.00    +0.000 S 
ATOM      9  H   UNL     1       0.318  11.532  19.730  0.00  0.00    +0.000 HD
ENDROOT
BRANCH   2  10
ATOM     10  C   UNL     1      -0.679  11.724  22.116  0.00  0.00    +0.000 A 
ATOM     11  C   UNL     1      -0.070  12.978  21.929  0.00  0.00    +0.000 A 
ATOM     12  C   UNL     1      -0.599  14.143  22.494  0.00  0.00    +0.000 A 
ATOM     13  C   UNL     1      -1.748  13.979  23.265  0.00  0.00    +0.000 A 
ATOM     14  N   UNL     1      -2.514  14.845  23.996  0.00  0.00    +0.000 N 
ATOM     15  N   UNL     1      -3.543  14.221  24.589  0.00  0.00    +0.000 NA
ATOM     16  N   UNL     1      -3.469  12.934  24.270  0.00  0.00    +0.000 NA
ATOM     17  C   UNL     1      -2.376  12.757  23.464  0.00  0.00    +0.000 A 
ATOM     18  C   UNL     1      -1.849  11.595  22.881  0.00  0.00    +0.000 A 
ATOM     19  H   UNL     1      -2.394  15.840  24.141  0.00  0.00    +0.000 HD
ENDBRANCH   2  10
BRANCH   6  20
ATOM     20  C   UNL     1       2.370   6.328  19.258  0.00  0.00    +0.000 A 
ATOM     21  C   UNL     1       2.079   5.703  20.494  0.00  0.00    +0.000 A 
ATOM     22  C   UNL     1       2.341   4.345  20.702  0.00  0.00    +0.000 A 
ATOM     23  C   UNL     1       2.875   3.625  19.657  0.00  0.00    +0.000 A 
ATOM     24  C   UNL     1       3.167   4.216  18.437  0.00  0.00    +0.000 A 
ATOM     25  C   UNL     1       2.929   5.562  18.219  0.00  0.00    +0.000 A 
ATOM     26  C   UNL     1       3.778   3.207  17.542  0.00  0.00    +0.000 C 
ATOM     27  C   UNL     1       3.412   1.943  18.320  0.00  0.00    +0.000 C 
ATOM     28  O   UNL     1       3.177   2.289  19.706  0.00  0.00    +0.000 OA
ENDBRANCH   6  20
TORSDOF 2
ENDMDL
MODEL 9
REMARK VINA RESULT:      -8.0      3.343      4.615
REMARK  Name = 
REMARK  2 active torsions:
REMARK  status: ('A' for Active; 'I' for Inactive)
REMARK    1  A    between atoms: C_2  and  C_18
REMARK    2  A    between atoms: C_6  and  C_7
REMARK                            x       y       z     vdW  Elec       q    Type
REMARK                         _______ _______ _______ _____ _____    ______ ____
ROOT
ATOM      1  O   UNL     1       0.428   9.885  22.506  0.00  0.00    +0.000 OA
ATOM      2  C   UNL     1       0.072  10.740  21.705  0.00  0.00    +0.000 C 
ATOM      3  N   UNL     1       0.308  10.765  20.348  0.00  0.00    +0.000 N 
ATOM      4  C   UNL     1       0.991   9.747  19.741  0.00  0.00    +0.000 A 
ATOM      5  N   UNL     1       1.300   8.567  20.207  0.00  0.00    +0.000 NA
ATOM      6  C   UNL     1       2.025   7.856  19.264  0.00  0.00    +0.000 A 
ATOM      7  C   UNL     1       2.292   8.559  18.103  0.00  0.00    +0.000 A 
ATOM      8  S   UNL     1       1.518  10.094  18.155  0.00  0.00    +0.000 S 
ATOM      9  H   UNL     1       0.124  11.586  19.796  0.00  0.00    +0.000 HD
ENDROOT
BRANCH   2  10
ATOM     10  C   UNL     1      -0.630  11.929  22.254  0.00  0.00    +0.000 A 
ATOM     11  C   UNL     1      -1.820  11.700  22.969  0.00  0.00    +0.000 A 
ATOM     12  C   UNL     1      -2.596  12.756  23.460  0.00  0.00    +0.000 A 
ATOM     13  C   UNL     1      -2.127  14.038  23.180  0.00  0.00    +0.000 A 
ATOM     14  N   UNL     1      -2.614  15.288  23.444  0.00  0.00    +0.000 N 
ATOM     15  N   UNL     1      -1.807  16.249  22.966  0.00  0.00    +0.000 NA
ATOM     16  N   UNL     1      -0.781  15.650  22.370  0.00  0.00    +0.000 NA
ATOM     17  C   UNL     1      -0.955  14.296  22.482  0.00  0.00    +0.000 A 
ATOM     18  C   UNL     1      -0.173  13.232  22.006  0.00  0.00    +0.000 A 
ATOM     19  H   UNL     1      -3.466  15.556  23.919  0.00  0.00    +0.000 HD
ENDBRANCH   2  10
BRANCH   6  20
ATOM     20  C   UNL     1       2.454   6.485  19.525  0.00  0.00    +0.000 A 
ATOM     21  C   UNL     1       3.639   6.001  18.923  0.00  0.00    +0.000 A 
ATOM     22  C   UNL     1       4.102   4.704  19.169  0.00  0.00    +0.000 A 
ATOM     23  C   UNL     1       3.378   3.915  20.034  0.00  0.00    +0.000 A 
ATOM     24  C   UNL     1       2.214   4.369  20.635  0.00  0.00    +0.000 A 
ATOM     25  C   UNL     1       1.733   5.643  20.391  0.00  0.00    +0.000 A 
ATOM     26  C   UNL     1       1.636   3.282  21.458  0.00  0.00    +0.000 C 
ATOM     27  C   UNL     1       2.845   2.348  21.506  0.00  0.00    +0.000 C 
ATOM     28  O   UNL     1       3.709   2.630  20.378  0.00  0.00    +0.000 OA
ENDBRANCH   6  20
TORSDOF 2
ENDMDL
