MODEL 1
REMARK VINA RESULT:      -8.9      0.000      0.000
REMARK  Name = 
REMARK  5 active torsions:
REMARK  status: ('A' for Active; 'I' for Inactive)
REMARK    1  A    between atoms: C_1  and  C_2
REMARK    2  A    between atoms: C_6  and  C_7
REMARK    3  A    between atoms: C_10  and  C_11
REMARK    4  A    between atoms: C_11  and  N_12
REMARK    5  A    between atoms: N_16  and  C_17
REMARK                            x       y       z     vdW  Elec       q    Type
REMARK                         _______ _______ _______ _____ _____    ______ ____
ROOT
ATOM      1  C   UNL     1       7.073   5.336  17.225  0.00  0.00    +0.000 C 
ENDROOT
BRANCH   1   2
ATOM      2  N   UNL     1       5.759   5.530  17.773  0.00  0.00    +0.000 N 
ATOM      3  C   UNL     1       4.931   6.564  17.490  0.00  0.00    +0.000 C 
ATOM      4  O   UNL     1       5.216   7.562  16.846  0.00  0.00    +0.000 OA
ATOM      5  C   UNL     1       3.574   6.290  18.105  0.00  0.00    +0.000 C 
ATOM      6  N   UNL     1       3.808   5.004  18.721  0.00  0.00    +0.000 N 
ATOM      7  C   UNL     1       5.134   4.595  18.540  0.00  0.00    +0.000 C 
ATOM      8  O   UNL     1       5.694   3.594  18.961  0.00  0.00    +0.000 OA
BRANCH   6   9
ATOM      9  C   UNL     1       2.809   4.292  19.417  0.00  0.00    +0.000 A 
ATOM     10  C   UNL     1       1.861   3.516  18.734  0.00  0.00    +0.000 A 
ATOM     11  C   UNL     1       0.889   2.794  19.412  0.00  0.00    +0.000 A 
ATOM     12  C   UNL     1       0.829   2.850  20.797  0.00  0.00    +0.000 A 
ATOM     13  C   UNL     1       1.746   3.628  21.497  0.00  0.00    +0.000 A 
ATOM     14  C   UNL     1       2.736   4.341  20.817  0.00  0.00    +0.000 A 
ENDBRANCH   6   9
ENDBRANCH   1   2
BRANCH   1  18
ATOM     15  C   UNL     1       6.615   4.379  13.818  0.00  0.00    +0.000 A 
ATOM     16  N   UNL     1       7.617   5.262  13.667  0.00  0.00    +0.000 NA
ATOM     17  O   UNL     1       7.841   5.737  14.958  0.00  0.00    +0.000 OA
ATOM     18  C   UNL     1       6.958   5.087  15.766  0.00  0.00    +0.000 A 
ATOM     19  N   UNL     1       6.154   4.281  15.113  0.00  0.00    +0.000 NA
BRANCH  15  25
ATOM     20  C   UNL     1       3.000   3.228  10.556  0.00  0.00    +0.000 C 
ATOM     21  C   UNL     1       4.350   2.954  11.148  0.00  0.00    +0.000 A 
ATOM     22  C   UNL     1       5.166   1.937  10.636  0.00  0.00    +0.000 A 
ATOM     23  C   UNL     1       6.432   1.719  11.172  0.00  0.00    +0.000 A 
ATOM     24  C   UNL     1       6.898   2.514  12.219  0.00  0.00    +0.000 A 
ATOM     25  C   UNL     1       6.100   3.530  12.754  0.00  0.00    +0.000 A 
ATOM     26  C   UNL     1       4.818   3.741  12.210  0.00  0.00    +0.000 A 
ENDBRANCH  15  25
ENDBRANCH   1  18
TORSDOF 4
ENDMDL
MODEL 2
REMARK VINA RESULT:      -8.6      0.444      1.621
REMARK  Name = 
REMARK  5 active torsions:
REMARK  status: ('A' for Active; 'I' for Inactive)
REMARK    1  A    between atoms: C_1  and  C_2
REMARK    2  A    between atoms: C_6  and  C_7
REMARK    3  A    between atoms: C_10  and  C_11
REMARK    4  A    between atoms: C_11  and  N_12
REMARK    5  A    between atoms: N_16  and  C_17
REMARK                            x       y       z     vdW  Elec       q    Type
REMARK                         _______ _______ _______ _____ _____    ______ ____
ROOT
ATOM      1  C   UNL     1       7.117   5.165  17.280  0.00  0.00    +0.000 C 
ENDROOT
BRANCH   1   2
ATOM      2  N   UNL     1       5.841   5.388  17.904  0.00  0.00    +0.000 N 
ATOM      3  C   UNL     1       5.046   6.467  17.711  0.00  0.00    +0.000 C 
ATOM      4  O   UNL     1       5.341   7.482  17.098  0.00  0.00    +0.000 OA
ATOM      5  C   UNL     1       3.712   6.221  18.383  0.00  0.00    +0.000 C 
ATOM      6  N   UNL     1       3.920   4.899  18.929  0.00  0.00    +0.000 N 
ATOM      7  C   UNL     1       5.215   4.445  18.660  0.00  0.00    +0.000 C 
ATOM      8  O   UNL     1       5.752   3.403  19.006  0.00  0.00    +0.000 OA
BRANCH   6   9
ATOM      9  C   UNL     1       2.927   4.198  19.643  0.00  0.00    +0.000 A 
ATOM     10  C   UNL     1       3.033   3.996  21.027  0.00  0.00    +0.000 A 
ATOM     11  C   UNL     1       2.048   3.328  21.741  0.00  0.00    +0.000 A 
ATOM     12  C   UNL     1       0.938   2.823  21.079  0.00  0.00    +0.000 A 
ATOM     13  C   UNL     1       0.819   2.994  19.703  0.00  0.00    +0.000 A 
ATOM     14  C   UNL     1       1.800   3.682  18.987  0.00  0.00    +0.000 A 
ENDBRANCH   6   9
ENDBRANCH   1   2
BRANCH   1  18
ATOM     15  C   UNL     1       6.446   4.374  13.866  0.00  0.00    +0.000 A 
ATOM     16  N   UNL     1       7.474   5.224  13.698  0.00  0.00    +0.000 NA
ATOM     17  O   UNL     1       7.782   5.633  14.993  0.00  0.00    +0.000 OA
ATOM     18  C   UNL     1       6.917   4.984  15.820  0.00  0.00    +0.000 A 
ATOM     19  N   UNL     1       6.049   4.238  15.178  0.00  0.00    +0.000 NA
BRANCH  15  25
ATOM     20  C   UNL     1       6.374   0.269  11.007  0.00  0.00    +0.000 C 
ATOM     21  C   UNL     1       5.784   1.592  11.394  0.00  0.00    +0.000 A 
ATOM     22  C   UNL     1       4.604   2.054  10.796  0.00  0.00    +0.000 A 
ATOM     23  C   UNL     1       4.049   3.268  11.194  0.00  0.00    +0.000 A 
ATOM     24  C   UNL     1       4.660   4.027  12.191  0.00  0.00    +0.000 A 
ATOM     25  C   UNL     1       5.843   3.591  12.797  0.00  0.00    +0.000 A 
ATOM     26  C   UNL     1       6.401   2.366  12.387  0.00  0.00    +0.000 A 
ENDBRANCH  15  25
ENDBRANCH   1  18
TORSDOF 4
ENDMDL
MODEL 3
REMARK VINA RESULT:      -8.5      3.771      6.672
REMARK  Name = 
REMARK  5 active torsions:
REMARK  status: ('A' for Active; 'I' for Inactive)
REMARK    1  A    between atoms: C_1  and  C_2
REMARK    2  A    between atoms: C_6  and  C_7
REMARK    3  A    between atoms: C_10  and  C_11
REMARK    4  A    between atoms: C_11  and  N_12
REMARK    5  A    between atoms: N_16  and  C_17
REMARK                            x       y       z     vdW  Elec       q    Type
REMARK                         _______ _______ _______ _____ _____    ______ ____
ROOT
ATOM      1  C   UNL     1       7.450   5.096  17.568  0.00  0.00    +0.000 C 
ENDROOT
BRANCH   1   2
ATOM      2  N   UNL     1       6.060   4.741  17.649  0.00  0.00    +0.000 N 
ATOM      3  C   UNL     1       5.287   4.336  16.613  0.00  0.00    +0.000 C 
ATOM      4  O   UNL     1       5.600   4.344  15.432  0.00  0.00    +0.000 OA
ATOM      5  C   UNL     1       3.953   3.863  17.150  0.00  0.00    +0.000 C 
ATOM      6  N   UNL     1       4.141   4.068  18.568  0.00  0.00    +0.000 N 
ATOM      7  C   UNL     1       5.394   4.631  18.831  0.00  0.00    +0.000 C 
ATOM      8  O   UNL     1       5.870   4.981  19.900  0.00  0.00    +0.000 OA
BRANCH   6   9
ATOM      9  C   UNL     1       3.160   3.742  19.528  0.00  0.00    +0.000 A 
ATOM     10  C   UNL     1       1.924   4.404  19.557  0.00  0.00    +0.000 A 
ATOM     11  C   UNL     1       0.944   4.073  20.483  0.00  0.00    +0.000 A 
ATOM     12  C   UNL     1       1.189   3.080  21.422  0.00  0.00    +0.000 A 
ATOM     13  C   UNL     1       2.416   2.422  21.425  0.00  0.00    +0.000 A 
ATOM     14  C   UNL     1       3.395   2.742  20.483  0.00  0.00    +0.000 A 
ENDBRANCH   6   9
ENDBRANCH   1   2
BRANCH   1  18
ATOM     15  C   UNL     1       7.954   8.619  17.834  0.00  0.00    +0.000 A 
ATOM     16  N   UNL     1       6.880   8.609  17.025  0.00  0.00    +0.000 NA
ATOM     17  O   UNL     1       6.631   7.254  16.819  0.00  0.00    +0.000 OA
ATOM     18  C   UNL     1       7.572   6.575  17.532  0.00  0.00    +0.000 A 
ATOM     19  N   UNL     1       8.433   7.362  18.132  0.00  0.00    +0.000 NA
BRANCH  15  25
ATOM     20  C   UNL     1       8.845  13.539  17.658  0.00  0.00    +0.000 C 
ATOM     21  C   UNL     1       8.968  12.222  18.363  0.00  0.00    +0.000 A 
ATOM     22  C   UNL     1       9.559  12.138  19.631  0.00  0.00    +0.000 A 
ATOM     23  C   UNL     1       9.633  10.914  20.289  0.00  0.00    +0.000 A 
ATOM     24  C   UNL     1       9.115   9.764  19.693  0.00  0.00    +0.000 A 
ATOM     25  C   UNL     1       8.528   9.819  18.425  0.00  0.00    +0.000 A 
ATOM     26  C   UNL     1       8.461  11.060  17.763  0.00  0.00    +0.000 A 
ENDBRANCH  15  25
ENDBRANCH   1  18
TORSDOF 4
ENDMDL
MODEL 4
REMARK VINA RESULT:      -8.4      2.764      8.061
REMARK  Name = 
REMARK  5 active torsions:
REMARK  status: ('A' for Active; 'I' for Inactive)
REMARK    1  A    between atoms: C_1  and  C_2
REMARK    2  A    between atoms: C_6  and  C_7
REMARK    3  A    between atoms: C_10  and  C_11
REMARK    4  A    between atoms: C_11  and  N_12
REMARK    5  A    between atoms: N_16  and  C_17
REMARK                            x       y       z     vdW  Elec       q    Type
REMARK                         _______ _______ _______ _____ _____    ______ ____
ROOT
ATOM      1  C   UNL     1       4.607   3.797  19.173  0.00  0.00    +0.000 C 
ENDROOT
BRANCH   1   2
ATOM      2  N   UNL     1       5.490   4.311  18.163  0.00  0.00    +0.000 N 
ATOM      3  C   UNL     1       6.680   4.919  18.389  0.00  0.00    +0.000 C 
ATOM      4  O   UNL     1       7.124   5.256  19.476  0.00  0.00    +0.000 OA
ATOM      5  C   UNL     1       7.388   5.121  17.066  0.00  0.00    +0.000 C 
ATOM      6  N   UNL     1       6.429   4.543  16.151  0.00  0.00    +0.000 N 
ATOM      7  C   UNL     1       5.289   4.104  16.832  0.00  0.00    +0.000 C 
ATOM      8  O   UNL     1       4.265   3.613  16.381  0.00  0.00    +0.000 OA
BRANCH   6   9
ATOM      9  C   UNL     1       6.647   4.462  14.760  0.00  0.00    +0.000 A 
ATOM     10  C   UNL     1       5.911   3.575  13.960  0.00  0.00    +0.000 A 
ATOM     11  C   UNL     1       6.102   3.507  12.587  0.00  0.00    +0.000 A 
ATOM     12  C   UNL     1       7.056   4.314  11.982  0.00  0.00    +0.000 A 
ATOM     13  C   UNL     1       7.811   5.188  12.757  0.00  0.00    +0.000 A 
ATOM     14  C   UNL     1       7.607   5.271  14.136  0.00  0.00    +0.000 A 
ENDBRANCH   6   9
ENDBRANCH   1   2
BRANCH   1  18
ATOM     15  C   UNL     1       2.351   6.514  19.689  0.00  0.00    +0.000 A 
ATOM     16  N   UNL     1       1.969   5.715  20.699  0.00  0.00    +0.000 NA
ATOM     17  O   UNL     1       2.772   4.585  20.553  0.00  0.00    +0.000 OA
ATOM     18  C   UNL     1       3.569   4.815  19.473  0.00  0.00    +0.000 A 
ATOM     19  N   UNL     1       3.319   5.959  18.880  0.00  0.00    +0.000 NA
BRANCH  15  25
ATOM     20  C   UNL     1       0.180  10.653  21.473  0.00  0.00    +0.000 C 
ATOM     21  C   UNL     1       0.819   9.907  20.340  0.00  0.00    +0.000 A 
ATOM     22  C   UNL     1       1.038  10.529  19.103  0.00  0.00    +0.000 A 
ATOM     23  C   UNL     1       1.665   9.835  18.073  0.00  0.00    +0.000 A 
ATOM     24  C   UNL     1       2.084   8.519  18.266  0.00  0.00    +0.000 A 
ATOM     25  C   UNL     1       1.870   7.873  19.488  0.00  0.00    +0.000 A 
ATOM     26  C   UNL     1       1.230   8.580  20.524  0.00  0.00    +0.000 A 
ENDBRANCH  15  25
ENDBRANCH   1  18
TORSDOF 4
ENDMDL
MODEL 5
REMARK VINA RESULT:      -8.4      4.282      7.252
REMARK  Name = 
REMARK  5 active torsions:
REMARK  status: ('A' for Active; 'I' for Inactive)
REMARK    1  A    between atoms: C_1  and  C_2
REMARK    2  A    between atoms: C_6  and  C_7
REMARK    3  A    between atoms: C_10  and  C_11
REMARK    4  A    between atoms: C_11  and  N_12
REMARK    5  A    between atoms: N_16  and  C_17
REMARK                            x       y       z     vdW  Elec       q    Type
REMARK                         _______ _______ _______ _____ _____    ______ ____
ROOT
ATOM      1  C   UNL     1       7.991   5.585  18.716  0.00  0.00    +0.000 C 
ENDROOT
BRANCH   1   2
ATOM      2  N   UNL     1       6.833   5.085  18.027  0.00  0.00    +0.000 N 
ATOM      3  C   UNL     1       6.803   4.658  16.741  0.00  0.00    +0.000 C 
ATOM      4  O   UNL     1       7.706   4.761  15.924  0.00  0.00    +0.000 OA
ATOM      5  C   UNL     1       5.456   4.023  16.465  0.00  0.00    +0.000 C 
ATOM      6  N   UNL     1       4.816   4.170  17.753  0.00  0.00    +0.000 N 
ATOM      7  C   UNL     1       5.648   4.845  18.652  0.00  0.00    +0.000 C 
ATOM      8  O   UNL     1       5.421   5.184  19.803  0.00  0.00    +0.000 OA
BRANCH   6   9
ATOM      9  C   UNL     1       3.516   3.695  18.023  0.00  0.00    +0.000 A 
ATOM     10  C   UNL     1       2.393   4.522  17.870  0.00  0.00    +0.000 A 
ATOM     11  C   UNL     1       1.108   4.055  18.110  0.00  0.00    +0.000 A 
ATOM     12  C   UNL     1       0.918   2.747  18.533  0.00  0.00    +0.000 A 
ATOM     13  C   UNL     1       2.017   1.913  18.711  0.00  0.00    +0.000 A 
ATOM     14  C   UNL     1       3.308   2.376  18.452  0.00  0.00    +0.000 A 
ENDBRANCH   6   9
ENDBRANCH   1   2
BRANCH   1  18
ATOM     15  C   UNL     1       8.491   9.107  18.440  0.00  0.00    +0.000 A 
ATOM     16  N   UNL     1       7.504   8.953  17.541  0.00  0.00    +0.000 NA
ATOM     17  O   UNL     1       7.267   7.580  17.539  0.00  0.00    +0.000 OA
ATOM     18  C   UNL     1       8.126   7.038  18.446  0.00  0.00    +0.000 A 
ATOM     19  N   UNL     1       8.929   7.922  18.990  0.00  0.00    +0.000 NA
BRANCH  15  25
ATOM     20  C   UNL     1      10.046  13.743  17.379  0.00  0.00    +0.000 C 
ATOM     21  C   UNL     1       9.769  12.664  18.383  0.00  0.00    +0.000 A 
ATOM     22  C   UNL     1       9.926  12.903  19.755  0.00  0.00    +0.000 A 
ATOM     23  C   UNL     1       9.629  11.902  20.677  0.00  0.00    +0.000 A 
ATOM     24  C   UNL     1       9.170  10.660  20.241  0.00  0.00    +0.000 A 
ATOM     25  C   UNL     1       9.012  10.394  18.877  0.00  0.00    +0.000 A 
ATOM     26  C   UNL     1       9.319  11.409  17.951  0.00  0.00    +0.000 A 
ENDBRANCH  15  25
ENDBRANCH   1  18
TORSDOF 4
ENDMDL
MODEL 6
REMARK VINA RESULT:      -8.4      4.202      6.825
REMARK  Name = 
REMARK  5 active torsions:
REMARK  status: ('A' for Active; 'I' for Inactive)
REMARK    1  A    between atoms: C_1  and  C_2
REMARK    2  A    between atoms: C_6  and  C_7
REMARK    3  A    between atoms: C_10  and  C_11
REMARK    4  A    between atoms: C_11  and  N_12
REMARK    5  A    between atoms: N_16  and  C_17
REMARK                            x       y       z     vdW  Elec       q    Type
REMARK                         _______ _______ _______ _____ _____    ______ ____
ROOT
ATOM      1  C   UNL     1       7.333   6.203  17.160  0.00  0.00    +0.000 C 
ENDROOT
BRANCH   1   2
ATOM      2  N   UNL     1       5.943   6.050  17.491  0.00  0.00    +0.000 N 
ATOM      3  C   UNL     1       4.900   6.415  16.706  0.00  0.00    +0.000 C 
ATOM      4  O   UNL     1       4.967   7.056  15.668  0.00  0.00    +0.000 OA
ATOM      5  C   UNL     1       3.617   5.898  17.322  0.00  0.00    +0.000 C 
ATOM      6  N   UNL     1       4.128   5.229  18.496  0.00  0.00    +0.000 N 
ATOM      7  C   UNL     1       5.516   5.372  18.591  0.00  0.00    +0.000 C 
ATOM      8  O   UNL     1       6.271   4.982  19.468  0.00  0.00    +0.000 OA
BRANCH   6   9
ATOM      9  C   UNL     1       3.301   4.544  19.411  0.00  0.00    +0.000 A 
ATOM     10  C   UNL     1       2.093   5.101  19.857  0.00  0.00    +0.000 A 
ATOM     11  C   UNL     1       1.262   4.423  20.738  0.00  0.00    +0.000 A 
ATOM     12  C   UNL     1       1.633   3.173  21.213  0.00  0.00    +0.000 A 
ATOM     13  C   UNL     1       2.835   2.607  20.799  0.00  0.00    +0.000 A 
ATOM     14  C   UNL     1       3.664   3.280  19.899  0.00  0.00    +0.000 A 
ENDBRANCH   6   9
ENDBRANCH   1   2
BRANCH   1  18
ATOM     15  C   UNL     1       8.537   9.407  18.168  0.00  0.00    +0.000 A 
ATOM     16  N   UNL     1       8.941   8.678  19.222  0.00  0.00    +0.000 NA
ATOM     17  O   UNL     1       8.468   7.398  18.942  0.00  0.00    +0.000 OA
ATOM     18  C   UNL     1       7.832   7.475  17.740  0.00  0.00    +0.000 A 
ATOM     19  N   UNL     1       7.805   8.690  17.247  0.00  0.00    +0.000 NA
BRANCH  15  25
ATOM     20  C   UNL     1       7.183  14.187  17.571  0.00  0.00    +0.000 C 
ATOM     21  C   UNL     1       8.256  13.143  17.661  0.00  0.00    +0.000 A 
ATOM     22  C   UNL     1       9.610  13.499  17.617  0.00  0.00    +0.000 A 
ATOM     23  C   UNL     1      10.594  12.521  17.739  0.00  0.00    +0.000 A 
ATOM     24  C   UNL     1      10.238  11.184  17.909  0.00  0.00    +0.000 A 
ATOM     25  C   UNL     1       8.894  10.801  17.947  0.00  0.00    +0.000 A 
ATOM     26  C   UNL     1       7.904  11.794  17.819  0.00  0.00    +0.000 A 
ENDBRANCH  15  25
ENDBRANCH   1  18
TORSDOF 4
ENDMDL
MODEL 7
REMARK VINA RESULT:      -8.4      4.296      7.026
REMARK  Name = 
REMARK  5 active torsions:
REMARK  status: ('A' for Active; 'I' for Inactive)
REMARK    1  A    between atoms: C_1  and  C_2
REMARK    2  A    between atoms: C_6  and  C_7
REMARK    3  A    between atoms: C_10  and  C_11
REMARK    4  A    between atoms: C_11  and  N_12
REMARK    5  A    between atoms: N_16  and  C_17
REMARK                            x       y       z     vdW  Elec       q    Type
REMARK                         _______ _______ _______ _____ _____    ______ ____
ROOT
ATOM      1  C   UNL     1       7.327   6.219  17.161  0.00  0.00    +0.000 C 
ENDROOT
BRANCH   1   2
ATOM      2  N   UNL     1       5.939   6.061  17.500  0.00  0.00    +0.000 N 
ATOM      3  C   UNL     1       4.891   6.428  16.724  0.00  0.00    +0.000 C 
ATOM      4  O   UNL     1       4.949   7.075  15.690  0.00  0.00    +0.000 OA
ATOM      5  C   UNL     1       3.613   5.905  17.346  0.00  0.00    +0.000 C 
ATOM      6  N   UNL     1       4.133   5.230  18.514  0.00  0.00    +0.000 N 
ATOM      7  C   UNL     1       5.522   5.375  18.599  0.00  0.00    +0.000 C 
ATOM      8  O   UNL     1       6.284   4.982  19.469  0.00  0.00    +0.000 OA
BRANCH   6   9
ATOM      9  C   UNL     1       3.314   4.538  19.429  0.00  0.00    +0.000 A 
ATOM     10  C   UNL     1       3.693   3.288  19.943  0.00  0.00    +0.000 A 
ATOM     11  C   UNL     1       2.904   2.612  20.863  0.00  0.00    +0.000 A 
ATOM     12  C   UNL     1       1.699   3.163  21.276  0.00  0.00    +0.000 A 
ATOM     13  C   UNL     1       1.292   4.392  20.766  0.00  0.00    +0.000 A 
ATOM     14  C   UNL     1       2.094   5.082  19.854  0.00  0.00    +0.000 A 
ENDBRANCH   6   9
ENDBRANCH   1   2
BRANCH   1  18
ATOM     15  C   UNL     1       8.535   9.400  18.234  0.00  0.00    +0.000 A 
ATOM     16  N   UNL     1       8.983   8.640  19.248  0.00  0.00    +0.000 NA
ATOM     17  O   UNL     1       8.513   7.365  18.941  0.00  0.00    +0.000 OA
ATOM     18  C   UNL     1       7.834   7.476  17.766  0.00  0.00    +0.000 A 
ATOM     19  N   UNL     1       7.777   8.707  17.316  0.00  0.00    +0.000 NA
BRANCH  15  25
ATOM     20  C   UNL     1      11.912  13.092  18.247  0.00  0.00    +0.000 C 
ATOM     21  C   UNL     1      10.503  12.622  18.042  0.00  0.00    +0.000 A 
ATOM     22  C   UNL     1       9.511  13.502  17.591  0.00  0.00    +0.000 A 
ATOM     23  C   UNL     1       8.216  13.042  17.370  0.00  0.00    +0.000 A 
ATOM     24  C   UNL     1       7.899  11.702  17.591  0.00  0.00    +0.000 A 
ATOM     25  C   UNL     1       8.869  10.805  18.049  0.00  0.00    +0.000 A 
ATOM     26  C   UNL     1      10.176  11.278  18.275  0.00  0.00    +0.000 A 
ENDBRANCH  15  25
ENDBRANCH   1  18
TORSDOF 4
ENDMDL
MODEL 8
REMARK VINA RESULT:      -8.3      1.776      2.993
REMARK  Name = 
REMARK  5 active torsions:
REMARK  status: ('A' for Active; 'I' for Inactive)
REMARK    1  A    between atoms: C_1  and  C_2
REMARK    2  A    between atoms: C_6  and  C_7
REMARK    3  A    between atoms: C_10  and  C_11
REMARK    4  A    between atoms: C_11  and  N_12
REMARK    5  A    between atoms: N_16  and  C_17
REMARK                            x       y       z     vdW  Elec       q    Type
REMARK                         _______ _______ _______ _____ _____    ______ ____
ROOT
ATOM      1  C   UNL     1       6.498   4.957  17.715  0.00  0.00    +0.000 C 
ENDROOT
BRANCH   1   2
ATOM      2  N   UNL     1       5.147   5.224  18.126  0.00  0.00    +0.000 N 
ATOM      3  C   UNL     1       4.340   4.363  18.792  0.00  0.00    +0.000 C 
ATOM      4  O   UNL     1       4.573   3.186  19.022  0.00  0.00    +0.000 OA
ATOM      5  C   UNL     1       3.084   5.095  19.215  0.00  0.00    +0.000 C 
ATOM      6  N   UNL     1       3.349   6.417  18.696  0.00  0.00    +0.000 N 
ATOM      7  C   UNL     1       4.571   6.452  18.016  0.00  0.00    +0.000 C 
ATOM      8  O   UNL     1       5.090   7.381  17.414  0.00  0.00    +0.000 OA
BRANCH   6   9
ATOM      9  C   UNL     1       2.462   7.500  18.863  0.00  0.00    +0.000 A 
ATOM     10  C   UNL     1       2.133   8.342  17.791  0.00  0.00    +0.000 A 
ATOM     11  C   UNL     1       1.242   9.396  17.941  0.00  0.00    +0.000 A 
ATOM     12  C   UNL     1       0.673   9.646  19.182  0.00  0.00    +0.000 A 
ATOM     13  C   UNL     1       0.999   8.837  20.266  0.00  0.00    +0.000 A 
ATOM     14  C   UNL     1       1.881   7.766  20.112  0.00  0.00    +0.000 A 
ENDBRANCH   6   9
ENDBRANCH   1   2
BRANCH   1  18
ATOM     15  C   UNL     1       6.420   4.330  14.203  0.00  0.00    +0.000 A 
ATOM     16  N   UNL     1       7.417   5.231  14.245  0.00  0.00    +0.000 NA
ATOM     17  O   UNL     1       7.494   5.580  15.591  0.00  0.00    +0.000 OA
ATOM     18  C   UNL     1       6.543   4.849  16.235  0.00  0.00    +0.000 A 
ATOM     19  N   UNL     1       5.827   4.104  15.426  0.00  0.00    +0.000 NA
BRANCH  15  25
ATOM     20  C   UNL     1       3.082   3.302  10.620  0.00  0.00    +0.000 C 
ATOM     21  C   UNL     1       4.423   3.070  11.251  0.00  0.00    +0.000 A 
ATOM     22  C   UNL     1       5.352   2.201  10.665  0.00  0.00    +0.000 A 
ATOM     23  C   UNL     1       6.606   2.025  11.243  0.00  0.00    +0.000 A 
ATOM     24  C   UNL     1       6.947   2.716  12.405  0.00  0.00    +0.000 A 
ATOM     25  C   UNL     1       6.035   3.583  13.014  0.00  0.00    +0.000 A 
ATOM     26  C   UNL     1       4.766   3.752  12.427  0.00  0.00    +0.000 A 
ENDBRANCH  15  25
ENDBRANCH   1  18
TORSDOF 4
ENDMDL
MODEL 9
REMARK VINA RESULT:      -8.3      4.319      7.319
REMARK  Name = 
REMARK  5 active torsions:
REMARK  status: ('A' for Active; 'I' for Inactive)
REMARK    1  A    between atoms: C_1  and  C_2
REMARK    2  A    between atoms: C_6  and  C_7
REMARK    3  A    between atoms: C_10  and  C_11
REMARK    4  A    between atoms: C_11  and  N_12
REMARK    5  A    between atoms: N_16  and  C_17
REMARK                            x       y       z     vdW  Elec       q    Type
REMARK                         _______ _______ _______ _____ _____    ______ ____
ROOT
ATOM      1  C   UNL     1       6.746   7.006  16.337  0.00  0.00    +0.000 C 
ENDROOT
BRANCH   1   2
ATOM      2  N   UNL     1       6.070   5.901  16.961  0.00  0.00    +0.000 N 
ATOM      3  C   UNL     1       6.633   4.712  17.284  0.00  0.00    +0.000 C 
ATOM      4  O   UNL     1       7.752   4.335  16.973  0.00  0.00    +0.000 OA
ATOM      5  C   UNL     1       5.647   3.908  18.105  0.00  0.00    +0.000 C 
ATOM      6  N   UNL     1       4.530   4.824  18.165  0.00  0.00    +0.000 N 
ATOM      7  C   UNL     1       4.798   5.989  17.438  0.00  0.00    +0.000 C 
ATOM      8  O   UNL     1       4.073   6.950  17.231  0.00  0.00    +0.000 OA
BRANCH   6   9
ATOM      9  C   UNL     1       3.339   4.539  18.863  0.00  0.00    +0.000 A 
ATOM     10  C   UNL     1       3.045   5.163  20.084  0.00  0.00    +0.000 A 
ATOM     11  C   UNL     1       1.864   4.905  20.766  0.00  0.00    +0.000 A 
ATOM     12  C   UNL     1       0.954   3.994  20.250  0.00  0.00    +0.000 A 
ATOM     13  C   UNL     1       1.231   3.347  19.050  0.00  0.00    +0.000 A 
ATOM     14  C   UNL     1       2.411   3.619  18.354  0.00  0.00    +0.000 A 
ENDBRANCH   6   9
ENDBRANCH   1   2
BRANCH   1  18
ATOM     15  C   UNL     1       8.609   9.114  18.533  0.00  0.00    +0.000 A 
ATOM     16  N   UNL     1       8.738   7.946  19.185  0.00  0.00    +0.000 NA
ATOM     17  O   UNL     1       7.992   7.052  18.420  0.00  0.00    +0.000 OA
ATOM     18  C   UNL     1       7.491   7.765  17.372  0.00  0.00    +0.000 A 
ATOM     19  N   UNL     1       7.800   9.040  17.419  0.00  0.00    +0.000 NA
BRANCH  15  25
ATOM     20  C   UNL     1      11.000  13.296  17.180  0.00  0.00    +0.000 C 
ATOM     21  C   UNL     1      10.474  12.390  18.253  0.00  0.00    +0.000 A 
ATOM     22  C   UNL     1      10.575  12.744  19.605  0.00  0.00    +0.000 A 
ATOM     23  C   UNL     1      10.049  11.909  20.587  0.00  0.00    +0.000 A 
ATOM     24  C   UNL     1       9.416  10.719  20.232  0.00  0.00    +0.000 A 
ATOM     25  C   UNL     1       9.310  10.338  18.891  0.00  0.00    +0.000 A 
ATOM     26  C   UNL     1       9.848  11.185  17.903  0.00  0.00    +0.000 A 
ENDBRANCH  15  25
ENDBRANCH   1  18
TORSDOF 4
ENDMDL
