MODEL 1
REMARK VINA RESULT:      -8.9      0.000      0.000
REMARK  Name = 
REMARK  6 active torsions:
REMARK  status: ('A' for Active; 'I' for Inactive)
REMARK    1  A    between atoms: C_1  and  C_2
REMARK    2  A    between atoms: C_5  and  C_6
REMARK    3  A    between atoms: C_8  and  C_9
REMARK    4  A    between atoms: N_14  and  C_15
REMARK    5  A    between atoms: N_19  and  C_20
REMARK    6  A    between atoms: C_20  and  C_21
REMARK                            x       y       z     vdW  Elec       q    Type
REMARK                         _______ _______ _______ _____ _____    ______ ____
ROOT
ATOM      1  C   UNL     1       6.841   6.178  16.800  0.00  0.00    +0.000 C 
ATOM      2  O   UNL     1       7.171   5.965  15.638  0.00  0.00    +0.000 OA
ATOM      3  N   UNL     1       5.797   5.472  17.404  0.00  0.00    +0.000 N 
ATOM      4  C   UNL     1       5.326   5.670  18.777  0.00  0.00    +0.000 C 
ATOM      5  C   UNL     1       4.823   4.378  19.427  0.00  0.00    +0.000 C 
ATOM      6  N   UNL     1       3.827   3.638  18.659  0.00  0.00    +0.000 NA
ATOM      7  C   UNL     1       4.353   3.402  17.294  0.00  0.00    +0.000 C 
ATOM      8  C   UNL     1       4.959   4.620  16.553  0.00  0.00    +0.000 C 
ENDROOT
BRANCH   6   9
ATOM      9  C   UNL     1       2.397   4.051  18.713  0.00  0.00    +0.000 C 
ATOM     10  C   UNL     1       1.588   3.471  19.880  0.00  0.00    +0.000 C 
ATOM     11  C   UNL     1       1.639   4.299  21.155  0.00  0.00    +0.000 C 
ATOM     12  C   UNL     1       1.360   5.767  20.885  0.00  0.00    +0.000 C 
ATOM     13  N   UNL     1       2.064   6.308  19.732  0.00  0.00    +0.000 N 
ATOM     14  C   UNL     1       2.183   5.566  18.560  0.00  0.00    +0.000 C 
ATOM     15  O   UNL     1       2.248   6.087  17.445  0.00  0.00    +0.000 OA
BRANCH  13  16
ATOM     16  C   UNL     1       2.219   7.759  19.646  0.00  0.00    +0.000 C 
BRANCH  16  17
ATOM     17  C   UNL     1       1.278   8.562  20.506  0.00  0.00    +0.000 A 
ATOM     18  C   UNL     1       1.335   8.501  21.903  0.00  0.00    +0.000 A 
ATOM     19  C   UNL     1       0.440   9.243  22.680  0.00  0.00    +0.000 A 
ATOM     20  C   UNL     1      -0.511  10.052  22.068  0.00  0.00    +0.000 A 
ATOM     21  C   UNL     1      -0.568  10.136  20.679  0.00  0.00    +0.000 A 
ATOM     22  C   UNL     1       0.324   9.396  19.902  0.00  0.00    +0.000 A 
ENDBRANCH  16  17
ENDBRANCH  13  16
ENDBRANCH   6   9
BRANCH   1  25
ATOM     23  C   UNL     1       8.573   8.912  18.443  0.00  0.00    +0.000 A 
ATOM     24  C   UNL     1       7.697   8.491  17.421  0.00  0.00    +0.000 A 
ATOM     25  C   UNL     1       7.553   7.131  17.608  0.00  0.00    +0.000 A 
ATOM     26  N   UNL     1       8.181   6.882  18.796  0.00  0.00    +0.000 N 
ATOM     27  N   UNL     1       8.922   7.903  19.250  0.00  0.00    +0.000 NA
ATOM     28  H   UNL     1       8.203   6.009  19.312  0.00  0.00    +0.000 HD
BRANCH  23  33
ATOM     29  C   UNL     1      11.162  12.585  20.371  0.00  0.00    +0.000 C 
ATOM     30  C   UNL     1      10.176  12.005  19.439  0.00  0.00    +0.000 A 
ATOM     31  C   UNL     1       9.489  12.488  18.348  0.00  0.00    +0.000 A 
ATOM     32  C   UNL     1       8.760  11.391  17.825  0.00  0.00    +0.000 A 
ATOM     33  C   UNL     1       9.043  10.307  18.632  0.00  0.00    +0.000 A 
ATOM     34  O   UNL     1       9.874  10.697  19.644  0.00  0.00    +0.000 OA
ENDBRANCH  23  33
ENDBRANCH   1  25
TORSDOF 5
ENDMDL
MODEL 2
REMARK VINA RESULT:      -8.5      0.775      1.095
REMARK  Name = 
REMARK  6 active torsions:
REMARK  status: ('A' for Active; 'I' for Inactive)
REMARK    1  A    between atoms: C_1  and  C_2
REMARK    2  A    between atoms: C_5  and  C_6
REMARK    3  A    between atoms: C_8  and  C_9
REMARK    4  A    between atoms: N_14  and  C_15
REMARK    5  A    between atoms: N_19  and  C_20
REMARK    6  A    between atoms: C_20  and  C_21
REMARK                            x       y       z     vdW  Elec       q    Type
REMARK                         _______ _______ _______ _____ _____    ______ ____
ROOT
ATOM      1  C   UNL     1       6.951   6.287  16.803  0.00  0.00    +0.000 C 
ATOM      2  O   UNL     1       7.340   6.061  15.662  0.00  0.00    +0.000 OA
ATOM      3  N   UNL     1       5.831   5.644  17.334  0.00  0.00    +0.000 N 
ATOM      4  C   UNL     1       5.287   5.862  18.677  0.00  0.00    +0.000 C 
ATOM      5  C   UNL     1       4.665   4.599  19.281  0.00  0.00    +0.000 C 
ATOM      6  N   UNL     1       3.677   3.926  18.445  0.00  0.00    +0.000 NA
ATOM      7  C   UNL     1       4.273   3.666  17.114  0.00  0.00    +0.000 C 
ATOM      8  C   UNL     1       4.997   4.849  16.424  0.00  0.00    +0.000 C 
ENDROOT
BRANCH   6   9
ATOM      9  C   UNL     1       2.275   4.426  18.414  0.00  0.00    +0.000 C 
ATOM     10  C   UNL     1       1.309   3.740  19.388  0.00  0.00    +0.000 C 
ATOM     11  C   UNL     1       1.260   4.367  20.773  0.00  0.00    +0.000 C 
ATOM     12  C   UNL     1       1.092   5.874  20.703  0.00  0.00    +0.000 C 
ATOM     13  N   UNL     1       1.950   6.527  19.726  0.00  0.00    +0.000 N 
ATOM     14  C   UNL     1       2.161   5.958  18.472  0.00  0.00    +0.000 C 
ATOM     15  O   UNL     1       2.379   6.631  17.463  0.00  0.00    +0.000 OA
BRANCH  13  16
ATOM     16  C   UNL     1       2.191   7.961  19.879  0.00  0.00    +0.000 C 
BRANCH  16  17
ATOM     17  C   UNL     1       1.007   8.849  19.601  0.00  0.00    +0.000 A 
ATOM     18  C   UNL     1       0.165   9.287  20.631  0.00  0.00    +0.000 A 
ATOM     19  C   UNL     1      -0.938  10.097  20.345  0.00  0.00    +0.000 A 
ATOM     20  C   UNL     1      -1.204  10.479  19.035  0.00  0.00    +0.000 A 
ATOM     21  C   UNL     1      -0.366  10.066  18.002  0.00  0.00    +0.000 A 
ATOM     22  C   UNL     1       0.735   9.257  18.284  0.00  0.00    +0.000 A 
ENDBRANCH  16  17
ENDBRANCH  13  16
ENDBRANCH   6   9
BRANCH   1  25
ATOM     23  C   UNL     1       8.696   8.917  18.596  0.00  0.00    +0.000 A 
ATOM     24  C   UNL     1       7.819   8.558  17.552  0.00  0.00    +0.000 A 
ATOM     25  C   UNL     1       7.667   7.191  17.663  0.00  0.00    +0.000 A 
ATOM     26  N   UNL     1       8.293   6.872  18.836  0.00  0.00    +0.000 N 
ATOM     27  N   UNL     1       9.039   7.862  19.346  0.00  0.00    +0.000 NA
ATOM     28  H   UNL     1       8.310   5.972  19.302  0.00  0.00    +0.000 HD
BRANCH  23  33
ATOM     29  C   UNL     1      10.031  12.802  21.249  0.00  0.00    +0.000 C 
ATOM     30  C   UNL     1       9.797  12.078  19.985  0.00  0.00    +0.000 A 
ATOM     31  C   UNL     1      10.080  12.339  18.663  0.00  0.00    +0.000 A 
ATOM     32  C   UNL     1       9.680  11.189  17.940  0.00  0.00    +0.000 A 
ATOM     33  C   UNL     1       9.173  10.297  18.863  0.00  0.00    +0.000 A 
ATOM     34  O   UNL     1       9.206  10.861  20.107  0.00  0.00    +0.000 OA
ENDBRANCH  23  33
ENDBRANCH   1  25
TORSDOF 5
ENDMDL
MODEL 3
REMARK VINA RESULT:      -8.3      4.736      8.716
REMARK  Name = 
REMARK  6 active torsions:
REMARK  status: ('A' for Active; 'I' for Inactive)
REMARK    1  A    between atoms: C_1  and  C_2
REMARK    2  A    between atoms: C_5  and  C_6
REMARK    3  A    between atoms: C_8  and  C_9
REMARK    4  A    between atoms: N_14  and  C_15
REMARK    5  A    between atoms: N_19  and  C_20
REMARK    6  A    between atoms: C_20  and  C_21
REMARK                            x       y       z     vdW  Elec       q    Type
REMARK                         _______ _______ _______ _____ _____    ______ ____
ROOT
ATOM      1  C   UNL     1       2.011   9.196  18.295  0.00  0.00    +0.000 C 
ATOM      2  O   UNL     1       2.510   9.592  17.246  0.00  0.00    +0.000 OA
ATOM      3  N   UNL     1       1.197  10.021  19.073  0.00  0.00    +0.000 N 
ATOM      4  C   UNL     1       0.572   9.639  20.342  0.00  0.00    +0.000 C 
ATOM      5  C   UNL     1      -0.790  10.304  20.561  0.00  0.00    +0.000 C 
ATOM      6  N   UNL     1      -0.809  11.755  20.412  0.00  0.00    +0.000 NA
ATOM      7  C   UNL     1      -0.225  12.110  19.097  0.00  0.00    +0.000 C 
ATOM      8  C   UNL     1       1.122  11.444  18.723  0.00  0.00    +0.000 C 
ENDROOT
BRANCH   6   9
ATOM      9  C   UNL     1      -0.367  12.618  21.543  0.00  0.00    +0.000 C 
ATOM     10  C   UNL     1      -0.039  14.071  21.174  0.00  0.00    +0.000 C 
ATOM     11  C   UNL     1      -1.230  15.016  21.217  0.00  0.00    +0.000 C 
ATOM     12  C   UNL     1      -2.014  14.874  22.509  0.00  0.00    +0.000 C 
ATOM     13  N   UNL     1      -2.265  13.498  22.909  0.00  0.00    +0.000 N 
ATOM     14  C   UNL     1      -1.272  12.529  22.782  0.00  0.00    +0.000 C 
ATOM     15  O   UNL     1      -1.185  11.562  23.541  0.00  0.00    +0.000 OA
BRANCH  13  16
ATOM     16  C   UNL     1      -3.352  13.248  23.855  0.00  0.00    +0.000 C 
BRANCH  16  17
ATOM     17  C   UNL     1      -4.694  12.962  23.236  0.00  0.00    +0.000 A 
ATOM     18  C   UNL     1      -5.856  12.886  24.014  0.00  0.00    +0.000 A 
ATOM     19  C   UNL     1      -7.088  12.602  23.417  0.00  0.00    +0.000 A 
ATOM     20  C   UNL     1      -7.170  12.399  22.045  0.00  0.00    +0.000 A 
ATOM     21  C   UNL     1      -6.026  12.489  21.255  0.00  0.00    +0.000 A 
ATOM     22  C   UNL     1      -4.794  12.771  21.848  0.00  0.00    +0.000 A 
ENDBRANCH  16  17
ENDBRANCH  13  16
ENDBRANCH   6   9
BRANCH   1  25
ATOM     23  C   UNL     1       2.464   5.649  18.919  0.00  0.00    +0.000 A 
ATOM     24  C   UNL     1       2.478   6.713  17.994  0.00  0.00    +0.000 A 
ATOM     25  C   UNL     1       2.205   7.842  18.740  0.00  0.00    +0.000 A 
ATOM     26  N   UNL     1       2.232   7.409  20.036  0.00  0.00    +0.000 N 
ATOM     27  N   UNL     1       2.246   6.075  20.169  0.00  0.00    +0.000 NA
ATOM     28  H   UNL     1       2.169   7.972  20.877  0.00  0.00    +0.000 HD
BRANCH  23  33
ATOM     29  C   UNL     1       4.369   1.158  19.265  0.00  0.00    +0.000 C 
ATOM     30  C   UNL     1       3.490   2.182  18.669  0.00  0.00    +0.000 A 
ATOM     31  C   UNL     1       2.482   2.153  17.731  0.00  0.00    +0.000 A 
ATOM     32  C   UNL     1       1.963   3.470  17.669  0.00  0.00    +0.000 A 
ATOM     33  C   UNL     1       2.688   4.224  18.570  0.00  0.00    +0.000 A 
ATOM     34  O   UNL     1       3.649   3.443  19.148  0.00  0.00    +0.000 OA
ENDBRANCH  23  33
ENDBRANCH   1  25
TORSDOF 5
ENDMDL
MODEL 4
REMARK VINA RESULT:      -8.2      4.091      8.349
REMARK  Name = 
REMARK  6 active torsions:
REMARK  status: ('A' for Active; 'I' for Inactive)
REMARK    1  A    between atoms: C_1  and  C_2
REMARK    2  A    between atoms: C_5  and  C_6
REMARK    3  A    between atoms: C_8  and  C_9
REMARK    4  A    between atoms: N_14  and  C_15
REMARK    5  A    between atoms: N_19  and  C_20
REMARK    6  A    between atoms: C_20  and  C_21
REMARK                            x       y       z     vdW  Elec       q    Type
REMARK                         _______ _______ _______ _____ _____    ______ ____
ROOT
ATOM      1  C   UNL     1       2.144   8.613  18.040  0.00  0.00    +0.000 C 
ATOM      2  O   UNL     1       2.959   9.015  17.217  0.00  0.00    +0.000 OA
ATOM      3  N   UNL     1       2.357   7.438  18.766  0.00  0.00    +0.000 N 
ATOM      4  C   UNL     1       1.435   6.876  19.755  0.00  0.00    +0.000 C 
ATOM      5  C   UNL     1       2.154   6.156  20.900  0.00  0.00    +0.000 C 
ATOM      6  N   UNL     1       3.125   5.147  20.492  0.00  0.00    +0.000 NA
ATOM      7  C   UNL     1       4.079   5.757  19.537  0.00  0.00    +0.000 C 
ATOM      8  C   UNL     1       3.477   6.577  18.369  0.00  0.00    +0.000 C 
ENDROOT
BRANCH   6   9
ATOM      9  C   UNL     1       2.658   3.782  20.120  0.00  0.00    +0.000 C 
ATOM     10  C   UNL     1       1.252   3.711  19.509  0.00  0.00    +0.000 C 
ATOM     11  C   UNL     1       1.212   3.889  17.999  0.00  0.00    +0.000 C 
ATOM     12  C   UNL     1       2.229   3.003  17.301  0.00  0.00    +0.000 C 
ATOM     13  N   UNL     1       3.547   3.003  17.920  0.00  0.00    +0.000 N 
ATOM     14  C   UNL     1       3.681   2.976  19.306  0.00  0.00    +0.000 C 
ATOM     15  O   UNL     1       4.640   2.447  19.871  0.00  0.00    +0.000 OA
BRANCH  13  16
ATOM     16  C   UNL     1       4.681   2.561  17.110  0.00  0.00    +0.000 C 
BRANCH  16  17
ATOM     17  C   UNL     1       5.507   3.662  16.498  0.00  0.00    +0.000 A 
ATOM     18  C   UNL     1       5.367   4.016  15.150  0.00  0.00    +0.000 A 
ATOM     19  C   UNL     1       6.157   5.030  14.601  0.00  0.00    +0.000 A 
ATOM     20  C   UNL     1       7.083   5.699  15.392  0.00  0.00    +0.000 A 
ATOM     21  C   UNL     1       7.221   5.370  16.738  0.00  0.00    +0.000 A 
ATOM     22  C   UNL     1       6.435   4.358  17.289  0.00  0.00    +0.000 A 
ENDBRANCH  16  17
ENDBRANCH  13  16
ENDBRANCH   6   9
BRANCH   1  25
ATOM     23  C   UNL     1      -1.014  10.383  18.297  0.00  0.00    +0.000 A 
ATOM     24  C   UNL     1      -0.237   9.412  17.634  0.00  0.00    +0.000 A 
ATOM     25  C   UNL     1       0.954   9.366  18.330  0.00  0.00    +0.000 A 
ATOM     26  N   UNL     1       0.736  10.150  19.429  0.00  0.00    +0.000 N 
ATOM     27  N   UNL     1      -0.384  10.884  19.366  0.00  0.00    +0.000 NA
ATOM     28  H   UNL     1       1.351  10.283  20.225  0.00  0.00    +0.000 HD
BRANCH  23  33
ATOM     29  C   UNL     1      -5.456  12.379  18.747  0.00  0.00    +0.000 C 
ATOM     30  C   UNL     1      -4.386  11.680  18.010  0.00  0.00    +0.000 A 
ATOM     31  C   UNL     1      -4.205  11.322  16.693  0.00  0.00    +0.000 A 
ATOM     32  C   UNL     1      -2.909  10.754  16.614  0.00  0.00    +0.000 A 
ATOM     33  C   UNL     1      -2.380  10.796  17.888  0.00  0.00    +0.000 A 
ATOM     34  O   UNL     1      -3.303  11.322  18.747  0.00  0.00    +0.000 OA
ENDBRANCH  23  33
ENDBRANCH   1  25
TORSDOF 5
ENDMDL
MODEL 5
REMARK VINA RESULT:      -8.2      4.008      8.150
REMARK  Name = 
REMARK  6 active torsions:
REMARK  status: ('A' for Active; 'I' for Inactive)
REMARK    1  A    between atoms: C_1  and  C_2
REMARK    2  A    between atoms: C_5  and  C_6
REMARK    3  A    between atoms: C_8  and  C_9
REMARK    4  A    between atoms: N_14  and  C_15
REMARK    5  A    between atoms: N_19  and  C_20
REMARK    6  A    between atoms: C_20  and  C_21
REMARK                            x       y       z     vdW  Elec       q    Type
REMARK                         _______ _______ _______ _____ _____    ______ ____
ROOT
ATOM      1  C   UNL     1       1.938   8.950  18.128  0.00  0.00    +0.000 C 
ATOM      2  O   UNL     1       2.621   9.382  17.206  0.00  0.00    +0.000 OA
ATOM      3  N   UNL     1       2.250   7.749  18.769  0.00  0.00    +0.000 N 
ATOM      4  C   UNL     1       1.484   7.152  19.866  0.00  0.00    +0.000 C 
ATOM      5  C   UNL     1       2.364   6.388  20.861  0.00  0.00    +0.000 C 
ATOM      6  N   UNL     1       3.255   5.394  20.274  0.00  0.00    +0.000 NA
ATOM      7  C   UNL     1       4.057   6.038  19.208  0.00  0.00    +0.000 C 
ATOM      8  C   UNL     1       3.291   6.902  18.175  0.00  0.00    +0.000 C 
ENDROOT
BRANCH   6   9
ATOM      9  C   UNL     1       2.727   4.045  19.927  0.00  0.00    +0.000 C 
ATOM     10  C   UNL     1       1.344   4.029  19.262  0.00  0.00    +0.000 C 
ATOM     11  C   UNL     1       1.374   4.157  17.746  0.00  0.00    +0.000 C 
ATOM     12  C   UNL     1       2.366   3.193  17.120  0.00  0.00    +0.000 C 
ATOM     13  N   UNL     1       3.656   3.143  17.791  0.00  0.00    +0.000 N 
ATOM     14  C   UNL     1       3.735   3.156  19.181  0.00  0.00    +0.000 C 
ATOM     15  O   UNL     1       4.640   2.596  19.802  0.00  0.00    +0.000 OA
BRANCH  13  16
ATOM     16  C   UNL     1       4.795   2.611  17.043  0.00  0.00    +0.000 C 
BRANCH  16  17
ATOM     17  C   UNL     1       5.610   3.633  16.295  0.00  0.00    +0.000 A 
ATOM     18  C   UNL     1       5.651   3.653  14.896  0.00  0.00    +0.000 A 
ATOM     19  C   UNL     1       6.429   4.601  14.225  0.00  0.00    +0.000 A 
ATOM     20  C   UNL     1       7.164   5.537  14.944  0.00  0.00    +0.000 A 
ATOM     21  C   UNL     1       7.120   5.541  16.337  0.00  0.00    +0.000 A 
ATOM     22  C   UNL     1       6.345   4.595  17.009  0.00  0.00    +0.000 A 
ENDBRANCH  16  17
ENDBRANCH  13  16
ENDBRANCH   6   9
BRANCH   1  25
ATOM     23  C   UNL     1      -0.680  10.792  19.840  0.00  0.00    +0.000 A 
ATOM     24  C   UNL     1       0.641  10.299  19.851  0.00  0.00    +0.000 A 
ATOM     25  C   UNL     1       0.811   9.694  18.623  0.00  0.00    +0.000 A 
ATOM     26  N   UNL     1      -0.317  10.022  17.923  0.00  0.00    +0.000 N 
ATOM     27  N   UNL     1      -1.290  10.561  18.671  0.00  0.00    +0.000 NA
ATOM     28  H   UNL     1      -0.513   9.837  16.945  0.00  0.00    +0.000 HD
BRANCH  23  33
ATOM     29  C   UNL     1      -4.046  13.484  22.149  0.00  0.00    +0.000 C 
ATOM     30  C   UNL     1      -2.799  12.700  22.077  0.00  0.00    +0.000 A 
ATOM     31  C   UNL     1      -1.908  12.225  23.013  0.00  0.00    +0.000 A 
ATOM     32  C   UNL     1      -0.959  11.454  22.299  0.00  0.00    +0.000 A 
ATOM     33  C   UNL     1      -1.325  11.507  20.969  0.00  0.00    +0.000 A 
ATOM     34  O   UNL     1      -2.425  12.307  20.831  0.00  0.00    +0.000 OA
ENDBRANCH  23  33
ENDBRANCH   1  25
TORSDOF 5
ENDMDL
MODEL 6
REMARK VINA RESULT:      -8.1      5.644     10.283
REMARK  Name = 
REMARK  6 active torsions:
REMARK  status: ('A' for Active; 'I' for Inactive)
REMARK    1  A    between atoms: C_1  and  C_2
REMARK    2  A    between atoms: C_5  and  C_6
REMARK    3  A    between atoms: C_8  and  C_9
REMARK    4  A    between atoms: N_14  and  C_15
REMARK    5  A    between atoms: N_19  and  C_20
REMARK    6  A    between atoms: C_20  and  C_21
REMARK                            x       y       z     vdW  Elec       q    Type
REMARK                         _______ _______ _______ _____ _____    ______ ____
ROOT
ATOM      1  C   UNL     1      -1.110  11.678  22.171  0.00  0.00    +0.000 C 
ATOM      2  O   UNL     1      -0.754  11.558  23.338  0.00  0.00    +0.000 OA
ATOM      3  N   UNL     1      -2.179  12.504  21.815  0.00  0.00    +0.000 N 
ATOM      4  C   UNL     1      -2.681  12.696  20.452  0.00  0.00    +0.000 C 
ATOM      5  C   UNL     1      -3.220  14.109  20.209  0.00  0.00    +0.000 C 
ATOM      6  N   UNL     1      -4.207  14.578  21.176  0.00  0.00    +0.000 NA
ATOM      7  C   UNL     1      -3.650  14.425  22.540  0.00  0.00    +0.000 C 
ATOM      8  C   UNL     1      -3.008  13.060  22.890  0.00  0.00    +0.000 C 
ENDROOT
BRANCH   6   9
ATOM      9  C   UNL     1      -5.631  14.166  21.034  0.00  0.00    +0.000 C 
ATOM     10  C   UNL     1      -6.514  15.119  20.217  0.00  0.00    +0.000 C 
ATOM     11  C   UNL     1      -6.523  14.843  18.722  0.00  0.00    +0.000 C 
ATOM     12  C   UNL     1      -6.765  13.375  18.421  0.00  0.00    +0.000 C 
ATOM     13  N   UNL     1      -5.989  12.460  19.245  0.00  0.00    +0.000 N 
ATOM     14  C   UNL     1      -5.814  12.702  20.605  0.00  0.00    +0.000 C 
ATOM     15  O   UNL     1      -5.679  11.797  21.431  0.00  0.00    +0.000 OA
BRANCH  13  16
ATOM     16  C   UNL     1      -5.808  11.091  18.761  0.00  0.00    +0.000 C 
BRANCH  16  17
ATOM     17  C   UNL     1      -4.656  10.888  17.813  0.00  0.00    +0.000 A 
ATOM     18  C   UNL     1      -4.639  11.484  16.546  0.00  0.00    +0.000 A 
ATOM     19  C   UNL     1      -3.565  11.266  15.677  0.00  0.00    +0.000 A 
ATOM     20  C   UNL     1      -2.502  10.461  16.069  0.00  0.00    +0.000 A 
ATOM     21  C   UNL     1      -2.496   9.876  17.333  0.00  0.00    +0.000 A 
ATOM     22  C   UNL     1      -3.567  10.090  18.202  0.00  0.00    +0.000 A 
ENDBRANCH  16  17
ENDBRANCH  13  16
ENDBRANCH   6   9
BRANCH   1  25
ATOM     23  C   UNL     1       0.838   9.667  19.861  0.00  0.00    +0.000 A 
ATOM     24  C   UNL     1       0.223   9.781  21.125  0.00  0.00    +0.000 A 
ATOM     25  C   UNL     1      -0.405  11.010  21.111  0.00  0.00    +0.000 A 
ATOM     26  N   UNL     1      -0.280  11.442  19.820  0.00  0.00    +0.000 N 
ATOM     27  N   UNL     1       0.579  10.724  19.082  0.00  0.00    +0.000 NA
ATOM     28  H   UNL     1      -0.699  12.264  19.400  0.00  0.00    +0.000 HD
BRANCH  23  33
ATOM     29  C   UNL     1       2.842   5.211  20.069  0.00  0.00    +0.000 C 
ATOM     30  C   UNL     1       2.582   6.519  19.437  0.00  0.00    +0.000 A 
ATOM     31  C   UNL     1       2.849   7.055  18.197  0.00  0.00    +0.000 A 
ATOM     32  C   UNL     1       2.249   8.339  18.186  0.00  0.00    +0.000 A 
ATOM     33  C   UNL     1       1.656   8.509  19.421  0.00  0.00    +0.000 A 
ATOM     34  O   UNL     1       1.900   7.413  20.199  0.00  0.00    +0.000 OA
ENDBRANCH  23  33
ENDBRANCH   1  25
TORSDOF 5
ENDMDL
MODEL 7
REMARK VINA RESULT:      -8.1      5.434     11.390
REMARK  Name = 
REMARK  6 active torsions:
REMARK  status: ('A' for Active; 'I' for Inactive)
REMARK    1  A    between atoms: C_1  and  C_2
REMARK    2  A    between atoms: C_5  and  C_6
REMARK    3  A    between atoms: C_8  and  C_9
REMARK    4  A    between atoms: N_14  and  C_15
REMARK    5  A    between atoms: N_19  and  C_20
REMARK    6  A    between atoms: C_20  and  C_21
REMARK                            x       y       z     vdW  Elec       q    Type
REMARK                         _______ _______ _______ _____ _____    ______ ____
ROOT
ATOM      1  C   UNL     1       2.916  16.177  20.501  0.00  0.00    +0.000 C 
ATOM      2  O   UNL     1       2.299  17.111  21.004  0.00  0.00    +0.000 OA
ATOM      3  N   UNL     1       4.291  16.251  20.268  0.00  0.00    +0.000 N 
ATOM      4  C   UNL     1       5.103  15.194  19.661  0.00  0.00    +0.000 C 
ATOM      5  C   UNL     1       6.531  15.147  20.215  0.00  0.00    +0.000 C 
ATOM      6  N   UNL     1       7.255  16.413  20.187  0.00  0.00    +0.000 NA
ATOM      7  C   UNL     1       6.436  17.449  20.857  0.00  0.00    +0.000 C 
ATOM      8  C   UNL     1       4.949  17.552  20.436  0.00  0.00    +0.000 C 
ENDROOT
BRANCH   6   9
ATOM      9  C   UNL     1       7.914  16.857  18.927  0.00  0.00    +0.000 C 
ATOM     10  C   UNL     1       8.961  17.967  19.087  0.00  0.00    +0.000 C 
ATOM     11  C   UNL     1      10.368  17.467  19.377  0.00  0.00    +0.000 C 
ATOM     12  C   UNL     1      10.784  16.366  18.418  0.00  0.00    +0.000 C 
ATOM     13  N   UNL     1       9.766  15.348  18.199  0.00  0.00    +0.000 N 
ATOM     14  C   UNL     1       8.427  15.701  18.054  0.00  0.00    +0.000 C 
ATOM     15  O   UNL     1       7.639  15.053  17.364  0.00  0.00    +0.000 OA
BRANCH  13  16
ATOM     16  C   UNL     1      10.197  14.054  17.671  0.00  0.00    +0.000 C 
BRANCH  16  17
ATOM     17  C   UNL     1       9.999  12.881  18.594  0.00  0.00    +0.000 A 
ATOM     18  C   UNL     1       9.510  11.656  18.123  0.00  0.00    +0.000 A 
ATOM     19  C   UNL     1       9.319  10.587  19.003  0.00  0.00    +0.000 A 
ATOM     20  C   UNL     1       9.618  10.730  20.352  0.00  0.00    +0.000 A 
ATOM     21  C   UNL     1      10.122  11.937  20.832  0.00  0.00    +0.000 A 
ATOM     22  C   UNL     1      10.313  13.006  19.957  0.00  0.00    +0.000 A 
ENDBRANCH  16  17
ENDBRANCH  13  16
ENDBRANCH   6   9
BRANCH   1  25
ATOM     23  C   UNL     1       1.388  12.902  20.158  0.00  0.00    +0.000 A 
ATOM     24  C   UNL     1       1.928  13.889  21.009  0.00  0.00    +0.000 A 
ATOM     25  C   UNL     1       2.253  14.942  20.179  0.00  0.00    +0.000 A 
ATOM     26  N   UNL     1       1.730  14.594  18.965  0.00  0.00    +0.000 N 
ATOM     27  N   UNL     1       1.329  13.317  18.887  0.00  0.00    +0.000 NA
ATOM     28  H   UNL     1       1.684  15.161  18.126  0.00  0.00    +0.000 HD
BRANCH  23  33
ATOM     29  C   UNL     1      -0.206   9.482  23.268  0.00  0.00    +0.000 C 
ATOM     30  C   UNL     1       0.184   9.984  21.937  0.00  0.00    +0.000 A 
ATOM     31  C   UNL     1       0.098   9.479  20.658  0.00  0.00    +0.000 A 
ATOM     32  C   UNL     1       0.567  10.503  19.799  0.00  0.00    +0.000 A 
ATOM     33  C   UNL     1       0.914  11.568  20.604  0.00  0.00    +0.000 A 
ATOM     34  O   UNL     1       0.721  11.231  21.914  0.00  0.00    +0.000 OA
ENDBRANCH  23  33
ENDBRANCH   1  25
TORSDOF 5
ENDMDL
MODEL 8
REMARK VINA RESULT:      -8.1      4.034      7.033
REMARK  Name = 
REMARK  6 active torsions:
REMARK  status: ('A' for Active; 'I' for Inactive)
REMARK    1  A    between atoms: C_1  and  C_2
REMARK    2  A    between atoms: C_5  and  C_6
REMARK    3  A    between atoms: C_8  and  C_9
REMARK    4  A    between atoms: N_14  and  C_15
REMARK    5  A    between atoms: N_19  and  C_20
REMARK    6  A    between atoms: C_20  and  C_21
REMARK                            x       y       z     vdW  Elec       q    Type
REMARK                         _______ _______ _______ _____ _____    ______ ____
ROOT
ATOM      1  C   UNL     1       2.573   5.250  20.052  0.00  0.00    +0.000 C 
ATOM      2  O   UNL     1       2.670   4.581  21.075  0.00  0.00    +0.000 OA
ATOM      3  N   UNL     1       2.027   6.536  20.070  0.00  0.00    +0.000 N 
ATOM      4  C   UNL     1       1.858   7.399  18.898  0.00  0.00    +0.000 C 
ATOM      5  C   UNL     1       2.021   8.887  19.226  0.00  0.00    +0.000 C 
ATOM      6  N   UNL     1       1.204   9.378  20.330  0.00  0.00    +0.000 NA
ATOM      7  C   UNL     1       1.437   8.522  21.516  0.00  0.00    +0.000 C 
ATOM      8  C   UNL     1       1.372   6.990  21.302  0.00  0.00    +0.000 C 
ENDROOT
BRANCH   6   9
ATOM      9  C   UNL     1      -0.222   9.735  20.090  0.00  0.00    +0.000 C 
ATOM     10  C   UNL     1      -1.041  10.059  21.346  0.00  0.00    +0.000 C 
ATOM     11  C   UNL     1      -0.985  11.517  21.775  0.00  0.00    +0.000 C 
ATOM     12  C   UNL     1      -1.250  12.457  20.612  0.00  0.00    +0.000 C 
ATOM     13  N   UNL     1      -0.538  12.112  19.390  0.00  0.00    +0.000 N 
ATOM     14  C   UNL     1      -0.422  10.785  18.985  0.00  0.00    +0.000 C 
ATOM     15  O   UNL     1      -0.349  10.454  17.800  0.00  0.00    +0.000 OA
BRANCH  13  16
ATOM     16  C   UNL     1      -0.369  13.156  18.380  0.00  0.00    +0.000 C 
BRANCH  16  17
ATOM     17  C   UNL     1       0.911  13.944  18.474  0.00  0.00    +0.000 A 
ATOM     18  C   UNL     1       2.148  13.367  18.163  0.00  0.00    +0.000 A 
ATOM     19  C   UNL     1       3.324  14.115  18.274  0.00  0.00    +0.000 A 
ATOM     20  C   UNL     1       3.273  15.441  18.687  0.00  0.00    +0.000 A 
ATOM     21  C   UNL     1       2.048  16.034  18.983  0.00  0.00    +0.000 A 
ATOM     22  C   UNL     1       0.872  15.290  18.874  0.00  0.00    +0.000 A 
ENDBRANCH  16  17
ENDBRANCH  13  16
ENDBRANCH   6   9
BRANCH   1  25
ATOM     23  C   UNL     1       4.195   4.354  16.931  0.00  0.00    +0.000 A 
ATOM     24  C   UNL     1       4.278   5.000  18.181  0.00  0.00    +0.000 A 
ATOM     25  C   UNL     1       3.067   4.756  18.795  0.00  0.00    +0.000 A 
ATOM     26  N   UNL     1       2.444   3.857  17.974  0.00  0.00    +0.000 N 
ATOM     27  N   UNL     1       3.034   3.704  16.780  0.00  0.00    +0.000 NA
ATOM     28  H   UNL     1       1.571   3.368  18.142  0.00  0.00    +0.000 HD
BRANCH  23  33
ATOM     29  C   UNL     1       6.266   3.626  12.562  0.00  0.00    +0.000 C 
ATOM     30  C   UNL     1       6.261   4.074  13.967  0.00  0.00    +0.000 A 
ATOM     31  C   UNL     1       7.145   4.780  14.752  0.00  0.00    +0.000 A 
ATOM     32  C   UNL     1       6.501   4.967  16.000  0.00  0.00    +0.000 A 
ATOM     33  C   UNL     1       5.265   4.360  15.903  0.00  0.00    +0.000 A 
ATOM     34  O   UNL     1       5.140   3.777  14.673  0.00  0.00    +0.000 OA
ENDBRANCH  23  33
ENDBRANCH   1  25
TORSDOF 5
ENDMDL
MODEL 9
REMARK VINA RESULT:      -8.0      4.539      8.748
REMARK  Name = 
REMARK  6 active torsions:
REMARK  status: ('A' for Active; 'I' for Inactive)
REMARK    1  A    between atoms: C_1  and  C_2
REMARK    2  A    between atoms: C_5  and  C_6
REMARK    3  A    between atoms: C_8  and  C_9
REMARK    4  A    between atoms: N_14  and  C_15
REMARK    5  A    between atoms: N_19  and  C_20
REMARK    6  A    between atoms: C_20  and  C_21
REMARK                            x       y       z     vdW  Elec       q    Type
REMARK                         _______ _______ _______ _____ _____    ______ ____
ROOT
ATOM      1  C   UNL     1       2.213   9.969  17.965  0.00  0.00    +0.000 C 
ATOM      2  O   UNL     1       2.714  10.676  17.097  0.00  0.00    +0.000 OA
ATOM      3  N   UNL     1       1.322  10.489  18.906  0.00  0.00    +0.000 N 
ATOM      4  C   UNL     1       0.689   9.724  19.984  0.00  0.00    +0.000 C 
ATOM      5  C   UNL     1      -0.721  10.220  20.319  0.00  0.00    +0.000 C 
ATOM      6  N   UNL     1      -0.835  11.650  20.586  0.00  0.00    +0.000 NA
ATOM      7  C   UNL     1      -0.239  12.398  19.455  0.00  0.00    +0.000 C 
ATOM      8  C   UNL     1       1.161  11.946  18.972  0.00  0.00    +0.000 C 
ENDROOT
BRANCH   6   9
ATOM      9  C   UNL     1      -0.486  12.177  21.935  0.00  0.00    +0.000 C 
ATOM     10  C   UNL     1       0.002  13.631  21.968  0.00  0.00    +0.000 C 
ATOM     11  C   UNL     1      -1.106  14.664  22.102  0.00  0.00    +0.000 C 
ATOM     12  C   UNL     1      -2.069  14.315  23.223  0.00  0.00    +0.000 C 
ATOM     13  N   UNL     1      -2.478  12.919  23.248  0.00  0.00    +0.000 N 
ATOM     14  C   UNL     1      -1.556  11.904  23.004  0.00  0.00    +0.000 C 
ATOM     15  O   UNL     1      -1.649  10.784  23.512  0.00  0.00    +0.000 OA
BRANCH  13  16
ATOM     16  C   UNL     1      -3.700  12.578  23.975  0.00  0.00    +0.000 C 
BRANCH  16  17
ATOM     17  C   UNL     1      -4.978  12.715  23.190  0.00  0.00    +0.000 A 
ATOM     18  C   UNL     1      -4.977  12.730  21.790  0.00  0.00    +0.000 A 
ATOM     19  C   UNL     1      -6.175  12.875  21.084  0.00  0.00    +0.000 A 
ATOM     20  C   UNL     1      -7.378  13.000  21.768  0.00  0.00    +0.000 A 
ATOM     21  C   UNL     1      -7.397  12.970  23.161  0.00  0.00    +0.000 A 
ATOM     22  C   UNL     1      -6.203  12.826  23.868  0.00  0.00    +0.000 A 
ENDBRANCH  16  17
ENDBRANCH  13  16
ENDBRANCH   6   9
BRANCH   1  25
ATOM     23  C   UNL     1       2.484   6.375  18.398  0.00  0.00    +0.000 A 
ATOM     24  C   UNL     1       1.688   7.536  18.490  0.00  0.00    +0.000 A 
ATOM     25  C   UNL     1       2.486   8.558  18.016  0.00  0.00    +0.000 A 
ATOM     26  N   UNL     1       3.592   7.926  17.520  0.00  0.00    +0.000 N 
ATOM     27  N   UNL     1       3.683   6.632  17.859  0.00  0.00    +0.000 NA
ATOM     28  H   UNL     1       4.360   8.339  17.002  0.00  0.00    +0.000 HD
BRANCH  23  33
ATOM     29  C   UNL     1       1.353   2.745  21.473  0.00  0.00    +0.000 C 
ATOM     30  C   UNL     1       1.518   3.346  20.136  0.00  0.00    +0.000 A 
ATOM     31  C   UNL     1       1.189   2.948  18.859  0.00  0.00    +0.000 A 
ATOM     32  C   UNL     1       1.531   4.029  18.009  0.00  0.00    +0.000 A 
ATOM     33  C   UNL     1       2.052   5.019  18.819  0.00  0.00    +0.000 A 
ATOM     34  O   UNL     1       2.084   4.580  20.112  0.00  0.00    +0.000 OA
ENDBRANCH  23  33
ENDBRANCH   1  25
TORSDOF 5
ENDMDL
