MODEL 1
REMARK VINA RESULT:      -9.2      0.000      0.000
REMARK  Name = 
REMARK  4 active torsions:
REMARK  status: ('A' for Active; 'I' for Inactive)
REMARK    1  A    between atoms: C_2  and  C_3
REMARK    2  A    between atoms: C_3  and  N_4
REMARK    3  A    between atoms: N_14  and  C_15
REMARK    4  A    between atoms: C_18  and  N_19
REMARK                            x       y       z     vdW  Elec       q    Type
REMARK                         _______ _______ _______ _____ _____    ______ ____
ROOT
ATOM      1  O   UNL     1       1.152   5.524  20.523  0.00  0.00    +0.000 OA
ATOM      2  C   UNL     1       2.225   5.678  19.982  0.00  0.00    +0.000 C 
ATOM      3  N   UNL     1       2.669   6.850  19.356  0.00  0.00    +0.000 N 
ATOM      4  H   UNL     1       3.594   6.846  18.935  0.00  0.00    +0.000 HD
ENDROOT
BRANCH   3   5
ATOM      5  C   UNL     1       1.962   8.084  19.338  0.00  0.00    +0.000 A 
ATOM      6  C   UNL     1       1.958   8.899  18.213  0.00  0.00    +0.000 A 
ATOM      7  C   UNL     1       1.312  10.107  18.203  0.00  0.00    +0.000 A 
ATOM      8  C   UNL     1       0.468  10.455  19.258  0.00  0.00    +0.000 A 
ATOM      9  C   UNL     1       0.418   9.670  20.403  0.00  0.00    +0.000 A 
ATOM     10  C   UNL     1       1.195   8.487  20.453  0.00  0.00    +0.000 A 
BRANCH   8  11
ATOM     11  N   UNL     1      -0.478  11.462  18.916  0.00  0.00    +0.000 N 
ATOM     12  C   UNL     1      -0.851  12.370  19.904  0.00  0.00    +0.000 A 
ATOM     13  N   UNL     1      -2.105  12.733  19.835  0.00  0.00    +0.000 NA
ATOM     14  C   UNL     1      -2.617  11.882  18.909  0.00  0.00    +0.000 A 
ATOM     15  C   UNL     1      -3.951  11.492  18.766  0.00  0.00    +0.000 A 
ATOM     16  C   UNL     1      -4.263  10.531  17.806  0.00  0.00    +0.000 A 
ATOM     17  C   UNL     1      -3.283  10.056  16.932  0.00  0.00    +0.000 A 
ATOM     18  C   UNL     1      -1.931  10.401  17.084  0.00  0.00    +0.000 A 
ATOM     19  C   UNL     1      -1.622  11.246  18.159  0.00  0.00    +0.000 A 
ENDBRANCH   8  11
ENDBRANCH   3   5
BRANCH   2  20
ATOM     20  C   UNL     1       3.237   4.505  19.965  0.00  0.00    +0.000 C 
BRANCH  20  21
ATOM     21  N   UNL     1       4.090   4.514  18.792  0.00  0.00    +0.000 N 
ATOM     22  C   UNL     1       3.601   4.210  17.451  0.00  0.00    +0.000 C 
ATOM     23  C   UNL     1       4.855   4.281  16.643  0.00  0.00    +0.000 A 
ATOM     24  C   UNL     1       5.053   4.058  15.293  0.00  0.00    +0.000 A 
ATOM     25  C   UNL     1       6.355   4.183  14.789  0.00  0.00    +0.000 A 
ATOM     26  C   UNL     1       7.431   4.530  15.630  0.00  0.00    +0.000 A 
ATOM     27  C   UNL     1       7.225   4.756  16.989  0.00  0.00    +0.000 A 
ATOM     28  C   UNL     1       5.933   4.624  17.460  0.00  0.00    +0.000 A 
ATOM     29  C   UNL     1       5.437   4.771  18.827  0.00  0.00    +0.000 C 
ATOM     30  O   UNL     1       6.125   5.057  19.799  0.00  0.00    +0.000 OA
ENDBRANCH  20  21
ENDBRANCH   2  20
TORSDOF 4
ENDMDL
MODEL 2
REMARK VINA RESULT:      -9.1      2.781      9.959
REMARK  Name = 
REMARK  4 active torsions:
REMARK  status: ('A' for Active; 'I' for Inactive)
REMARK    1  A    between atoms: C_2  and  C_3
REMARK    2  A    between atoms: C_3  and  N_4
REMARK    3  A    between atoms: N_14  and  C_15
REMARK    4  A    between atoms: C_18  and  N_19
REMARK                            x       y       z     vdW  Elec       q    Type
REMARK                         _______ _______ _______ _____ _____    ______ ____
ROOT
ATOM      1  O   UNL     1      -0.877  10.211  18.156  0.00  0.00    +0.000 OA
ATOM      2  C   UNL     1      -0.164  10.822  18.922  0.00  0.00    +0.000 C 
ATOM      3  N   UNL     1       1.011  10.341  19.513  0.00  0.00    +0.000 N 
ATOM      4  H   UNL     1       1.517  10.957  20.144  0.00  0.00    +0.000 HD
ENDROOT
BRANCH   3   5
ATOM      5  C   UNL     1       1.609   9.081  19.233  0.00  0.00    +0.000 A 
ATOM      6  C   UNL     1       2.196   8.816  18.004  0.00  0.00    +0.000 A 
ATOM      7  C   UNL     1       2.740   7.592  17.715  0.00  0.00    +0.000 A 
ATOM      8  C   UNL     1       2.898   6.643  18.726  0.00  0.00    +0.000 A 
ATOM      9  C   UNL     1       2.347   6.861  19.982  0.00  0.00    +0.000 A 
ATOM     10  C   UNL     1       1.671   8.081  20.229  0.00  0.00    +0.000 A 
BRANCH   8  11
ATOM     11  N   UNL     1       3.873   5.652  18.422  0.00  0.00    +0.000 N 
ATOM     12  C   UNL     1       3.983   4.560  19.280  0.00  0.00    +0.000 A 
ATOM     13  N   UNL     1       5.209   4.131  19.428  0.00  0.00    +0.000 NA
ATOM     14  C   UNL     1       5.943   5.097  18.817  0.00  0.00    +0.000 A 
ATOM     15  C   UNL     1       7.284   5.415  19.053  0.00  0.00    +0.000 A 
ATOM     16  C   UNL     1       7.834   6.508  18.385  0.00  0.00    +0.000 A 
ATOM     17  C   UNL     1       7.097   7.195  17.418  0.00  0.00    +0.000 A 
ATOM     18  C   UNL     1       5.738   6.920  17.196  0.00  0.00    +0.000 A 
ATOM     19  C   UNL     1       5.166   5.921  17.996  0.00  0.00    +0.000 A 
ENDBRANCH   8  11
ENDBRANCH   3   5
BRANCH   2  20
ATOM     20  C   UNL     1      -0.538  12.276  19.303  0.00  0.00    +0.000 C 
BRANCH  20  21
ATOM     21  N   UNL     1      -1.538  12.344  20.353  0.00  0.00    +0.000 N 
ATOM     22  C   UNL     1      -2.933  12.691  20.099  0.00  0.00    +0.000 C 
ATOM     23  C   UNL     1      -3.504  12.693  21.480  0.00  0.00    +0.000 A 
ATOM     24  C   UNL     1      -4.788  12.980  21.907  0.00  0.00    +0.000 A 
ATOM     25  C   UNL     1      -5.053  12.918  23.282  0.00  0.00    +0.000 A 
ATOM     26  C   UNL     1      -4.046  12.568  24.202  0.00  0.00    +0.000 A 
ATOM     27  C   UNL     1      -2.754  12.278  23.766  0.00  0.00    +0.000 A 
ATOM     28  C   UNL     1      -2.519  12.350  22.407  0.00  0.00    +0.000 A 
ATOM     29  C   UNL     1      -1.270  12.128  21.681  0.00  0.00    +0.000 C 
ATOM     30  O   UNL     1      -0.201  11.822  22.194  0.00  0.00    +0.000 OA
ENDBRANCH  20  21
ENDBRANCH   2  20
TORSDOF 4
ENDMDL
MODEL 3
REMARK VINA RESULT:      -9.1      0.907      1.421
REMARK  Name = 
REMARK  4 active torsions:
REMARK  status: ('A' for Active; 'I' for Inactive)
REMARK    1  A    between atoms: C_2  and  C_3
REMARK    2  A    between atoms: C_3  and  N_4
REMARK    3  A    between atoms: N_14  and  C_15
REMARK    4  A    between atoms: C_18  and  N_19
REMARK                            x       y       z     vdW  Elec       q    Type
REMARK                         _______ _______ _______ _____ _____    ______ ____
ROOT
ATOM      1  O   UNL     1       1.527   5.546  20.667  0.00  0.00    +0.000 OA
ATOM      2  C   UNL     1       2.503   5.618  19.952  0.00  0.00    +0.000 C 
ATOM      3  N   UNL     1       2.852   6.710  19.146  0.00  0.00    +0.000 N 
ATOM      4  H   UNL     1       3.700   6.641  18.588  0.00  0.00    +0.000 HD
ENDROOT
BRANCH   3   5
ATOM      5  C   UNL     1       2.162   7.953  19.110  0.00  0.00    +0.000 A 
ATOM      6  C   UNL     1       2.231   8.787  18.002  0.00  0.00    +0.000 A 
ATOM      7  C   UNL     1       1.600  10.003  17.977  0.00  0.00    +0.000 A 
ATOM      8  C   UNL     1       0.701  10.343  18.989  0.00  0.00    +0.000 A 
ATOM      9  C   UNL     1       0.578   9.539  20.114  0.00  0.00    +0.000 A 
ATOM     10  C   UNL     1       1.337   8.346  20.187  0.00  0.00    +0.000 A 
BRANCH   8  11
ATOM     11  N   UNL     1      -0.212  11.367  18.611  0.00  0.00    +0.000 N 
ATOM     12  C   UNL     1      -0.454  12.394  19.521  0.00  0.00    +0.000 A 
ATOM     13  N   UNL     1      -1.687  12.827  19.507  0.00  0.00    +0.000 NA
ATOM     14  C   UNL     1      -2.318  11.918  18.717  0.00  0.00    +0.000 A 
ATOM     15  C   UNL     1      -3.679  11.601  18.716  0.00  0.00    +0.000 A 
ATOM     16  C   UNL     1      -4.119  10.569  17.890  0.00  0.00    +0.000 A 
ATOM     17  C   UNL     1      -3.240   9.946  17.001  0.00  0.00    +0.000 A 
ATOM     18  C   UNL     1      -1.863  10.219  17.016  0.00  0.00    +0.000 A 
ATOM     19  C   UNL     1      -1.423  11.148  17.969  0.00  0.00    +0.000 A 
ENDBRANCH   8  11
ENDBRANCH   3   5
BRANCH   2  20
ATOM     20  C   UNL     1       3.490   4.426  19.899  0.00  0.00    +0.000 C 
BRANCH  20  21
ATOM     21  N   UNL     1       4.310   4.425  18.702  0.00  0.00    +0.000 N 
ATOM     22  C   UNL     1       5.693   4.892  18.687  0.00  0.00    +0.000 C 
ATOM     23  C   UNL     1       6.046   4.755  17.241  0.00  0.00    +0.000 A 
ATOM     24  C   UNL     1       7.221   5.068  16.583  0.00  0.00    +0.000 A 
ATOM     25  C   UNL     1       7.279   4.848  15.200  0.00  0.00    +0.000 A 
ATOM     26  C   UNL     1       6.178   4.318  14.500  0.00  0.00    +0.000 A 
ATOM     27  C   UNL     1       4.997   4.001  15.169  0.00  0.00    +0.000 A 
ATOM     28  C   UNL     1       4.965   4.231  16.531  0.00  0.00    +0.000 A 
ATOM     29  C   UNL     1       3.863   4.023  17.469  0.00  0.00    +0.000 C 
ATOM     30  O   UNL     1       2.759   3.584  17.173  0.00  0.00    +0.000 OA
ENDBRANCH  20  21
ENDBRANCH   2  20
TORSDOF 4
ENDMDL
MODEL 4
REMARK VINA RESULT:      -9.1      1.494      2.800
REMARK  Name = 
REMARK  4 active torsions:
REMARK  status: ('A' for Active; 'I' for Inactive)
REMARK    1  A    between atoms: C_2  and  C_3
REMARK    2  A    between atoms: C_3  and  N_4
REMARK    3  A    between atoms: N_14  and  C_15
REMARK    4  A    between atoms: C_18  and  N_19
REMARK                            x       y       z     vdW  Elec       q    Type
REMARK                         _______ _______ _______ _____ _____    ______ ____
ROOT
ATOM      1  O   UNL     1       1.044   4.892  20.347  0.00  0.00    +0.000 OA
ATOM      2  C   UNL     1       2.198   5.134  20.066  0.00  0.00    +0.000 C 
ATOM      3  N   UNL     1       2.728   6.401  19.792  0.00  0.00    +0.000 N 
ATOM      4  H   UNL     1       3.717   6.467  19.565  0.00  0.00    +0.000 HD
ENDROOT
BRANCH   3   5
ATOM      5  C   UNL     1       2.012   7.626  19.890  0.00  0.00    +0.000 A 
ATOM      6  C   UNL     1       1.895   8.485  18.806  0.00  0.00    +0.000 A 
ATOM      7  C   UNL     1       1.240   9.684  18.906  0.00  0.00    +0.000 A 
ATOM      8  C   UNL     1       0.495   9.978  20.049  0.00  0.00    +0.000 A 
ATOM      9  C   UNL     1       0.559   9.147  21.159  0.00  0.00    +0.000 A 
ATOM     10  C   UNL     1       1.348   7.973  21.088  0.00  0.00    +0.000 A 
BRANCH   8  11
ATOM     11  N   UNL     1      -0.488  10.986  19.837  0.00  0.00    +0.000 N 
ATOM     12  C   UNL     1      -1.198  10.965  18.638  0.00  0.00    +0.000 A 
ATOM     13  N   UNL     1      -1.482  12.153  18.176  0.00  0.00    +0.000 NA
ATOM     14  C   UNL     1      -0.758  12.973  18.984  0.00  0.00    +0.000 A 
ATOM     15  C   UNL     1      -0.308  14.263  18.692  0.00  0.00    +0.000 A 
ATOM     16  C   UNL     1       0.504  14.909  19.622  0.00  0.00    +0.000 A 
ATOM     17  C   UNL     1       0.764  14.326  20.864  0.00  0.00    +0.000 A 
ATOM     18  C   UNL     1       0.358  13.016  21.162  0.00  0.00    +0.000 A 
ATOM     19  C   UNL     1      -0.321  12.329  20.145  0.00  0.00    +0.000 A 
ENDBRANCH   8  11
ENDBRANCH   3   5
BRANCH   2  20
ATOM     20  C   UNL     1       3.219   3.971  20.005  0.00  0.00    +0.000 C 
BRANCH  20  21
ATOM     21  N   UNL     1       4.132   4.081  18.883  0.00  0.00    +0.000 N 
ATOM     22  C   UNL     1       5.522   4.502  19.027  0.00  0.00    +0.000 C 
ATOM     23  C   UNL     1       5.985   4.519  17.606  0.00  0.00    +0.000 A 
ATOM     24  C   UNL     1       7.216   4.868  17.080  0.00  0.00    +0.000 A 
ATOM     25  C   UNL     1       7.379   4.806  15.690  0.00  0.00    +0.000 A 
ATOM     26  C   UNL     1       6.325   4.394  14.851  0.00  0.00    +0.000 A 
ATOM     27  C   UNL     1       5.087   4.041  15.387  0.00  0.00    +0.000 A 
ATOM     28  C   UNL     1       4.953   4.115  16.759  0.00  0.00    +0.000 A 
ATOM     29  C   UNL     1       3.776   3.837  17.580  0.00  0.00    +0.000 C 
ATOM     30  O   UNL     1       2.689   3.470  17.152  0.00  0.00    +0.000 OA
ENDBRANCH  20  21
ENDBRANCH   2  20
TORSDOF 4
ENDMDL
MODEL 5
REMARK VINA RESULT:      -9.1      3.138      9.930
REMARK  Name = 
REMARK  4 active torsions:
REMARK  status: ('A' for Active; 'I' for Inactive)
REMARK    1  A    between atoms: C_2  and  C_3
REMARK    2  A    between atoms: C_3  and  N_4
REMARK    3  A    between atoms: N_14  and  C_15
REMARK    4  A    between atoms: C_18  and  N_19
REMARK                            x       y       z     vdW  Elec       q    Type
REMARK                         _______ _______ _______ _____ _____    ______ ____
ROOT
ATOM      1  O   UNL     1      -1.925   9.861  18.209  0.00  0.00    +0.000 OA
ATOM      2  C   UNL     1      -1.355  10.822  18.678  0.00  0.00    +0.000 C 
ATOM      3  N   UNL     1      -0.037  10.845  19.152  0.00  0.00    +0.000 N 
ATOM      4  H   UNL     1       0.322  11.719  19.526  0.00  0.00    +0.000 HD
ENDROOT
BRANCH   3   5
ATOM      5  C   UNL     1       0.879   9.759  19.072  0.00  0.00    +0.000 A 
ATOM      6  C   UNL     1       1.069   8.893  20.140  0.00  0.00    +0.000 A 
ATOM      7  C   UNL     1       1.978   7.869  20.082  0.00  0.00    +0.000 A 
ATOM      8  C   UNL     1       2.590   7.548  18.870  0.00  0.00    +0.000 A 
ATOM      9  C   UNL     1       2.423   8.368  17.762  0.00  0.00    +0.000 A 
ATOM     10  C   UNL     1       1.581   9.502  17.873  0.00  0.00    +0.000 A 
BRANCH   8  11
ATOM     11  N   UNL     1       3.112   6.224  18.835  0.00  0.00    +0.000 N 
ATOM     12  C   UNL     1       3.700   5.785  17.651  0.00  0.00    +0.000 A 
ATOM     13  N   UNL     1       3.492   4.520  17.400  0.00  0.00    +0.000 NA
ATOM     14  C   UNL     1       2.568   4.173  18.335  0.00  0.00    +0.000 A 
ATOM     15  C   UNL     1       1.652   3.120  18.269  0.00  0.00    +0.000 A 
ATOM     16  C   UNL     1       0.720   2.985  19.295  0.00  0.00    +0.000 A 
ATOM     17  C   UNL     1       0.775   3.812  20.418  0.00  0.00    +0.000 A 
ATOM     18  C   UNL     1       1.658   4.902  20.487  0.00  0.00    +0.000 A 
ATOM     19  C   UNL     1       2.477   5.111  19.369  0.00  0.00    +0.000 A 
ENDBRANCH   8  11
ENDBRANCH   3   5
BRANCH   2  20
ATOM     20  C   UNL     1      -2.106  12.173  18.772  0.00  0.00    +0.000 C 
BRANCH  20  21
ATOM     21  N   UNL     1      -2.750  12.373  20.057  0.00  0.00    +0.000 N 
ATOM     22  C   UNL     1      -2.036  12.279  21.326  0.00  0.00    +0.000 C 
ATOM     23  C   UNL     1      -3.138  12.486  22.314  0.00  0.00    +0.000 A 
ATOM     24  C   UNL     1      -3.101  12.480  23.696  0.00  0.00    +0.000 A 
ATOM     25  C   UNL     1      -4.302  12.691  24.387  0.00  0.00    +0.000 A 
ATOM     26  C   UNL     1      -5.510  12.910  23.697  0.00  0.00    +0.000 A 
ATOM     27  C   UNL     1      -5.541  12.919  22.304  0.00  0.00    +0.000 A 
ATOM     28  C   UNL     1      -4.344  12.704  21.648  0.00  0.00    +0.000 A 
ATOM     29  C   UNL     1      -4.088  12.631  20.210  0.00  0.00    +0.000 C 
ATOM     30  O   UNL     1      -4.935  12.766  19.336  0.00  0.00    +0.000 OA
ENDBRANCH  20  21
ENDBRANCH   2  20
TORSDOF 4
ENDMDL
MODEL 6
REMARK VINA RESULT:      -9.0      1.211      2.416
REMARK  Name = 
REMARK  4 active torsions:
REMARK  status: ('A' for Active; 'I' for Inactive)
REMARK    1  A    between atoms: C_2  and  C_3
REMARK    2  A    between atoms: C_3  and  N_4
REMARK    3  A    between atoms: N_14  and  C_15
REMARK    4  A    between atoms: C_18  and  N_19
REMARK                            x       y       z     vdW  Elec       q    Type
REMARK                         _______ _______ _______ _____ _____    ______ ____
ROOT
ATOM      1  O   UNL     1       1.295   4.939  20.618  0.00  0.00    +0.000 OA
ATOM      2  C   UNL     1       2.355   5.180  20.085  0.00  0.00    +0.000 C 
ATOM      3  N   UNL     1       2.778   6.435  19.626  0.00  0.00    +0.000 N 
ATOM      4  H   UNL     1       3.695   6.501  19.191  0.00  0.00    +0.000 HD
ENDROOT
BRANCH   3   5
ATOM      5  C   UNL     1       2.062   7.652  19.799  0.00  0.00    +0.000 A 
ATOM      6  C   UNL     1       1.913   8.557  18.757  0.00  0.00    +0.000 A 
ATOM      7  C   UNL     1       1.258   9.748  18.928  0.00  0.00    +0.000 A 
ATOM      8  C   UNL     1       0.546   9.990  20.104  0.00  0.00    +0.000 A 
ATOM      9  C   UNL     1       0.644   9.111  21.175  0.00  0.00    +0.000 A 
ATOM     10  C   UNL     1       1.433   7.944  21.029  0.00  0.00    +0.000 A 
BRANCH   8  11
ATOM     11  N   UNL     1      -0.445  11.003  19.966  0.00  0.00    +0.000 N 
ATOM     12  C   UNL     1      -1.308  10.927  18.874  0.00  0.00    +0.000 A 
ATOM     13  N   UNL     1      -1.637  12.092  18.385  0.00  0.00    +0.000 NA
ATOM     14  C   UNL     1      -0.803  12.943  19.039  0.00  0.00    +0.000 A 
ATOM     15  C   UNL     1      -0.381  14.205  18.614  0.00  0.00    +0.000 A 
ATOM     16  C   UNL     1       0.555  14.887  19.389  0.00  0.00    +0.000 A 
ATOM     17  C   UNL     1       0.972  14.372  20.618  0.00  0.00    +0.000 A 
ATOM     18  C   UNL     1       0.594  13.088  21.044  0.00  0.00    +0.000 A 
ATOM     19  C   UNL     1      -0.222  12.358  20.169  0.00  0.00    +0.000 A 
ENDBRANCH   8  11
ENDBRANCH   3   5
BRANCH   2  20
ATOM     20  C   UNL     1       3.376   4.033  19.880  0.00  0.00    +0.000 C 
BRANCH  20  21
ATOM     21  N   UNL     1       4.198   4.214  18.699  0.00  0.00    +0.000 N 
ATOM     22  C   UNL     1       3.715   3.952  17.347  0.00  0.00    +0.000 C 
ATOM     23  C   UNL     1       4.938   4.212  16.529  0.00  0.00    +0.000 A 
ATOM     24  C   UNL     1       5.129   4.105  15.163  0.00  0.00    +0.000 A 
ATOM     25  C   UNL     1       6.400   4.403  14.651  0.00  0.00    +0.000 A 
ATOM     26  C   UNL     1       7.450   4.805  15.500  0.00  0.00    +0.000 A 
ATOM     27  C   UNL     1       7.251   4.913  16.875  0.00  0.00    +0.000 A 
ATOM     28  C   UNL     1       5.991   4.611  17.353  0.00  0.00    +0.000 A 
ATOM     29  C   UNL     1       5.511   4.610  18.734  0.00  0.00    +0.000 C 
ATOM     30  O   UNL     1       6.185   4.901  19.714  0.00  0.00    +0.000 OA
ENDBRANCH  20  21
ENDBRANCH   2  20
TORSDOF 4
ENDMDL
MODEL 7
REMARK VINA RESULT:      -9.0      1.709      3.083
REMARK  Name = 
REMARK  4 active torsions:
REMARK  status: ('A' for Active; 'I' for Inactive)
REMARK    1  A    between atoms: C_2  and  C_3
REMARK    2  A    between atoms: C_3  and  N_4
REMARK    3  A    between atoms: N_14  and  C_15
REMARK    4  A    between atoms: C_18  and  N_19
REMARK                            x       y       z     vdW  Elec       q    Type
REMARK                         _______ _______ _______ _____ _____    ______ ____
ROOT
ATOM      1  O   UNL     1       1.087   4.932  20.415  0.00  0.00    +0.000 OA
ATOM      2  C   UNL     1       2.236   5.260  20.214  0.00  0.00    +0.000 C 
ATOM      3  N   UNL     1       2.687   6.562  19.961  0.00  0.00    +0.000 N 
ATOM      4  H   UNL     1       3.682   6.702  19.805  0.00  0.00    +0.000 HD
ENDROOT
BRANCH   3   5
ATOM      5  C   UNL     1       1.874   7.729  19.994  0.00  0.00    +0.000 A 
ATOM      6  C   UNL     1       1.259   8.149  21.165  0.00  0.00    +0.000 A 
ATOM      7  C   UNL     1       0.443   9.250  21.193  0.00  0.00    +0.000 A 
ATOM      8  C   UNL     1       0.375  10.096  20.085  0.00  0.00    +0.000 A 
ATOM      9  C   UNL     1       0.985   9.735  18.891  0.00  0.00    +0.000 A 
ATOM     10  C   UNL     1       1.718   8.525  18.838  0.00  0.00    +0.000 A 
BRANCH   8  11
ATOM     11  N   UNL     1      -0.099  11.400  20.400  0.00  0.00    +0.000 N 
ATOM     12  C   UNL     1      -1.396  11.734  20.016  0.00  0.00    +0.000 A 
ATOM     13  N   UNL     1      -1.529  12.981  19.649  0.00  0.00    +0.000 NA
ATOM     14  C   UNL     1      -0.244  13.419  19.591  0.00  0.00    +0.000 A 
ATOM     15  C   UNL     1       0.251  14.486  18.836  0.00  0.00    +0.000 A 
ATOM     16  C   UNL     1       1.625  14.720  18.840  0.00  0.00    +0.000 A 
ATOM     17  C   UNL     1       2.470  13.979  19.669  0.00  0.00    +0.000 A 
ATOM     18  C   UNL     1       2.001  12.878  20.403  0.00  0.00    +0.000 A 
ATOM     19  C   UNL     1       0.642  12.565  20.255  0.00  0.00    +0.000 A 
ENDBRANCH   8  11
ENDBRANCH   3   5
BRANCH   2  20
ATOM     20  C   UNL     1       3.345   4.178  20.240  0.00  0.00    +0.000 C 
BRANCH  20  21
ATOM     21  N   UNL     1       4.214   4.233  19.079  0.00  0.00    +0.000 N 
ATOM     22  C   UNL     1       5.593   4.709  19.140  0.00  0.00    +0.000 C 
ATOM     23  C   UNL     1       6.006   4.636  17.706  0.00  0.00    +0.000 A 
ATOM     24  C   UNL     1       7.205   4.985  17.111  0.00  0.00    +0.000 A 
ATOM     25  C   UNL     1       7.322   4.824  15.724  0.00  0.00    +0.000 A 
ATOM     26  C   UNL     1       6.255   4.318  14.957  0.00  0.00    +0.000 A 
ATOM     27  C   UNL     1       5.050   3.966  15.563  0.00  0.00    +0.000 A 
ATOM     28  C   UNL     1       4.960   4.137  16.930  0.00  0.00    +0.000 A 
ATOM     29  C   UNL     1       3.822   3.882  17.812  0.00  0.00    +0.000 C 
ATOM     30  O   UNL     1       2.735   3.449  17.452  0.00  0.00    +0.000 OA
ENDBRANCH  20  21
ENDBRANCH   2  20
TORSDOF 4
ENDMDL
MODEL 8
REMARK VINA RESULT:      -9.0      1.455      2.329
REMARK  Name = 
REMARK  4 active torsions:
REMARK  status: ('A' for Active; 'I' for Inactive)
REMARK    1  A    between atoms: C_2  and  C_3
REMARK    2  A    between atoms: C_3  and  N_4
REMARK    3  A    between atoms: N_14  and  C_15
REMARK    4  A    between atoms: C_18  and  N_19
REMARK                            x       y       z     vdW  Elec       q    Type
REMARK                         _______ _______ _______ _____ _____    ______ ____
ROOT
ATOM      1  O   UNL     1       1.170   5.045  20.496  0.00  0.00    +0.000 OA
ATOM      2  C   UNL     1       2.247   5.195  19.962  0.00  0.00    +0.000 C 
ATOM      3  N   UNL     1       2.725   6.384  19.396  0.00  0.00    +0.000 N 
ATOM      4  H   UNL     1       3.650   6.375  18.974  0.00  0.00    +0.000 HD
ENDROOT
BRANCH   3   5
ATOM      5  C   UNL     1       2.055   7.638  19.441  0.00  0.00    +0.000 A 
ATOM      6  C   UNL     1       1.564   8.153  20.633  0.00  0.00    +0.000 A 
ATOM      7  C   UNL     1       0.884   9.341  20.677  0.00  0.00    +0.000 A 
ATOM      8  C   UNL     1       0.845  10.164  19.551  0.00  0.00    +0.000 A 
ATOM      9  C   UNL     1       1.335   9.709  18.334  0.00  0.00    +0.000 A 
ATOM     10  C   UNL     1       1.920   8.420  18.274  0.00  0.00    +0.000 A 
BRANCH   8  11
ATOM     11  N   UNL     1       0.544  11.522  19.854  0.00  0.00    +0.000 N 
ATOM     12  C   UNL     1       1.145  12.089  20.977  0.00  0.00    +0.000 A 
ATOM     13  N   UNL     1       0.378  12.937  21.609  0.00  0.00    +0.000 NA
ATOM     14  C   UNL     1      -0.827  12.764  21.006  0.00  0.00    +0.000 A 
ATOM     15  C   UNL     1      -2.088  13.041  21.543  0.00  0.00    +0.000 A 
ATOM     16  C   UNL     1      -3.215  12.705  20.797  0.00  0.00    +0.000 A 
ATOM     17  C   UNL     1      -3.086  12.210  19.498  0.00  0.00    +0.000 A 
ATOM     18  C   UNL     1      -1.833  11.884  18.955  0.00  0.00    +0.000 A 
ATOM     19  C   UNL     1      -0.724  12.083  19.789  0.00  0.00    +0.000 A 
ENDBRANCH   8  11
ENDBRANCH   3   5
BRANCH   2  20
ATOM     20  C   UNL     1       3.225   3.996  19.884  0.00  0.00    +0.000 C 
BRANCH  20  21
ATOM     21  N   UNL     1       4.143   4.088  18.765  0.00  0.00    +0.000 N 
ATOM     22  C   UNL     1       5.532   4.511  18.910  0.00  0.00    +0.000 C 
ATOM     23  C   UNL     1       6.003   4.508  17.492  0.00  0.00    +0.000 A 
ATOM     24  C   UNL     1       7.237   4.849  16.968  0.00  0.00    +0.000 A 
ATOM     25  C   UNL     1       7.408   4.766  15.579  0.00  0.00    +0.000 A 
ATOM     26  C   UNL     1       6.357   4.344  14.741  0.00  0.00    +0.000 A 
ATOM     27  C   UNL     1       5.117   3.999  15.275  0.00  0.00    +0.000 A 
ATOM     28  C   UNL     1       4.975   4.093  16.646  0.00  0.00    +0.000 A 
ATOM     29  C   UNL     1       3.793   3.827  17.464  0.00  0.00    +0.000 C 
ATOM     30  O   UNL     1       2.708   3.455  17.035  0.00  0.00    +0.000 OA
ENDBRANCH  20  21
ENDBRANCH   2  20
TORSDOF 4
ENDMDL
MODEL 9
REMARK VINA RESULT:      -8.9      1.155      1.855
REMARK  Name = 
REMARK  4 active torsions:
REMARK  status: ('A' for Active; 'I' for Inactive)
REMARK    1  A    between atoms: C_2  and  C_3
REMARK    2  A    between atoms: C_3  and  N_4
REMARK    3  A    between atoms: N_14  and  C_15
REMARK    4  A    between atoms: C_18  and  N_19
REMARK                            x       y       z     vdW  Elec       q    Type
REMARK                         _______ _______ _______ _____ _____    ______ ____
ROOT
ATOM      1  O   UNL     1       1.310   5.146  20.618  0.00  0.00    +0.000 OA
ATOM      2  C   UNL     1       2.330   5.325  19.989  0.00  0.00    +0.000 C 
ATOM      3  N   UNL     1       2.716   6.522  19.371  0.00  0.00    +0.000 N 
ATOM      4  H   UNL     1       3.599   6.538  18.868  0.00  0.00    +0.000 HD
ENDROOT
BRANCH   3   5
ATOM      5  C   UNL     1       2.010   7.753  19.464  0.00  0.00    +0.000 A 
ATOM      6  C   UNL     1       1.575   8.247  20.687  0.00  0.00    +0.000 A 
ATOM      7  C   UNL     1       0.862   9.413  20.778  0.00  0.00    +0.000 A 
ATOM      8  C   UNL     1       0.731  10.240  19.662  0.00  0.00    +0.000 A 
ATOM      9  C   UNL     1       1.162   9.806  18.415  0.00  0.00    +0.000 A 
ATOM     10  C   UNL     1       1.783   8.537  18.312  0.00  0.00    +0.000 A 
BRANCH   8  11
ATOM     11  N   UNL     1       0.406  11.586  19.991  0.00  0.00    +0.000 N 
ATOM     12  C   UNL     1       0.972  12.131  21.142  0.00  0.00    +0.000 A 
ATOM     13  N   UNL     1       0.180  12.954  21.776  0.00  0.00    +0.000 NA
ATOM     14  C   UNL     1      -1.009  12.782  21.140  0.00  0.00    +0.000 A 
ATOM     15  C   UNL     1      -2.285  13.031  21.652  0.00  0.00    +0.000 A 
ATOM     16  C   UNL     1      -3.390  12.701  20.870  0.00  0.00    +0.000 A 
ATOM     17  C   UNL     1      -3.223  12.240  19.563  0.00  0.00    +0.000 A 
ATOM     18  C   UNL     1      -1.953  11.943  19.043  0.00  0.00    +0.000 A 
ATOM     19  C   UNL     1      -0.867  12.134  19.909  0.00  0.00    +0.000 A 
ENDBRANCH   8  11
ENDBRANCH   3   5
BRANCH   2  20
ATOM     20  C   UNL     1       3.337   4.157  19.835  0.00  0.00    +0.000 C 
BRANCH  20  21
ATOM     21  N   UNL     1       4.178   4.289  18.661  0.00  0.00    +0.000 N 
ATOM     22  C   UNL     1       3.701   4.020  17.307  0.00  0.00    +0.000 C 
ATOM     23  C   UNL     1       4.941   4.225  16.499  0.00  0.00    +0.000 A 
ATOM     24  C   UNL     1       5.144   4.087  15.138  0.00  0.00    +0.000 A 
ATOM     25  C   UNL     1       6.430   4.332  14.636  0.00  0.00    +0.000 A 
ATOM     26  C   UNL     1       7.484   4.712  15.490  0.00  0.00    +0.000 A 
ATOM     27  C   UNL     1       7.273   4.852  16.861  0.00  0.00    +0.000 A 
ATOM     28  C   UNL     1       5.998   4.602  17.329  0.00  0.00    +0.000 A 
ATOM     29  C   UNL     1       5.503   4.641  18.704  0.00  0.00    +0.000 C 
ATOM     30  O   UNL     1       6.176   4.925  19.687  0.00  0.00    +0.000 OA
ENDBRANCH  20  21
ENDBRANCH   2  20
TORSDOF 4
ENDMDL
