MODEL 1
REMARK VINA RESULT:      -9.3      0.000      0.000
REMARK  Name = 
REMARK  2 active torsions:
REMARK  status: ('A' for Active; 'I' for Inactive)
REMARK    1  A    between atoms: C_2  and  C_3
REMARK    2  A    between atoms: C_15  and  C_17
REMARK                            x       y       z     vdW  Elec       q    Type
REMARK                         _______ _______ _______ _____ _____    ______ ____
ROOT
ATOM      1  O   UNL     1      -0.357   9.946  23.796  0.00  0.00    +0.000 OA
ATOM      2  C   UNL     1      -0.583  10.521  22.733  0.00  0.00    +0.000 C 
ATOM      3  N   UNL     1      -0.203  10.002  21.502  0.00  0.00    +0.000 N 
ATOM      4  C   UNL     1       0.162   8.593  21.437  0.00  0.00    +0.000 C 
ATOM      5  C   UNL     1       1.478   8.366  20.694  0.00  0.00    +0.000 C 
ATOM      6  N   UNL     1       1.535   9.066  19.397  0.00  0.00    +0.000 N 
ATOM      7  C   UNL     1       1.975   8.573  18.173  0.00  0.00    +0.000 C 
ATOM      8  O   UNL     1       1.854   9.226  17.136  0.00  0.00    +0.000 OA
ATOM      9  C   UNL     1       1.156  10.481  19.466  0.00  0.00    +0.000 C 
ATOM     10  C   UNL     1      -0.169  10.700  20.206  0.00  0.00    +0.000 C 
ENDROOT
BRANCH   7  11
ATOM     11  C   UNL     1       2.602   7.202  18.095  0.00  0.00    +0.000 A 
ATOM     12  C   UNL     1       1.792   6.129  18.135  0.00  0.00    +0.000 A 
ATOM     13  C   UNL     1       2.374   4.784  18.069  0.00  0.00    +0.000 A 
ATOM     14  C   UNL     1       1.571   3.642  17.994  0.00  0.00    +0.000 A 
ATOM     15  C   UNL     1       2.160   2.372  17.953  0.00  0.00    +0.000 A 
ATOM     16  C   UNL     1       3.551   2.234  17.997  0.00  0.00    +0.000 A 
ATOM     17  C   UNL     1       4.360   3.365  18.069  0.00  0.00    +0.000 A 
ATOM     18  C   UNL     1       3.768   4.631  18.088  0.00  0.00    +0.000 A 
ATOM     19  C   UNL     1       4.617   5.842  18.056  0.00  0.00    +0.000 A 
ATOM     20  O   UNL     1       5.840   5.788  18.096  0.00  0.00    +0.000 OA
ATOM     21  N   UNL     1       3.957   7.040  17.959  0.00  0.00    +0.000 N 
ATOM     22  H   UNL     1       4.552   7.841  17.812  0.00  0.00    +0.000 HD
ENDBRANCH   7  11
BRANCH   2  23
ATOM     23  C   UNL     1      -1.313  11.810  22.805  0.00  0.00    +0.000 A 
ATOM     24  C   UNL     1      -0.618  12.996  22.521  0.00  0.00    +0.000 A 
ATOM     25  C   UNL     1      -1.273  14.227  22.606  0.00  0.00    +0.000 A 
ATOM     26  C   UNL     1      -2.617  14.262  22.964  0.00  0.00    +0.000 A 
ATOM     27  F   UNL     1      -3.252  15.440  23.021  0.00  0.00    +0.000 F 
ATOM     28  C   UNL     1      -3.296  13.090  23.273  0.00  0.00    +0.000 A 
ATOM     29  F   UNL     1      -4.592  13.124  23.610  0.00  0.00    +0.000 F 
ATOM     30  C   UNL     1      -2.645  11.866  23.236  0.00  0.00    +0.000 A 
ENDBRANCH   2  23
TORSDOF 2
ENDMDL
MODEL 2
REMARK VINA RESULT:      -9.2      0.495      1.248
REMARK  Name = 
REMARK  2 active torsions:
REMARK  status: ('A' for Active; 'I' for Inactive)
REMARK    1  A    between atoms: C_2  and  C_3
REMARK    2  A    between atoms: C_15  and  C_17
REMARK                            x       y       z     vdW  Elec       q    Type
REMARK                         _______ _______ _______ _____ _____    ______ ____
ROOT
ATOM      1  O   UNL     1      -0.294   9.913  23.839  0.00  0.00    +0.000 OA
ATOM      2  C   UNL     1      -0.530  10.499  22.784  0.00  0.00    +0.000 C 
ATOM      3  N   UNL     1      -0.167   9.989  21.544  0.00  0.00    +0.000 N 
ATOM      4  C   UNL     1       0.188   8.578  21.463  0.00  0.00    +0.000 C 
ATOM      5  C   UNL     1       1.494   8.350  20.702  0.00  0.00    +0.000 C 
ATOM      6  N   UNL     1       1.539   9.061  19.410  0.00  0.00    +0.000 N 
ATOM      7  C   UNL     1       1.961   8.575  18.177  0.00  0.00    +0.000 C 
ATOM      8  O   UNL     1       1.832   9.238  17.146  0.00  0.00    +0.000 OA
ATOM      9  C   UNL     1       1.169  10.477  19.496  0.00  0.00    +0.000 C 
ATOM     10  C   UNL     1      -0.146  10.698  20.254  0.00  0.00    +0.000 C 
ENDROOT
BRANCH   7  11
ATOM     11  C   UNL     1       2.579   7.201  18.080  0.00  0.00    +0.000 A 
ATOM     12  C   UNL     1       1.768   6.132  18.164  0.00  0.00    +0.000 A 
ATOM     13  C   UNL     1       2.341   4.784  18.081  0.00  0.00    +0.000 A 
ATOM     14  C   UNL     1       1.531   3.645  18.052  0.00  0.00    +0.000 A 
ATOM     15  C   UNL     1       2.113   2.373  17.991  0.00  0.00    +0.000 A 
ATOM     16  C   UNL     1       3.504   2.230  17.972  0.00  0.00    +0.000 A 
ATOM     17  C   UNL     1       4.320   3.357  17.999  0.00  0.00    +0.000 A 
ATOM     18  C   UNL     1       3.734   4.626  18.036  0.00  0.00    +0.000 A 
ATOM     19  C   UNL     1       4.585   5.833  17.956  0.00  0.00    +0.000 A 
ATOM     20  O   UNL     1       5.809   5.775  17.939  0.00  0.00    +0.000 OA
ATOM     21  N   UNL     1       3.926   7.033  17.881  0.00  0.00    +0.000 N 
ATOM     22  H   UNL     1       4.516   7.831  17.701  0.00  0.00    +0.000 HD
ENDBRANCH   7  11
BRANCH   2  23
ATOM     23  C   UNL     1      -1.251  11.792  22.876  0.00  0.00    +0.000 A 
ATOM     24  C   UNL     1      -2.610  11.783  23.227  0.00  0.00    +0.000 A 
ATOM     25  C   UNL     1      -3.321  12.984  23.296  0.00  0.00    +0.000 A 
ATOM     26  C   UNL     1      -2.667  14.182  23.021  0.00  0.00    +0.000 A 
ATOM     27  F   UNL     1      -3.342  15.334  23.111  0.00  0.00    +0.000 F 
ATOM     28  C   UNL     1      -1.330  14.185  22.645  0.00  0.00    +0.000 A 
ATOM     29  F   UNL     1      -0.700  15.340  22.389  0.00  0.00    +0.000 F 
ATOM     30  C   UNL     1      -0.625  12.997  22.530  0.00  0.00    +0.000 A 
ENDBRANCH   2  23
TORSDOF 2
ENDMDL
MODEL 3
REMARK VINA RESULT:      -8.6      1.231      1.927
REMARK  Name = 
REMARK  2 active torsions:
REMARK  status: ('A' for Active; 'I' for Inactive)
REMARK    1  A    between atoms: C_2  and  C_3
REMARK    2  A    between atoms: C_15  and  C_17
REMARK                            x       y       z     vdW  Elec       q    Type
REMARK                         _______ _______ _______ _____ _____    ______ ____
ROOT
ATOM      1  O   UNL     1      -0.339   9.862  23.868  0.00  0.00    +0.000 OA
ATOM      2  C   UNL     1      -0.614  10.489  22.847  0.00  0.00    +0.000 C 
ATOM      3  N   UNL     1      -0.244  10.058  21.579  0.00  0.00    +0.000 N 
ATOM      4  C   UNL     1       0.174   8.671  21.423  0.00  0.00    +0.000 C 
ATOM      5  C   UNL     1       1.479   8.542  20.637  0.00  0.00    +0.000 C 
ATOM      6  N   UNL     1       1.475   9.318  19.383  0.00  0.00    +0.000 N 
ATOM      7  C   UNL     1       1.903   8.915  18.122  0.00  0.00    +0.000 C 
ATOM      8  O   UNL     1       1.731   9.622  17.128  0.00  0.00    +0.000 OA
ATOM      9  C   UNL     1       1.043  10.710  19.544  0.00  0.00    +0.000 C 
ATOM     10  C   UNL     1      -0.271  10.831  20.327  0.00  0.00    +0.000 C 
ENDROOT
BRANCH   7  11
ATOM     11  C   UNL     1       2.581   7.577  17.949  0.00  0.00    +0.000 A 
ATOM     12  C   UNL     1       3.823   7.555  17.434  0.00  0.00    +0.000 A 
ATOM     13  C   UNL     1       4.503   6.269  17.247  0.00  0.00    +0.000 A 
ATOM     14  C   UNL     1       5.833   6.199  16.821  0.00  0.00    +0.000 A 
ATOM     15  C   UNL     1       6.444   4.954  16.634  0.00  0.00    +0.000 A 
ATOM     16  C   UNL     1       5.731   3.772  16.859  0.00  0.00    +0.000 A 
ATOM     17  C   UNL     1       4.407   3.830  17.285  0.00  0.00    +0.000 A 
ATOM     18  C   UNL     1       3.808   5.076  17.492  0.00  0.00    +0.000 A 
ATOM     19  C   UNL     1       2.438   5.152  18.047  0.00  0.00    +0.000 A 
ATOM     20  O   UNL     1       1.761   4.154  18.264  0.00  0.00    +0.000 OA
ATOM     21  N   UNL     1       1.969   6.409  18.329  0.00  0.00    +0.000 N 
ATOM     22  H   UNL     1       1.089   6.434  18.821  0.00  0.00    +0.000 HD
ENDBRANCH   7  11
BRANCH   2  23
ATOM     23  C   UNL     1      -1.391  11.741  23.011  0.00  0.00    +0.000 A 
ATOM     24  C   UNL     1      -0.742  12.970  22.814  0.00  0.00    +0.000 A 
ATOM     25  C   UNL     1      -1.443  14.166  22.988  0.00  0.00    +0.000 A 
ATOM     26  C   UNL     1      -2.787  14.124  23.348  0.00  0.00    +0.000 A 
ATOM     27  F   UNL     1      -3.465  15.269  23.490  0.00  0.00    +0.000 F 
ATOM     28  C   UNL     1      -3.420  12.907  23.571  0.00  0.00    +0.000 A 
ATOM     29  F   UNL     1      -4.716  12.868  23.909  0.00  0.00    +0.000 F 
ATOM     30  C   UNL     1      -2.723  11.715  23.445  0.00  0.00    +0.000 A 
ENDBRANCH   2  23
TORSDOF 2
ENDMDL
MODEL 4
REMARK VINA RESULT:      -8.4      3.908      9.949
REMARK  Name = 
REMARK  2 active torsions:
REMARK  status: ('A' for Active; 'I' for Inactive)
REMARK    1  A    between atoms: C_2  and  C_3
REMARK    2  A    between atoms: C_15  and  C_17
REMARK                            x       y       z     vdW  Elec       q    Type
REMARK                         _______ _______ _______ _____ _____    ______ ____
ROOT
ATOM      1  O   UNL     1       2.201   9.194  17.150  0.00  0.00    +0.000 OA
ATOM      2  C   UNL     1       2.119   8.447  18.123  0.00  0.00    +0.000 C 
ATOM      3  N   UNL     1       1.370   8.761  19.250  0.00  0.00    +0.000 N 
ATOM      4  C   UNL     1       0.389   9.833  19.143  0.00  0.00    +0.000 C 
ATOM      5  C   UNL     1       0.493  10.834  20.293  0.00  0.00    +0.000 C 
ATOM      6  N   UNL     1       0.539  10.187  21.617  0.00  0.00    +0.000 N 
ATOM      7  C   UNL     1      -0.159  10.536  22.768  0.00  0.00    +0.000 C 
ATOM      8  O   UNL     1      -0.122   9.834  23.780  0.00  0.00    +0.000 OA
ATOM      9  C   UNL     1       1.521   9.102  21.716  0.00  0.00    +0.000 C 
ATOM     10  C   UNL     1       1.406   8.097  20.563  0.00  0.00    +0.000 C 
ENDROOT
BRANCH   7  11
ATOM     11  C   UNL     1      -0.998  11.790  22.790  0.00  0.00    +0.000 A 
ATOM     12  C   UNL     1      -2.276  11.695  23.198  0.00  0.00    +0.000 A 
ATOM     13  C   UNL     1      -3.117  12.895  23.221  0.00  0.00    +0.000 A 
ATOM     14  C   UNL     1      -4.415  12.870  23.741  0.00  0.00    +0.000 A 
ATOM     15  C   UNL     1      -5.197  14.032  23.730  0.00  0.00    +0.000 A 
ATOM     16  C   UNL     1      -4.695  15.220  23.190  0.00  0.00    +0.000 A 
ATOM     17  C   UNL     1      -3.404  15.257  22.671  0.00  0.00    +0.000 A 
ATOM     18  C   UNL     1      -2.619  14.100  22.705  0.00  0.00    +0.000 A 
ATOM     19  C   UNL     1      -1.210  14.153  22.257  0.00  0.00    +0.000 A 
ATOM     20  O   UNL     1      -0.712  15.163  21.772  0.00  0.00    +0.000 OA
ATOM     21  N   UNL     1      -0.477  13.008  22.432  0.00  0.00    +0.000 N 
ATOM     22  H   UNL     1       0.509  13.101  22.238  0.00  0.00    +0.000 HD
ENDBRANCH   7  11
BRANCH   2  23
ATOM     23  C   UNL     1       2.844   7.156  18.046  0.00  0.00    +0.000 A 
ATOM     24  C   UNL     1       4.205   7.165  17.701  0.00  0.00    +0.000 A 
ATOM     25  C   UNL     1       4.907   5.962  17.596  0.00  0.00    +0.000 A 
ATOM     26  C   UNL     1       4.247   4.762  17.844  0.00  0.00    +0.000 A 
ATOM     27  F   UNL     1       4.926   3.611  17.768  0.00  0.00    +0.000 F 
ATOM     28  C   UNL     1       2.893   4.753  18.157  0.00  0.00    +0.000 A 
ATOM     29  F   UNL     1       2.261   3.598  18.404  0.00  0.00    +0.000 F 
ATOM     30  C   UNL     1       2.175   5.937  18.221  0.00  0.00    +0.000 A 
ENDBRANCH   2  23
TORSDOF 2
ENDMDL
MODEL 5
REMARK VINA RESULT:      -8.4      1.312      2.262
REMARK  Name = 
REMARK  2 active torsions:
REMARK  status: ('A' for Active; 'I' for Inactive)
REMARK    1  A    between atoms: C_2  and  C_3
REMARK    2  A    between atoms: C_15  and  C_17
REMARK                            x       y       z     vdW  Elec       q    Type
REMARK                         _______ _______ _______ _____ _____    ______ ____
ROOT
ATOM      1  O   UNL     1      -0.369   9.927  23.882  0.00  0.00    +0.000 OA
ATOM      2  C   UNL     1      -0.619  10.568  22.864  0.00  0.00    +0.000 C 
ATOM      3  N   UNL     1      -0.254  10.136  21.595  0.00  0.00    +0.000 N 
ATOM      4  C   UNL     1       0.126   8.739  21.432  0.00  0.00    +0.000 C 
ATOM      5  C   UNL     1       1.431   8.578  20.654  0.00  0.00    +0.000 C 
ATOM      6  N   UNL     1       1.458   9.362  19.405  0.00  0.00    +0.000 N 
ATOM      7  C   UNL     1       1.883   8.956  18.145  0.00  0.00    +0.000 C 
ATOM      8  O   UNL     1       1.737   9.674  17.155  0.00  0.00    +0.000 OA
ATOM      9  C   UNL     1       1.065  10.765  19.573  0.00  0.00    +0.000 C 
ATOM     10  C   UNL     1      -0.250  10.918  20.348  0.00  0.00    +0.000 C 
ENDROOT
BRANCH   7  11
ATOM     11  C   UNL     1       2.523   7.601  17.966  0.00  0.00    +0.000 A 
ATOM     12  C   UNL     1       3.760   7.545  17.442  0.00  0.00    +0.000 A 
ATOM     13  C   UNL     1       4.404   6.242  17.249  0.00  0.00    +0.000 A 
ATOM     14  C   UNL     1       5.728   6.136  16.812  0.00  0.00    +0.000 A 
ATOM     15  C   UNL     1       6.305   4.875  16.621  0.00  0.00    +0.000 A 
ATOM     16  C   UNL     1       5.562   3.713  16.852  0.00  0.00    +0.000 A 
ATOM     17  C   UNL     1       4.243   3.806  17.289  0.00  0.00    +0.000 A 
ATOM     18  C   UNL     1       3.679   5.068  17.500  0.00  0.00    +0.000 A 
ATOM     19  C   UNL     1       2.317   5.180  18.066  0.00  0.00    +0.000 A 
ATOM     20  O   UNL     1       1.615   4.201  18.289  0.00  0.00    +0.000 OA
ATOM     21  N   UNL     1       1.884   6.449  18.351  0.00  0.00    +0.000 N 
ATOM     22  H   UNL     1       1.009   6.497  18.851  0.00  0.00    +0.000 HD
ENDBRANCH   7  11
BRANCH   2  23
ATOM     23  C   UNL     1      -1.362  11.841  23.032  0.00  0.00    +0.000 A 
ATOM     24  C   UNL     1      -2.734  11.788  23.323  0.00  0.00    +0.000 A 
ATOM     25  C   UNL     1      -3.465  12.971  23.460  0.00  0.00    +0.000 A 
ATOM     26  C   UNL     1      -2.817  14.195  23.316  0.00  0.00    +0.000 A 
ATOM     27  F   UNL     1      -3.512  15.328  23.473  0.00  0.00    +0.000 F 
ATOM     28  C   UNL     1      -1.466  14.244  23.000  0.00  0.00    +0.000 A 
ATOM     29  F   UNL     1      -0.842  15.423  22.869  0.00  0.00    +0.000 F 
ATOM     30  C   UNL     1      -0.740  13.077  22.817  0.00  0.00    +0.000 A 
ENDBRANCH   2  23
TORSDOF 2
ENDMDL
MODEL 6
REMARK VINA RESULT:      -8.4      4.436      9.757
REMARK  Name = 
REMARK  2 active torsions:
REMARK  status: ('A' for Active; 'I' for Inactive)
REMARK    1  A    between atoms: C_2  and  C_3
REMARK    2  A    between atoms: C_15  and  C_17
REMARK                            x       y       z     vdW  Elec       q    Type
REMARK                         _______ _______ _______ _____ _____    ______ ____
ROOT
ATOM      1  O   UNL     1       1.611   5.422  20.850  0.00  0.00    +0.000 OA
ATOM      2  C   UNL     1       2.156   6.146  20.020  0.00  0.00    +0.000 C 
ATOM      3  N   UNL     1       1.921   7.514  19.947  0.00  0.00    +0.000 N 
ATOM      4  C   UNL     1       1.286   8.160  21.089  0.00  0.00    +0.000 C 
ATOM      5  C   UNL     1       0.122   9.060  20.674  0.00  0.00    +0.000 C 
ATOM      6  N   UNL     1       0.468   9.978  19.574  0.00  0.00    +0.000 N 
ATOM      7  C   UNL     1       0.180  11.335  19.465  0.00  0.00    +0.000 C 
ATOM      8  O   UNL     1       0.636  12.017  18.546  0.00  0.00    +0.000 OA
ATOM      9  C   UNL     1       1.117   9.325  18.433  0.00  0.00    +0.000 C 
ATOM     10  C   UNL     1       2.289   8.430  18.856  0.00  0.00    +0.000 C 
ENDROOT
BRANCH   7  11
ATOM     11  C   UNL     1      -0.695  12.005  20.496  0.00  0.00    +0.000 A 
ATOM     12  C   UNL     1      -2.013  12.097  20.249  0.00  0.00    +0.000 A 
ATOM     13  C   UNL     1      -2.887  12.750  21.230  0.00  0.00    +0.000 A 
ATOM     14  C   UNL     1      -4.276  12.772  21.072  0.00  0.00    +0.000 A 
ATOM     15  C   UNL     1      -5.078  13.422  22.019  0.00  0.00    +0.000 A 
ATOM     16  C   UNL     1      -4.499  14.061  23.120  0.00  0.00    +0.000 A 
ATOM     17  C   UNL     1      -3.118  14.043  23.287  0.00  0.00    +0.000 A 
ATOM     18  C   UNL     1      -2.323  13.374  22.352  0.00  0.00    +0.000 A 
ATOM     19  C   UNL     1      -0.865  13.255  22.574  0.00  0.00    +0.000 A 
ATOM     20  O   UNL     1      -0.298  13.794  23.518  0.00  0.00    +0.000 OA
ATOM     21  N   UNL     1      -0.177  12.486  21.672  0.00  0.00    +0.000 N 
ATOM     22  H   UNL     1       0.788  12.313  21.910  0.00  0.00    +0.000 HD
ENDBRANCH   7  11
BRANCH   2  23
ATOM     23  C   UNL     1       3.113   5.505  19.088  0.00  0.00    +0.000 A 
ATOM     24  C   UNL     1       2.612   4.829  17.964  0.00  0.00    +0.000 A 
ATOM     25  C   UNL     1       3.489   4.193  17.082  0.00  0.00    +0.000 A 
ATOM     26  C   UNL     1       4.859   4.244  17.326  0.00  0.00    +0.000 A 
ATOM     27  F   UNL     1       5.701   3.656  16.467  0.00  0.00    +0.000 F 
ATOM     28  C   UNL     1       5.351   4.888  18.454  0.00  0.00    +0.000 A 
ATOM     29  F   UNL     1       6.670   4.943  18.683  0.00  0.00    +0.000 F 
ATOM     30  C   UNL     1       4.488   5.484  19.360  0.00  0.00    +0.000 A 
ENDBRANCH   2  23
TORSDOF 2
ENDMDL
MODEL 7
REMARK VINA RESULT:      -8.3      1.192      1.202
REMARK  Name = 
REMARK  2 active torsions:
REMARK  status: ('A' for Active; 'I' for Inactive)
REMARK    1  A    between atoms: C_2  and  C_3
REMARK    2  A    between atoms: C_15  and  C_17
REMARK                            x       y       z     vdW  Elec       q    Type
REMARK                         _______ _______ _______ _____ _____    ______ ____
ROOT
ATOM      1  O   UNL     1      -0.727  10.477  23.678  0.00  0.00    +0.000 OA
ATOM      2  C   UNL     1      -0.867  10.922  22.540  0.00  0.00    +0.000 C 
ATOM      3  N   UNL     1      -0.397  10.260  21.412  0.00  0.00    +0.000 N 
ATOM      4  C   UNL     1      -0.039   8.854  21.544  0.00  0.00    +0.000 C 
ATOM      5  C   UNL     1       1.328   8.543  20.935  0.00  0.00    +0.000 C 
ATOM      6  N   UNL     1       1.488   9.083  19.573  0.00  0.00    +0.000 N 
ATOM      7  C   UNL     1       2.017   8.448  18.454  0.00  0.00    +0.000 C 
ATOM      8  O   UNL     1       1.980   8.973  17.340  0.00  0.00    +0.000 OA
ATOM      9  C   UNL     1       1.116  10.495  19.443  0.00  0.00    +0.000 C 
ATOM     10  C   UNL     1      -0.260  10.799  20.049  0.00  0.00    +0.000 C 
ENDROOT
BRANCH   7  11
ATOM     11  C   UNL     1       2.637   7.079  18.587  0.00  0.00    +0.000 A 
ATOM     12  C   UNL     1       2.195   6.273  19.569  0.00  0.00    +0.000 A 
ATOM     13  C   UNL     1       2.785   4.940  19.728  0.00  0.00    +0.000 A 
ATOM     14  C   UNL     1       2.286   4.024  20.659  0.00  0.00    +0.000 A 
ATOM     15  C   UNL     1       2.887   2.767  20.798  0.00  0.00    +0.000 A 
ATOM     16  C   UNL     1       3.994   2.420  20.017  0.00  0.00    +0.000 A 
ATOM     17  C   UNL     1       4.499   3.323  19.086  0.00  0.00    +0.000 A 
ATOM     18  C   UNL     1       3.882   4.569  18.936  0.00  0.00    +0.000 A 
ATOM     19  C   UNL     1       4.339   5.495  17.876  0.00  0.00    +0.000 A 
ATOM     20  O   UNL     1       5.304   5.250  17.162  0.00  0.00    +0.000 OA
ATOM     21  N   UNL     1       3.607   6.643  17.720  0.00  0.00    +0.000 N 
ATOM     22  H   UNL     1       3.855   7.199  16.915  0.00  0.00    +0.000 HD
ENDBRANCH   7  11
BRANCH   2  23
ATOM     23  C   UNL     1      -1.590  12.209  22.402  0.00  0.00    +0.000 A 
ATOM     24  C   UNL     1      -0.899  13.403  22.660  0.00  0.00    +0.000 A 
ATOM     25  C   UNL     1      -1.562  14.629  22.563  0.00  0.00    +0.000 A 
ATOM     26  C   UNL     1      -2.906  14.652  22.201  0.00  0.00    +0.000 A 
ATOM     27  F   UNL     1      -3.535  15.828  22.084  0.00  0.00    +0.000 F 
ATOM     28  C   UNL     1      -3.596  13.467  21.975  0.00  0.00    +0.000 A 
ATOM     29  F   UNL     1      -4.887  13.491  21.619  0.00  0.00    +0.000 F 
ATOM     30  C   UNL     1      -2.960  12.243  22.111  0.00  0.00    +0.000 A 
ENDBRANCH   2  23
TORSDOF 2
ENDMDL
MODEL 8
REMARK VINA RESULT:      -8.3      3.876     10.083
REMARK  Name = 
REMARK  2 active torsions:
REMARK  status: ('A' for Active; 'I' for Inactive)
REMARK    1  A    between atoms: C_2  and  C_3
REMARK    2  A    between atoms: C_15  and  C_17
REMARK                            x       y       z     vdW  Elec       q    Type
REMARK                         _______ _______ _______ _____ _____    ______ ____
ROOT
ATOM      1  O   UNL     1       1.896   9.264  17.231  0.00  0.00    +0.000 OA
ATOM      2  C   UNL     1       1.933   8.505  18.197  0.00  0.00    +0.000 C 
ATOM      3  N   UNL     1       1.216   8.739  19.364  0.00  0.00    +0.000 N 
ATOM      4  C   UNL     1       0.136   9.715  19.319  0.00  0.00    +0.000 C 
ATOM      5  C   UNL     1       0.204  10.712  20.475  0.00  0.00    +0.000 C 
ATOM      6  N   UNL     1       0.377  10.061  21.787  0.00  0.00    +0.000 N 
ATOM      7  C   UNL     1      -0.292  10.334  22.976  0.00  0.00    +0.000 C 
ATOM      8  O   UNL     1      -0.139   9.631  23.975  0.00  0.00    +0.000 OA
ATOM      9  C   UNL     1       1.458   9.072  21.824  0.00  0.00    +0.000 C 
ATOM     10  C   UNL     1       1.379   8.070  20.665  0.00  0.00    +0.000 C 
ENDROOT
BRANCH   7  11
ATOM     11  C   UNL     1      -1.242  11.505  23.054  0.00  0.00    +0.000 A 
ATOM     12  C   UNL     1      -0.787  12.719  22.698  0.00  0.00    +0.000 A 
ATOM     13  C   UNL     1      -1.685  13.876  22.773  0.00  0.00    +0.000 A 
ATOM     14  C   UNL     1      -1.295  15.137  22.310  0.00  0.00    +0.000 A 
ATOM     15  C   UNL     1      -2.171  16.223  22.414  0.00  0.00    +0.000 A 
ATOM     16  C   UNL     1      -3.436  16.062  22.990  0.00  0.00    +0.000 A 
ATOM     17  C   UNL     1      -3.835  14.811  23.453  0.00  0.00    +0.000 A 
ATOM     18  C   UNL     1      -2.964  13.725  23.326  0.00  0.00    +0.000 A 
ATOM     19  C   UNL     1      -3.416  12.370  23.714  0.00  0.00    +0.000 A 
ATOM     20  O   UNL     1      -4.510  12.164  24.226  0.00  0.00    +0.000 OA
ATOM     21  N   UNL     1      -2.546  11.344  23.449  0.00  0.00    +0.000 N 
ATOM     22  H   UNL     1      -2.919  10.420  23.604  0.00  0.00    +0.000 HD
ENDBRANCH   7  11
BRANCH   2  23
ATOM     23  C   UNL     1       2.770   7.288  18.068  0.00  0.00    +0.000 A 
ATOM     24  C   UNL     1       4.057   7.409  17.521  0.00  0.00    +0.000 A 
ATOM     25  C   UNL     1       4.858   6.275  17.363  0.00  0.00    +0.000 A 
ATOM     26  C   UNL     1       4.371   5.033  17.762  0.00  0.00    +0.000 A 
ATOM     27  F   UNL     1       5.148   3.951  17.634  0.00  0.00    +0.000 F 
ATOM     28  C   UNL     1       3.086   4.912  18.276  0.00  0.00    +0.000 A 
ATOM     29  F   UNL     1       2.621   3.717  18.666  0.00  0.00    +0.000 F 
ATOM     30  C   UNL     1       2.265   6.022  18.395  0.00  0.00    +0.000 A 
ENDBRANCH   2  23
TORSDOF 2
ENDMDL
MODEL 9
REMARK VINA RESULT:      -8.3      4.079     10.050
REMARK  Name = 
REMARK  2 active torsions:
REMARK  status: ('A' for Active; 'I' for Inactive)
REMARK    1  A    between atoms: C_2  and  C_3
REMARK    2  A    between atoms: C_15  and  C_17
REMARK                            x       y       z     vdW  Elec       q    Type
REMARK                         _______ _______ _______ _____ _____    ______ ____
ROOT
ATOM      1  O   UNL     1       2.250   9.225  17.162  0.00  0.00    +0.000 OA
ATOM      2  C   UNL     1       2.142   8.457  18.116  0.00  0.00    +0.000 C 
ATOM      3  N   UNL     1       1.376   8.754  19.236  0.00  0.00    +0.000 N 
ATOM      4  C   UNL     1       0.408   9.839  19.135  0.00  0.00    +0.000 C 
ATOM      5  C   UNL     1       0.501  10.812  20.309  0.00  0.00    +0.000 C 
ATOM      6  N   UNL     1       0.516  10.134  21.619  0.00  0.00    +0.000 N 
ATOM      7  C   UNL     1      -0.200  10.465  22.765  0.00  0.00    +0.000 C 
ATOM      8  O   UNL     1      -0.190   9.740  23.761  0.00  0.00    +0.000 OA
ATOM      9  C   UNL     1       1.483   9.037  21.711  0.00  0.00    +0.000 C 
ATOM     10  C   UNL     1       1.379   8.059  20.534  0.00  0.00    +0.000 C 
ENDROOT
BRANCH   7  11
ATOM     11  C   UNL     1      -1.026  11.728  22.799  0.00  0.00    +0.000 A 
ATOM     12  C   UNL     1      -2.298  11.646  23.229  0.00  0.00    +0.000 A 
ATOM     13  C   UNL     1      -3.127  12.855  23.265  0.00  0.00    +0.000 A 
ATOM     14  C   UNL     1      -4.415  12.844  23.807  0.00  0.00    +0.000 A 
ATOM     15  C   UNL     1      -5.186  14.013  23.807  0.00  0.00    +0.000 A 
ATOM     16  C   UNL     1      -4.680  15.195  23.258  0.00  0.00    +0.000 A 
ATOM     17  C   UNL     1      -3.398  15.219  22.718  0.00  0.00    +0.000 A 
ATOM     18  C   UNL     1      -2.624  14.054  22.740  0.00  0.00    +0.000 A 
ATOM     19  C   UNL     1      -1.222  14.092  22.268  0.00  0.00    +0.000 A 
ATOM     20  O   UNL     1      -0.722  15.096  21.774  0.00  0.00    +0.000 OA
ATOM     21  N   UNL     1      -0.498  12.940  22.431  0.00  0.00    +0.000 N 
ATOM     22  H   UNL     1       0.485  13.022  22.221  0.00  0.00    +0.000 HD
ENDBRANCH   7  11
BRANCH   2  23
ATOM     23  C   UNL     1       2.854   7.159  18.023  0.00  0.00    +0.000 A 
ATOM     24  C   UNL     1       2.141   5.977  18.278  0.00  0.00    +0.000 A 
ATOM     25  C   UNL     1       2.793   4.743  18.223  0.00  0.00    +0.000 A 
ATOM     26  C   UNL     1       4.147   4.699  17.907  0.00  0.00    +0.000 A 
ATOM     27  F   UNL     1       4.766   3.514  17.830  0.00  0.00    +0.000 F 
ATOM     28  C   UNL     1       4.858   5.872  17.684  0.00  0.00    +0.000 A 
ATOM     29  F   UNL     1       6.160   5.827  17.372  0.00  0.00    +0.000 F 
ATOM     30  C   UNL     1       4.233   7.105  17.779  0.00  0.00    +0.000 A 
ENDBRANCH   2  23
TORSDOF 2
ENDMDL
