MODEL 1
REMARK VINA RESULT:      -8.8      0.000      0.000
REMARK  Name = 
REMARK  6 active torsions:
REMARK  status: ('A' for Active; 'I' for Inactive)
REMARK    1  A    between atoms: C_1  and  N_2
REMARK    2  A    between atoms: C_6  and  C_7
REMARK    3  A    between atoms: C_7  and  C_8
REMARK    4  A    between atoms: C_8  and  C_9
REMARK    5  A    between atoms: C_13  and  N_14
REMARK    6  A    between atoms: C_19  and  C_20
REMARK                            x       y       z     vdW  Elec       q    Type
REMARK                         _______ _______ _______ _____ _____    ______ ____
ROOT
ATOM      1  C   UNL     1       3.226   4.316  19.479  0.00  0.00    +0.000 A 
ATOM      2  C   UNL     1       2.926   3.676  18.253  0.00  0.00    +0.000 A 
ATOM      3  C   UNL     1       3.916   3.156  17.437  0.00  0.00    +0.000 A 
ATOM      4  C   UNL     1       5.245   3.373  17.754  0.00  0.00    +0.000 A 
ATOM      5  C   UNL     1       5.570   4.276  18.778  0.00  0.00    +0.000 A 
ATOM      6  C   UNL     1       4.585   4.603  19.716  0.00  0.00    +0.000 A 
ENDROOT
BRANCH   5   7
ATOM      7  N   UNL     1       6.686   5.204  18.596  0.00  0.00    +0.000 N 
ATOM      8  C   UNL     1       6.178   6.506  18.085  0.00  0.00    +0.000 C 
ATOM      9  C   UNL     1       6.171   6.256  16.606  0.00  0.00    +0.000 A 
ATOM     10  C   UNL     1       5.160   6.505  15.694  0.00  0.00    +0.000 A 
ATOM     11  C   UNL     1       5.157   5.767  14.504  0.00  0.00    +0.000 A 
ATOM     12  C   UNL     1       6.166   4.814  14.220  0.00  0.00    +0.000 A 
ATOM     13  C   UNL     1       7.221   4.625  15.131  0.00  0.00    +0.000 A 
ATOM     14  C   UNL     1       7.176   5.331  16.323  0.00  0.00    +0.000 A 
ATOM     15  C   UNL     1       7.648   4.795  17.629  0.00  0.00    +0.000 C 
ATOM     16  O   UNL     1       8.542   3.977  17.748  0.00  0.00    +0.000 OA
BRANCH  12  17
ATOM     17  C   UNL     1       6.045   3.889  13.032  0.00  0.00    +0.000 C 
ATOM     18  F   UNL     1       6.848   4.230  11.986  0.00  0.00    +0.000 F 
ATOM     19  F   UNL     1       6.348   2.599  13.338  0.00  0.00    +0.000 F 
ATOM     20  F   UNL     1       4.778   3.867  12.526  0.00  0.00    +0.000 F 
ENDBRANCH  12  17
ENDBRANCH   5   7
BRANCH   1  21
ATOM     21  C   UNL     1       2.075   4.699  20.517  0.00  0.00    +0.000 C 
ATOM     22  C   UNL     1       0.676   4.051  20.255  0.00  0.00    +0.000 C 
ATOM     23  C   UNL     1       1.168   2.975  21.221  0.00  0.00    +0.000 C 
ATOM     24  O   UNL     1       2.160   3.888  21.755  0.00  0.00    +0.000 OA
BRANCH  21  25
ATOM     25  C   UNL     1       2.079   6.183  20.923  0.00  0.00    +0.000 C 
BRANCH  25  31
ATOM     26  C   UNL     1       0.779   9.055  21.049  0.00  0.00    +0.000 C 
ATOM     27  N   UNL     1       1.422   8.441  19.919  0.00  0.00    +0.000 N 
ATOM     28  C   UNL     1       1.654   9.046  18.721  0.00  0.00    +0.000 A 
ATOM     29  N   UNL     1       2.247   8.203  17.912  0.00  0.00    +0.000 NA
ATOM     30  N   UNL     1       2.438   7.031  18.602  0.00  0.00    +0.000 NA
ATOM     31  C   UNL     1       1.949   7.176  19.820  0.00  0.00    +0.000 A 
ENDBRANCH  25  31
ENDBRANCH  21  25
ENDBRANCH   1  21
TORSDOF 5
ENDMDL
MODEL 2
REMARK VINA RESULT:      -8.3      4.263      7.547
REMARK  Name = 
REMARK  6 active torsions:
REMARK  status: ('A' for Active; 'I' for Inactive)
REMARK    1  A    between atoms: C_1  and  N_2
REMARK    2  A    between atoms: C_6  and  C_7
REMARK    3  A    between atoms: C_7  and  C_8
REMARK    4  A    between atoms: C_8  and  C_9
REMARK    5  A    between atoms: C_13  and  N_14
REMARK    6  A    between atoms: C_19  and  C_20
REMARK                            x       y       z     vdW  Elec       q    Type
REMARK                         _______ _______ _______ _____ _____    ______ ____
ROOT
ATOM      1  C   UNL     1       2.236   5.635  18.908  0.00  0.00    +0.000 A 
ATOM      2  C   UNL     1       2.139   6.542  17.827  0.00  0.00    +0.000 A 
ATOM      3  C   UNL     1       2.150   7.913  18.018  0.00  0.00    +0.000 A 
ATOM      4  C   UNL     1       2.128   8.423  19.304  0.00  0.00    +0.000 A 
ATOM      5  C   UNL     1       1.897   7.557  20.384  0.00  0.00    +0.000 A 
ATOM      6  C   UNL     1       2.114   6.187  20.199  0.00  0.00    +0.000 A 
ENDROOT
BRANCH   5   7
ATOM      7  N   UNL     1       1.010   7.975  21.468  0.00  0.00    +0.000 N 
ATOM      8  C   UNL     1      -0.379   8.121  20.953  0.00  0.00    +0.000 C 
ATOM      9  C   UNL     1      -0.356   9.535  20.452  0.00  0.00    +0.000 A 
ATOM     10  C   UNL     1      -0.791  10.025  19.233  0.00  0.00    +0.000 A 
ATOM     11  C   UNL     1      -0.244  11.232  18.781  0.00  0.00    +0.000 A 
ATOM     12  C   UNL     1       0.705  11.950  19.551  0.00  0.00    +0.000 A 
ATOM     13  C   UNL     1       1.082  11.468  20.817  0.00  0.00    +0.000 A 
ATOM     14  C   UNL     1       0.563  10.248  21.222  0.00  0.00    +0.000 A 
ATOM     15  C   UNL     1       1.315   9.248  22.029  0.00  0.00    +0.000 C 
ATOM     16  O   UNL     1       2.185   9.535  22.832  0.00  0.00    +0.000 OA
BRANCH  12  17
ATOM     17  C   UNL     1       1.432  13.140  18.970  0.00  0.00    +0.000 C 
ATOM     18  F   UNL     1       2.230  13.785  19.864  0.00  0.00    +0.000 F 
ATOM     19  F   UNL     1       2.229  12.807  17.921  0.00  0.00    +0.000 F 
ATOM     20  F   UNL     1       0.571  14.088  18.501  0.00  0.00    +0.000 F 
ENDBRANCH  12  17
ENDBRANCH   5   7
BRANCH   1  21
ATOM     21  C   UNL     1       2.459   4.072  18.662  0.00  0.00    +0.000 C 
ATOM     22  C   UNL     1       2.154   3.139  19.878  0.00  0.00    +0.000 C 
ATOM     23  C   UNL     1       0.769   3.026  19.245  0.00  0.00    +0.000 C 
ATOM     24  O   UNL     1       1.303   3.456  17.967  0.00  0.00    +0.000 OA
BRANCH  21  25
ATOM     25  C   UNL     1       3.724   3.751  17.849  0.00  0.00    +0.000 C 
BRANCH  25  31
ATOM     26  C   UNL     1       5.404   5.935  16.310  0.00  0.00    +0.000 C 
ATOM     27  N   UNL     1       5.666   5.398  17.618  0.00  0.00    +0.000 N 
ATOM     28  C   UNL     1       6.655   5.818  18.456  0.00  0.00    +0.000 A 
ATOM     29  N   UNL     1       6.623   5.112  19.560  0.00  0.00    +0.000 NA
ATOM     30  N   UNL     1       5.572   4.234  19.458  0.00  0.00    +0.000 NA
ATOM     31  C   UNL     1       4.985   4.413  18.289  0.00  0.00    +0.000 A 
ENDBRANCH  25  31
ENDBRANCH  21  25
ENDBRANCH   1  21
TORSDOF 5
ENDMDL
MODEL 3
REMARK VINA RESULT:      -7.8      4.218      7.444
REMARK  Name = 
REMARK  6 active torsions:
REMARK  status: ('A' for Active; 'I' for Inactive)
REMARK    1  A    between atoms: C_1  and  N_2
REMARK    2  A    between atoms: C_6  and  C_7
REMARK    3  A    between atoms: C_7  and  C_8
REMARK    4  A    between atoms: C_8  and  C_9
REMARK    5  A    between atoms: C_13  and  N_14
REMARK    6  A    between atoms: C_19  and  C_20
REMARK                            x       y       z     vdW  Elec       q    Type
REMARK                         _______ _______ _______ _____ _____    ______ ____
ROOT
ATOM      1  C   UNL     1       2.228   5.367  19.346  0.00  0.00    +0.000 A 
ATOM      2  C   UNL     1       2.172   6.132  18.157  0.00  0.00    +0.000 A 
ATOM      3  C   UNL     1       2.165   7.517  18.176  0.00  0.00    +0.000 A 
ATOM      4  C   UNL     1       2.082   8.181  19.387  0.00  0.00    +0.000 A 
ATOM      5  C   UNL     1       1.810   7.452  20.555  0.00  0.00    +0.000 A 
ATOM      6  C   UNL     1       2.045   6.073  20.551  0.00  0.00    +0.000 A 
ENDROOT
BRANCH   5   7
ATOM      7  N   UNL     1       0.872   7.991  21.540  0.00  0.00    +0.000 N 
ATOM      8  C   UNL     1      -0.451   8.224  20.898  0.00  0.00    +0.000 C 
ATOM      9  C   UNL     1      -0.267   9.607  20.347  0.00  0.00    +0.000 A 
ATOM     10  C   UNL     1      -0.554  10.074  19.076  0.00  0.00    +0.000 A 
ATOM     11  C   UNL     1       0.130  11.211  18.628  0.00  0.00    +0.000 A 
ATOM     12  C   UNL     1       1.067  11.885  19.450  0.00  0.00    +0.000 A 
ATOM     13  C   UNL     1       1.293  11.432  20.762  0.00  0.00    +0.000 A 
ATOM     14  C   UNL     1       0.642  10.278  21.166  0.00  0.00    +0.000 A 
ATOM     15  C   UNL     1       1.235   9.260  22.075  0.00  0.00    +0.000 C 
ATOM     16  O   UNL     1       2.055   9.511  22.940  0.00  0.00    +0.000 OA
BRANCH  12  17
ATOM     17  C   UNL     1       1.938  12.984  18.889  0.00  0.00    +0.000 C 
ATOM     18  F   UNL     1       2.763  12.573  17.887  0.00  0.00    +0.000 F 
ATOM     19  F   UNL     1       1.217  14.020  18.385  0.00  0.00    +0.000 F 
ATOM     20  F   UNL     1       2.758  13.523  19.837  0.00  0.00    +0.000 F 
ENDBRANCH  12  17
ENDBRANCH   5   7
BRANCH   1  21
ATOM     21  C   UNL     1       2.473   3.789  19.305  0.00  0.00    +0.000 C 
ATOM     22  C   UNL     1       1.557   2.932  20.239  0.00  0.00    +0.000 C 
ATOM     23  C   UNL     1       0.672   2.811  18.999  0.00  0.00    +0.000 C 
ATOM     24  O   UNL     1       1.794   3.158  18.148  0.00  0.00    +0.000 OA
BRANCH  21  25
ATOM     25  C   UNL     1       3.959   3.397  19.253  0.00  0.00    +0.000 C 
BRANCH  25  31
ATOM     26  C   UNL     1       6.382   5.420  19.279  0.00  0.00    +0.000 C 
ATOM     27  N   UNL     1       5.825   4.744  18.138  0.00  0.00    +0.000 N 
ATOM     28  C   UNL     1       6.319   4.804  16.870  0.00  0.00    +0.000 A 
ATOM     29  N   UNL     1       5.570   4.083  16.073  0.00  0.00    +0.000 NA
ATOM     30  N   UNL     1       4.583   3.512  16.838  0.00  0.00    +0.000 NA
ATOM     31  C   UNL     1       4.741   3.902  18.089  0.00  0.00    +0.000 A 
ENDBRANCH  25  31
ENDBRANCH  21  25
ENDBRANCH   1  21
TORSDOF 5
ENDMDL
MODEL 4
REMARK VINA RESULT:      -7.7      4.147      7.411
REMARK  Name = 
REMARK  6 active torsions:
REMARK  status: ('A' for Active; 'I' for Inactive)
REMARK    1  A    between atoms: C_1  and  N_2
REMARK    2  A    between atoms: C_6  and  C_7
REMARK    3  A    between atoms: C_7  and  C_8
REMARK    4  A    between atoms: C_8  and  C_9
REMARK    5  A    between atoms: C_13  and  N_14
REMARK    6  A    between atoms: C_19  and  C_20
REMARK                            x       y       z     vdW  Elec       q    Type
REMARK                         _______ _______ _______ _____ _____    ______ ____
ROOT
ATOM      1  C   UNL     1       2.239   5.321  19.412  0.00  0.00    +0.000 A 
ATOM      2  C   UNL     1       2.162   6.067  18.212  0.00  0.00    +0.000 A 
ATOM      3  C   UNL     1       2.140   7.452  18.211  0.00  0.00    +0.000 A 
ATOM      4  C   UNL     1       2.063   8.133  19.412  0.00  0.00    +0.000 A 
ATOM      5  C   UNL     1       1.811   7.420  20.595  0.00  0.00    +0.000 A 
ATOM      6  C   UNL     1       2.061   6.044  20.609  0.00  0.00    +0.000 A 
ENDROOT
BRANCH   5   7
ATOM      7  N   UNL     1       0.878   7.964  21.581  0.00  0.00    +0.000 N 
ATOM      8  C   UNL     1      -0.450   8.184  20.947  0.00  0.00    +0.000 C 
ATOM      9  C   UNL     1      -0.277   9.562  20.381  0.00  0.00    +0.000 A 
ATOM     10  C   UNL     1      -0.576  10.015  19.108  0.00  0.00    +0.000 A 
ATOM     11  C   UNL     1       0.098  11.151  18.643  0.00  0.00    +0.000 A 
ATOM     12  C   UNL     1       1.038  11.838  19.452  0.00  0.00    +0.000 A 
ATOM     13  C   UNL     1       1.277  11.399  20.766  0.00  0.00    +0.000 A 
ATOM     14  C   UNL     1       0.634  10.246  21.187  0.00  0.00    +0.000 A 
ATOM     15  C   UNL     1       1.239   9.239  22.101  0.00  0.00    +0.000 C 
ATOM     16  O   UNL     1       2.064   9.503  22.957  0.00  0.00    +0.000 OA
BRANCH  12  17
ATOM     17  C   UNL     1       1.900  12.936  18.874  0.00  0.00    +0.000 C 
ATOM     18  F   UNL     1       2.529  12.588  17.717  0.00  0.00    +0.000 F 
ATOM     19  F   UNL     1       1.196  14.065  18.598  0.00  0.00    +0.000 F 
ATOM     20  F   UNL     1       2.894  13.312  19.729  0.00  0.00    +0.000 F 
ENDBRANCH  12  17
ENDBRANCH   5   7
BRANCH   1  21
ATOM     21  C   UNL     1       2.500   3.745  19.393  0.00  0.00    +0.000 C 
ATOM     22  C   UNL     1       1.472   2.873  20.184  0.00  0.00    +0.000 C 
ATOM     23  C   UNL     1       0.767   2.758  18.834  0.00  0.00    +0.000 C 
ATOM     24  O   UNL     1       1.992   3.120  18.148  0.00  0.00    +0.000 OA
BRANCH  21  25
ATOM     25  C   UNL     1       3.982   3.364  19.542  0.00  0.00    +0.000 C 
BRANCH  25  31
ATOM     26  C   UNL     1       4.768   3.686  16.502  0.00  0.00    +0.000 C 
ATOM     27  N   UNL     1       5.259   4.455  17.613  0.00  0.00    +0.000 N 
ATOM     28  C   UNL     1       6.096   5.526  17.520  0.00  0.00    +0.000 A 
ATOM     29  N   UNL     1       6.354   5.987  18.719  0.00  0.00    +0.000 NA
ATOM     30  N   UNL     1       5.647   5.224  19.616  0.00  0.00    +0.000 NA
ATOM     31  C   UNL     1       4.976   4.304  18.948  0.00  0.00    +0.000 A 
ENDBRANCH  25  31
ENDBRANCH  21  25
ENDBRANCH   1  21
TORSDOF 5
ENDMDL
MODEL 5
REMARK VINA RESULT:      -7.7      4.102      7.444
REMARK  Name = 
REMARK  6 active torsions:
REMARK  status: ('A' for Active; 'I' for Inactive)
REMARK    1  A    between atoms: C_1  and  N_2
REMARK    2  A    between atoms: C_6  and  C_7
REMARK    3  A    between atoms: C_7  and  C_8
REMARK    4  A    between atoms: C_8  and  C_9
REMARK    5  A    between atoms: C_13  and  N_14
REMARK    6  A    between atoms: C_19  and  C_20
REMARK                            x       y       z     vdW  Elec       q    Type
REMARK                         _______ _______ _______ _____ _____    ______ ____
ROOT
ATOM      1  C   UNL     1       2.526   5.004  18.972  0.00  0.00    +0.000 A 
ATOM      2  C   UNL     1       2.279   4.704  20.333  0.00  0.00    +0.000 A 
ATOM      3  C   UNL     1       1.640   5.599  21.175  0.00  0.00    +0.000 A 
ATOM      4  C   UNL     1       1.345   6.871  20.721  0.00  0.00    +0.000 A 
ATOM      5  C   UNL     1       1.867   7.303  19.491  0.00  0.00    +0.000 A 
ATOM      6  C   UNL     1       2.301   6.338  18.576  0.00  0.00    +0.000 A 
ENDROOT
BRANCH   5   7
ATOM      7  N   UNL     1       2.397   8.660  19.368  0.00  0.00    +0.000 N 
ATOM      8  C   UNL     1       1.893   9.500  20.489  0.00  0.00    +0.000 C 
ATOM      9  C   UNL     1       0.588   9.981  19.928  0.00  0.00    +0.000 A 
ATOM     10  C   UNL     1      -0.659   9.984  20.528  0.00  0.00    +0.000 A 
ATOM     11  C   UNL     1      -1.785  10.002  19.696  0.00  0.00    +0.000 A 
ATOM     12  C   UNL     1      -1.662  10.042  18.284  0.00  0.00    +0.000 A 
ATOM     13  C   UNL     1      -0.386  10.106  17.698  0.00  0.00    +0.000 A 
ATOM     14  C   UNL     1       0.713  10.039  18.540  0.00  0.00    +0.000 A 
ATOM     15  C   UNL     1       1.989   9.354  18.194  0.00  0.00    +0.000 C 
ATOM     16  O   UNL     1       2.418   9.243  17.059  0.00  0.00    +0.000 OA
BRANCH  12  17
ATOM     17  C   UNL     1      -2.872   9.862  17.397  0.00  0.00    +0.000 C 
ATOM     18  F   UNL     1      -3.739   8.909  17.839  0.00  0.00    +0.000 F 
ATOM     19  F   UNL     1      -3.600  11.003  17.263  0.00  0.00    +0.000 F 
ATOM     20  F   UNL     1      -2.529   9.484  16.132  0.00  0.00    +0.000 F 
ENDBRANCH  12  17
ENDBRANCH   5   7
BRANCH   1  21
ATOM     21  C   UNL     1       3.046   3.884  17.959  0.00  0.00    +0.000 C 
ATOM     22  C   UNL     1       3.290   2.468  18.573  0.00  0.00    +0.000 C 
ATOM     23  C   UNL     1       1.858   2.195  18.116  0.00  0.00    +0.000 C 
ATOM     24  O   UNL     1       1.935   3.295  17.175  0.00  0.00    +0.000 OA
BRANCH  21  25
ATOM     25  C   UNL     1       4.105   4.395  16.967  0.00  0.00    +0.000 C 
BRANCH  25  31
ATOM     26  C   UNL     1       6.738   4.386  15.227  0.00  0.00    +0.000 C 
ATOM     27  N   UNL     1       6.643   4.451  16.660  0.00  0.00    +0.000 N 
ATOM     28  C   UNL     1       7.695   4.607  17.511  0.00  0.00    +0.000 A 
ATOM     29  N   UNL     1       7.261   4.614  18.748  0.00  0.00    +0.000 NA
ATOM     30  N   UNL     1       5.894   4.492  18.707  0.00  0.00    +0.000 NA
ATOM     31  C   UNL     1       5.517   4.403  17.445  0.00  0.00    +0.000 A 
ENDBRANCH  25  31
ENDBRANCH  21  25
ENDBRANCH   1  21
TORSDOF 5
ENDMDL
MODEL 6
REMARK VINA RESULT:      -7.7      7.663     10.804
REMARK  Name = 
REMARK  6 active torsions:
REMARK  status: ('A' for Active; 'I' for Inactive)
REMARK    1  A    between atoms: C_1  and  N_2
REMARK    2  A    between atoms: C_6  and  C_7
REMARK    3  A    between atoms: C_7  and  C_8
REMARK    4  A    between atoms: C_8  and  C_9
REMARK    5  A    between atoms: C_13  and  N_14
REMARK    6  A    between atoms: C_19  and  C_20
REMARK                            x       y       z     vdW  Elec       q    Type
REMARK                         _______ _______ _______ _____ _____    ______ ____
ROOT
ATOM      1  C   UNL     1      -4.929  12.209  19.398  0.00  0.00    +0.000 A 
ATOM      2  C   UNL     1      -5.159  11.854  18.048  0.00  0.00    +0.000 A 
ATOM      3  C   UNL     1      -4.129  11.468  17.207  0.00  0.00    +0.000 A 
ATOM      4  C   UNL     1      -2.820  11.550  17.649  0.00  0.00    +0.000 A 
ATOM      5  C   UNL     1      -2.542  12.202  18.860  0.00  0.00    +0.000 A 
ATOM      6  C   UNL     1      -3.582  12.374  19.780  0.00  0.00    +0.000 A 
ENDROOT
BRANCH   5   7
ATOM      7  N   UNL     1      -1.385  13.092  18.952  0.00  0.00    +0.000 N 
ATOM      8  C   UNL     1      -0.340  12.658  17.984  0.00  0.00    +0.000 C 
ATOM      9  C   UNL     1       0.404  11.641  18.796  0.00  0.00    +0.000 A 
ATOM     10  C   UNL     1       0.786  10.361  18.435  0.00  0.00    +0.000 A 
ATOM     11  C   UNL     1       1.013   9.432  19.458  0.00  0.00    +0.000 A 
ATOM     12  C   UNL     1       0.884   9.788  20.824  0.00  0.00    +0.000 A 
ATOM     13  C   UNL     1       0.561  11.112  21.170  0.00  0.00    +0.000 A 
ATOM     14  C   UNL     1       0.295  12.000  20.140  0.00  0.00    +0.000 A 
ATOM     15  C   UNL     1      -0.725  13.082  20.214  0.00  0.00    +0.000 C 
ATOM     16  O   UNL     1      -1.051  13.644  21.244  0.00  0.00    +0.000 OA
BRANCH  12  17
ATOM     17  C   UNL     1       0.937   8.736  21.906  0.00  0.00    +0.000 C 
ATOM     18  F   UNL     1      -0.265   8.500  22.500  0.00  0.00    +0.000 F 
ATOM     19  F   UNL     1       1.376   7.533  21.448  0.00  0.00    +0.000 F 
ATOM     20  F   UNL     1       1.781   9.083  22.919  0.00  0.00    +0.000 F 
ENDBRANCH  12  17
ENDBRANCH   5   7
BRANCH   1  21
ATOM     21  C   UNL     1      -6.141  12.423  20.417  0.00  0.00    +0.000 C 
ATOM     22  C   UNL     1      -7.572  12.397  19.789  0.00  0.00    +0.000 C 
ATOM     23  C   UNL     1      -7.540  10.916  20.163  0.00  0.00    +0.000 C 
ATOM     24  O   UNL     1      -6.487  11.170  21.128  0.00  0.00    +0.000 OA
BRANCH  21  25
ATOM     25  C   UNL     1      -5.873  13.507  21.474  0.00  0.00    +0.000 C 
BRANCH  25  31
ATOM     26  C   UNL     1      -7.533  13.319  24.151  0.00  0.00    +0.000 C 
ATOM     27  N   UNL     1      -6.168  12.919  23.945  0.00  0.00    +0.000 N 
ATOM     28  C   UNL     1      -5.380  12.303  24.870  0.00  0.00    +0.000 A 
ATOM     29  N   UNL     1      -4.191  12.089  24.361  0.00  0.00    +0.000 NA
ATOM     30  N   UNL     1      -4.208  12.545  23.066  0.00  0.00    +0.000 NA
ATOM     31  C   UNL     1      -5.405  13.038  22.809  0.00  0.00    +0.000 A 
ENDBRANCH  25  31
ENDBRANCH  21  25
ENDBRANCH   1  21
TORSDOF 5
ENDMDL
MODEL 7
REMARK VINA RESULT:      -7.7      5.243      8.661
REMARK  Name = 
REMARK  6 active torsions:
REMARK  status: ('A' for Active; 'I' for Inactive)
REMARK    1  A    between atoms: C_1  and  N_2
REMARK    2  A    between atoms: C_6  and  C_7
REMARK    3  A    between atoms: C_7  and  C_8
REMARK    4  A    between atoms: C_8  and  C_9
REMARK    5  A    between atoms: C_13  and  N_14
REMARK    6  A    between atoms: C_19  and  C_20
REMARK                            x       y       z     vdW  Elec       q    Type
REMARK                         _______ _______ _______ _____ _____    ______ ____
ROOT
ATOM      1  C   UNL     1       2.386   7.345  18.719  0.00  0.00    +0.000 A 
ATOM      2  C   UNL     1       2.409   8.259  17.639  0.00  0.00    +0.000 A 
ATOM      3  C   UNL     1       2.082   9.594  17.803  0.00  0.00    +0.000 A 
ATOM      4  C   UNL     1       1.595  10.033  19.021  0.00  0.00    +0.000 A 
ATOM      5  C   UNL     1       1.255   9.092  20.006  0.00  0.00    +0.000 A 
ATOM      6  C   UNL     1       1.794   7.805  19.913  0.00  0.00    +0.000 A 
ENDROOT
BRANCH   5   7
ATOM      7  N   UNL     1       0.032   9.275  20.787  0.00  0.00    +0.000 N 
ATOM      8  C   UNL     1      -1.141   9.350  19.874  0.00  0.00    +0.000 C 
ATOM      9  C   UNL     1      -1.158  10.813  19.544  0.00  0.00    +0.000 A 
ATOM     10  C   UNL     1      -1.264  11.415  18.302  0.00  0.00    +0.000 A 
ATOM     11  C   UNL     1      -0.773  12.719  18.164  0.00  0.00    +0.000 A 
ATOM     12  C   UNL     1      -0.208  13.419  19.260  0.00  0.00    +0.000 A 
ATOM     13  C   UNL     1      -0.172  12.813  20.528  0.00  0.00    +0.000 A 
ATOM     14  C   UNL     1      -0.620  11.505  20.629  0.00  0.00    +0.000 A 
ATOM     15  C   UNL     1      -0.022  10.486  21.534  0.00  0.00    +0.000 C 
ATOM     16  O   UNL     1       0.517  10.747  22.595  0.00  0.00    +0.000 OA
BRANCH  12  17
ATOM     17  C   UNL     1       0.493  14.741  19.055  0.00  0.00    +0.000 C 
ATOM     18  F   UNL     1       0.830  15.369  20.215  0.00  0.00    +0.000 F 
ATOM     19  F   UNL     1       1.645  14.619  18.342  0.00  0.00    +0.000 F 
ATOM     20  F   UNL     1      -0.280  15.632  18.370  0.00  0.00    +0.000 F 
ENDBRANCH  12  17
ENDBRANCH   5   7
BRANCH   1  21
ATOM     21  C   UNL     1       2.987   5.872  18.572  0.00  0.00    +0.000 C 
ATOM     22  C   UNL     1       4.020   5.670  17.416  0.00  0.00    +0.000 C 
ATOM     23  C   UNL     1       5.055   5.967  18.499  0.00  0.00    +0.000 C 
ATOM     24  O   UNL     1       4.092   5.633  19.530  0.00  0.00    +0.000 OA
BRANCH  21  25
ATOM     25  C   UNL     1       1.944   4.759  18.765  0.00  0.00    +0.000 C 
BRANCH  25  31
ATOM     26  C   UNL     1       3.678   2.135  19.032  0.00  0.00    +0.000 C 
ATOM     27  N   UNL     1       2.913   2.781  20.064  0.00  0.00    +0.000 N 
ATOM     28  C   UNL     1       2.881   2.403  21.372  0.00  0.00    +0.000 A 
ATOM     29  N   UNL     1       2.078   3.196  22.039  0.00  0.00    +0.000 NA
ATOM     30  N   UNL     1       1.598   4.133  21.157  0.00  0.00    +0.000 NA
ATOM     31  C   UNL     1       2.110   3.890  19.965  0.00  0.00    +0.000 A 
ENDBRANCH  25  31
ENDBRANCH  21  25
ENDBRANCH   1  21
TORSDOF 5
ENDMDL
MODEL 8
REMARK VINA RESULT:      -7.6      5.133      8.448
REMARK  Name = 
REMARK  6 active torsions:
REMARK  status: ('A' for Active; 'I' for Inactive)
REMARK    1  A    between atoms: C_1  and  N_2
REMARK    2  A    between atoms: C_6  and  C_7
REMARK    3  A    between atoms: C_7  and  C_8
REMARK    4  A    between atoms: C_8  and  C_9
REMARK    5  A    between atoms: C_13  and  N_14
REMARK    6  A    between atoms: C_19  and  C_20
REMARK                            x       y       z     vdW  Elec       q    Type
REMARK                         _______ _______ _______ _____ _____    ______ ____
ROOT
ATOM      1  C   UNL     1       2.265   7.023  19.329  0.00  0.00    +0.000 A 
ATOM      2  C   UNL     1       2.344   7.525  18.008  0.00  0.00    +0.000 A 
ATOM      3  C   UNL     1       2.059   8.846  17.708  0.00  0.00    +0.000 A 
ATOM      4  C   UNL     1       1.561   9.677  18.695  0.00  0.00    +0.000 A 
ATOM      5  C   UNL     1       1.168   9.127  19.926  0.00  0.00    +0.000 A 
ATOM      6  C   UNL     1       1.665   7.869  20.282  0.00  0.00    +0.000 A 
ENDROOT
BRANCH   5   7
ATOM      7  N   UNL     1      -0.065   9.590  20.563  0.00  0.00    +0.000 N 
ATOM      8  C   UNL     1      -0.911  10.299  19.564  0.00  0.00    +0.000 C 
ATOM      9  C   UNL     1      -0.364  11.692  19.657  0.00  0.00    +0.000 A 
ATOM     10  C   UNL     1       0.016  12.539  18.630  0.00  0.00    +0.000 A 
ATOM     11  C   UNL     1       0.932  13.556  18.927  0.00  0.00    +0.000 A 
ATOM     12  C   UNL     1       1.440  13.737  20.238  0.00  0.00    +0.000 A 
ATOM     13  C   UNL     1       0.989  12.907  21.279  0.00  0.00    +0.000 A 
ATOM     14  C   UNL     1       0.119  11.878  20.952  0.00  0.00    +0.000 A 
ATOM     15  C   UNL     1       0.125  10.541  21.605  0.00  0.00    +0.000 C 
ATOM     16  O   UNL     1       0.470  10.345  22.757  0.00  0.00    +0.000 OA
BRANCH  12  17
ATOM     17  C   UNL     1       2.570  14.703  20.503  0.00  0.00    +0.000 C 
ATOM     18  F   UNL     1       2.914  14.798  21.817  0.00  0.00    +0.000 F 
ATOM     19  F   UNL     1       3.709  14.376  19.837  0.00  0.00    +0.000 F 
ATOM     20  F   UNL     1       2.260  15.974  20.116  0.00  0.00    +0.000 F 
ENDBRANCH  12  17
ENDBRANCH   5   7
BRANCH   1  21
ATOM     21  C   UNL     1       2.819   5.572  19.698  0.00  0.00    +0.000 C 
ATOM     22  C   UNL     1       2.254   4.939  21.011  0.00  0.00    +0.000 C 
ATOM     23  C   UNL     1       1.233   4.294  20.076  0.00  0.00    +0.000 C 
ATOM     24  O   UNL     1       2.115   4.507  18.944  0.00  0.00    +0.000 OA
BRANCH  21  25
ATOM     25  C   UNL     1       4.328   5.407  19.450  0.00  0.00    +0.000 C 
BRANCH  25  31
ATOM     26  C   UNL     1       5.883   7.006  17.217  0.00  0.00    +0.000 C 
ATOM     27  N   UNL     1       5.456   5.634  17.166  0.00  0.00    +0.000 N 
ATOM     28  C   UNL     1       5.734   4.761  16.159  0.00  0.00    +0.000 A 
ATOM     29  N   UNL     1       5.187   3.599  16.421  0.00  0.00    +0.000 NA
ATOM     30  N   UNL     1       4.564   3.702  17.641  0.00  0.00    +0.000 NA
ATOM     31  C   UNL     1       4.734   4.929  18.098  0.00  0.00    +0.000 A 
ENDBRANCH  25  31
ENDBRANCH  21  25
ENDBRANCH   1  21
TORSDOF 5
ENDMDL
MODEL 9
REMARK VINA RESULT:      -7.5      8.257     11.018
REMARK  Name = 
REMARK  6 active torsions:
REMARK  status: ('A' for Active; 'I' for Inactive)
REMARK    1  A    between atoms: C_1  and  N_2
REMARK    2  A    between atoms: C_6  and  C_7
REMARK    3  A    between atoms: C_7  and  C_8
REMARK    4  A    between atoms: C_8  and  C_9
REMARK    5  A    between atoms: C_13  and  N_14
REMARK    6  A    between atoms: C_19  and  C_20
REMARK                            x       y       z     vdW  Elec       q    Type
REMARK                         _______ _______ _______ _____ _____    ______ ____
ROOT
ATOM      1  C   UNL     1      -4.569  11.744  18.298  0.00  0.00    +0.000 A 
ATOM      2  C   UNL     1      -4.668  11.445  16.919  0.00  0.00    +0.000 A 
ATOM      3  C   UNL     1      -3.559  11.107  16.161  0.00  0.00    +0.000 A 
ATOM      4  C   UNL     1      -2.299  11.183  16.726  0.00  0.00    +0.000 A 
ATOM      5  C   UNL     1      -2.143  11.785  17.985  0.00  0.00    +0.000 A 
ATOM      6  C   UNL     1      -3.266  11.905  18.810  0.00  0.00    +0.000 A 
ENDROOT
BRANCH   5   7
ATOM      7  N   UNL     1      -1.012  12.681  18.222  0.00  0.00    +0.000 N 
ATOM      8  C   UNL     1       0.262  11.976  17.914  0.00  0.00    +0.000 C 
ATOM      9  C   UNL     1       0.546  11.304  19.224  0.00  0.00    +0.000 A 
ATOM     10  C   UNL     1       0.897   9.986  19.460  0.00  0.00    +0.000 A 
ATOM     11  C   UNL     1       0.635   9.457  20.729  0.00  0.00    +0.000 A 
ATOM     12  C   UNL     1       0.055  10.244  21.755  0.00  0.00    +0.000 A 
ATOM     13  C   UNL     1      -0.231  11.599  21.515  0.00  0.00    +0.000 A 
ATOM     14  C   UNL     1      -0.008  12.088  20.237  0.00  0.00    +0.000 A 
ATOM     15  C   UNL     1      -0.863  13.108  19.573  0.00  0.00    +0.000 C 
ATOM     16  O   UNL     1      -1.482  13.972  20.167  0.00  0.00    +0.000 OA
BRANCH  12  17
ATOM     17  C   UNL     1      -0.403   9.612  23.049  0.00  0.00    +0.000 C 
ATOM     18  F   UNL     1      -0.955   8.377  22.892  0.00  0.00    +0.000 F 
ATOM     19  F   UNL     1       0.607   9.465  23.947  0.00  0.00    +0.000 F 
ATOM     20  F   UNL     1      -1.356  10.360  23.676  0.00  0.00    +0.000 F 
ENDBRANCH  12  17
ENDBRANCH   5   7
BRANCH   1  21
ATOM     21  C   UNL     1      -5.873  11.899  19.208  0.00  0.00    +0.000 C 
ATOM     22  C   UNL     1      -7.226  11.501  18.534  0.00  0.00    +0.000 C 
ATOM     23  C   UNL     1      -6.963  10.138  19.173  0.00  0.00    +0.000 C 
ATOM     24  O   UNL     1      -6.047  10.745  20.120  0.00  0.00    +0.000 OA
BRANCH  21  25
ATOM     25  C   UNL     1      -5.880  13.180  20.060  0.00  0.00    +0.000 C 
BRANCH  25  31
ATOM     26  C   UNL     1      -3.881  12.742  22.462  0.00  0.00    +0.000 C 
ATOM     27  N   UNL     1      -5.311  12.880  22.534  0.00  0.00    +0.000 N 
ATOM     28  C   UNL     1      -6.039  12.929  23.684  0.00  0.00    +0.000 A 
ATOM     29  N   UNL     1      -7.311  13.047  23.393  0.00  0.00    +0.000 NA
ATOM     30  N   UNL     1      -7.418  13.109  22.026  0.00  0.00    +0.000 NA
ATOM     31  C   UNL     1      -6.209  13.018  21.505  0.00  0.00    +0.000 A 
ENDBRANCH  25  31
ENDBRANCH  21  25
ENDBRANCH   1  21
TORSDOF 5
ENDMDL
