MODEL 1
REMARK VINA RESULT:      -8.3      0.000      0.000
REMARK  Name = 
REMARK  6 active torsions:
REMARK  status: ('A' for Active; 'I' for Inactive)
REMARK    1  A    between atoms: C_2  and  O_3
REMARK    2  A    between atoms: C_2  and  C_4
REMARK    3  A    between atoms: N_8  and  C_9
REMARK    4  A    between atoms: C_12  and  S_13
REMARK    5  A    between atoms: S_13  and  N_16
REMARK    6  A    between atoms: N_16  and  C_17
REMARK                            x       y       z     vdW  Elec       q    Type
REMARK                         _______ _______ _______ _____ _____    ______ ____
ROOT
ATOM      1  C   UNL     1       2.650   6.990  18.530  0.00  0.00    +0.000 A 
ATOM      2  C   UNL     1       2.181   7.106  19.846  0.00  0.00    +0.000 A 
ATOM      3  C   UNL     1       1.547   8.271  20.296  0.00  0.00    +0.000 A 
ATOM      4  C   UNL     1       1.382   9.349  19.431  0.00  0.00    +0.000 A 
ATOM      5  C   UNL     1       1.832   9.260  18.115  0.00  0.00    +0.000 A 
ATOM      6  C   UNL     1       2.471   8.094  17.678  0.00  0.00    +0.000 A 
ENDROOT
BRANCH   1  11
ATOM      7  C   UNL     1       3.598   3.508  17.745  0.00  0.00    +0.000 C 
ATOM      8  C   UNL     1       4.777   4.235  17.130  0.00  0.00    +0.000 C 
ATOM      9  C   UNL     1       4.574   5.668  17.561  0.00  0.00    +0.000 C 
ATOM     10  O   UNL     1       5.458   6.505  17.498  0.00  0.00    +0.000 OA
ATOM     11  N   UNL     1       3.262   5.796  18.051  0.00  0.00    +0.000 N 
ATOM     12  C   UNL     1       2.525   4.560  17.884  0.00  0.00    +0.000 C 
BRANCH   7  14
ATOM     13  O   UNL     1       3.055   2.441  19.824  0.00  0.00    +0.000 OA
ATOM     14  C   UNL     1       3.922   2.873  19.078  0.00  0.00    +0.000 C 
BRANCH  14  15
ATOM     15  O   UNL     1       5.229   2.826  19.410  0.00  0.00    +0.000 OA
ATOM     16  H   UNL     1       5.668   3.670  19.641  0.00  0.00    +0.000 HD
ENDBRANCH  14  15
ENDBRANCH   7  14
ENDBRANCH   1  11
BRANCH   4  17
ATOM     17  S   UNL     1       0.448  10.768  19.950  0.00  0.00    +0.000 S 
ATOM     18  O   UNL     1      -0.690  10.277  20.694  0.00  0.00    +0.000 OA
ATOM     19  O   UNL     1       1.364  11.728  20.527  0.00  0.00    +0.000 OA
BRANCH  17  20
ATOM     20  N   UNL     1      -0.188  11.382  18.508  0.00  0.00    +0.000 N 
ATOM     21  H   UNL     1       0.436  11.095  17.752  0.00  0.00    +0.000 HD
BRANCH  20  22
ATOM     22  C   UNL     1      -1.580  11.129  18.249  0.00  0.00    +0.000 A 
ATOM     23  C   UNL     1      -1.995  10.083  17.427  0.00  0.00    +0.000 A 
ATOM     24  F   UNL     1      -1.095   9.260  16.869  0.00  0.00    +0.000 F 
ATOM     25  C   UNL     1      -3.351   9.836  17.211  0.00  0.00    +0.000 A 
ATOM     26  C   UNL     1      -4.313  10.658  17.802  0.00  0.00    +0.000 A 
ATOM     27  C   UNL     1      -3.910  11.733  18.595  0.00  0.00    +0.000 A 
ATOM     28  C   UNL     1      -2.551  11.965  18.804  0.00  0.00    +0.000 A 
ATOM     29  F   UNL     1      -2.179  12.989  19.586  0.00  0.00    +0.000 F 
ENDBRANCH  20  22
ENDBRANCH  17  20
ENDBRANCH   4  17
TORSDOF 6
ENDMDL
MODEL 2
REMARK VINA RESULT:      -8.3      0.296      1.614
REMARK  Name = 
REMARK  6 active torsions:
REMARK  status: ('A' for Active; 'I' for Inactive)
REMARK    1  A    between atoms: C_2  and  O_3
REMARK    2  A    between atoms: C_2  and  C_4
REMARK    3  A    between atoms: N_8  and  C_9
REMARK    4  A    between atoms: C_12  and  S_13
REMARK    5  A    between atoms: S_13  and  N_16
REMARK    6  A    between atoms: N_16  and  C_17
REMARK                            x       y       z     vdW  Elec       q    Type
REMARK                         _______ _______ _______ _____ _____    ______ ____
ROOT
ATOM      1  C   UNL     1       2.605   7.017  18.598  0.00  0.00    +0.000 A 
ATOM      2  C   UNL     1       2.188   7.045  19.937  0.00  0.00    +0.000 A 
ATOM      3  C   UNL     1       1.537   8.162  20.476  0.00  0.00    +0.000 A 
ATOM      4  C   UNL     1       1.301   9.279  19.679  0.00  0.00    +0.000 A 
ATOM      5  C   UNL     1       1.698   9.277  18.343  0.00  0.00    +0.000 A 
ATOM      6  C   UNL     1       2.355   8.158  17.817  0.00  0.00    +0.000 A 
ENDROOT
BRANCH   1  11
ATOM      7  C   UNL     1       3.628   3.617  17.582  0.00  0.00    +0.000 C 
ATOM      8  C   UNL     1       4.758   4.416  16.965  0.00  0.00    +0.000 C 
ATOM      9  C   UNL     1       4.528   5.815  17.483  0.00  0.00    +0.000 C 
ATOM     10  O   UNL     1       5.382   6.683  17.434  0.00  0.00    +0.000 OA
ATOM     11  N   UNL     1       3.233   5.872  18.030  0.00  0.00    +0.000 N 
ATOM     12  C   UNL     1       2.529   4.623  17.822  0.00  0.00    +0.000 C 
BRANCH   7  14
ATOM     13  O   UNL     1       3.210   2.361  19.584  0.00  0.00    +0.000 OA
ATOM     14  C   UNL     1       4.025   2.921  18.864  0.00  0.00    +0.000 C 
BRANCH  14  15
ATOM     15  O   UNL     1       5.335   2.966  19.182  0.00  0.00    +0.000 OA
ATOM     16  H   UNL     1       5.589   3.475  19.980  0.00  0.00    +0.000 HD
ENDBRANCH  14  15
ENDBRANCH   7  14
ENDBRANCH   1  11
BRANCH   4  17
ATOM     17  S   UNL     1       0.345  10.635  20.314  0.00  0.00    +0.000 S 
ATOM     18  O   UNL     1      -0.826  10.069  20.944  0.00  0.00    +0.000 OA
ATOM     19  O   UNL     1       1.234  11.517  21.038  0.00  0.00    +0.000 OA
BRANCH  17  20
ATOM     20  N   UNL     1      -0.224  11.413  18.923  0.00  0.00    +0.000 N 
ATOM     21  H   UNL     1       0.415  11.182  18.160  0.00  0.00    +0.000 HD
BRANCH  20  22
ATOM     22  C   UNL     1      -1.614  11.237  18.599  0.00  0.00    +0.000 A 
ATOM     23  C   UNL     1      -2.607  12.025  19.178  0.00  0.00    +0.000 A 
ATOM     24  F   UNL     1      -2.285  12.995  20.046  0.00  0.00    +0.000 F 
ATOM     25  C   UNL     1      -3.948  11.858  18.829  0.00  0.00    +0.000 A 
ATOM     26  C   UNL     1      -4.312  10.875  17.906  0.00  0.00    +0.000 A 
ATOM     27  C   UNL     1      -3.331  10.054  17.349  0.00  0.00    +0.000 A 
ATOM     28  C   UNL     1      -1.995  10.235  17.705  0.00  0.00    +0.000 A 
ATOM     29  F   UNL     1      -1.061   9.453  17.145  0.00  0.00    +0.000 F 
ENDBRANCH  20  22
ENDBRANCH  17  20
ENDBRANCH   4  17
TORSDOF 6
ENDMDL
MODEL 3
REMARK VINA RESULT:      -8.2      1.244      2.111
REMARK  Name = 
REMARK  6 active torsions:
REMARK  status: ('A' for Active; 'I' for Inactive)
REMARK    1  A    between atoms: C_2  and  O_3
REMARK    2  A    between atoms: C_2  and  C_4
REMARK    3  A    between atoms: N_8  and  C_9
REMARK    4  A    between atoms: C_12  and  S_13
REMARK    5  A    between atoms: S_13  and  N_16
REMARK    6  A    between atoms: N_16  and  C_17
REMARK                            x       y       z     vdW  Elec       q    Type
REMARK                         _______ _______ _______ _____ _____    ______ ____
ROOT
ATOM      1  C   UNL     1       2.736   6.883  18.582  0.00  0.00    +0.000 A 
ATOM      2  C   UNL     1       2.271   6.887  19.905  0.00  0.00    +0.000 A 
ATOM      3  C   UNL     1       1.593   7.991  20.437  0.00  0.00    +0.000 A 
ATOM      4  C   UNL     1       1.378   9.119  19.650  0.00  0.00    +0.000 A 
ATOM      5  C   UNL     1       1.823   9.141  18.330  0.00  0.00    +0.000 A 
ATOM      6  C   UNL     1       2.507   8.035  17.810  0.00  0.00    +0.000 A 
ENDROOT
BRANCH   1  11
ATOM      7  C   UNL     1       5.090   4.520  16.996  0.00  0.00    +0.000 C 
ATOM      8  C   UNL     1       3.861   3.636  17.079  0.00  0.00    +0.000 C 
ATOM      9  C   UNL     1       2.779   4.576  17.551  0.00  0.00    +0.000 C 
ATOM     10  O   UNL     1       1.592   4.305  17.473  0.00  0.00    +0.000 OA
ATOM     11  N   UNL     1       3.393   5.752  18.019  0.00  0.00    +0.000 N 
ATOM     12  C   UNL     1       4.836   5.628  17.989  0.00  0.00    +0.000 C 
BRANCH   7  14
ATOM     13  O   UNL     1       5.352   4.355  14.616  0.00  0.00    +0.000 OA
ATOM     14  C   UNL     1       5.332   5.069  15.609  0.00  0.00    +0.000 C 
BRANCH  14  15
ATOM     15  O   UNL     1       5.546   6.399  15.526  0.00  0.00    +0.000 OA
ATOM     16  H   UNL     1       6.359   6.753  15.940  0.00  0.00    +0.000 HD
ENDBRANCH  14  15
ENDBRANCH   7  14
ENDBRANCH   1  11
BRANCH   4  17
ATOM     17  S   UNL     1       0.390  10.458  20.271  0.00  0.00    +0.000 S 
ATOM     18  O   UNL     1      -0.801   9.875  20.846  0.00  0.00    +0.000 OA
ATOM     19  O   UNL     1       1.245  11.333  21.043  0.00  0.00    +0.000 OA
BRANCH  17  20
ATOM     20  N   UNL     1      -0.131  11.257  18.873  0.00  0.00    +0.000 N 
ATOM     21  H   UNL     1       0.528  11.027  18.126  0.00  0.00    +0.000 HD
BRANCH  20  22
ATOM     22  C   UNL     1      -1.513  11.098  18.507  0.00  0.00    +0.000 A 
ATOM     23  C   UNL     1      -1.922  10.132  17.590  0.00  0.00    +0.000 A 
ATOM     24  F   UNL     1      -1.029   9.299  17.037  0.00  0.00    +0.000 F 
ATOM     25  C   UNL     1      -3.271   9.975  17.270  0.00  0.00    +0.000 A 
ATOM     26  C   UNL     1      -4.229  10.808  17.853  0.00  0.00    +0.000 A 
ATOM     27  C   UNL     1      -3.828  11.805  18.742  0.00  0.00    +0.000 A 
ATOM     28  C   UNL     1      -2.476  11.948  19.054  0.00  0.00    +0.000 A 
ATOM     29  F   UNL     1      -2.107  12.897  19.928  0.00  0.00    +0.000 F 
ENDBRANCH  20  22
ENDBRANCH  17  20
ENDBRANCH   4  17
TORSDOF 6
ENDMDL
MODEL 4
REMARK VINA RESULT:      -8.2      1.262      2.665
REMARK  Name = 
REMARK  6 active torsions:
REMARK  status: ('A' for Active; 'I' for Inactive)
REMARK    1  A    between atoms: C_2  and  O_3
REMARK    2  A    between atoms: C_2  and  C_4
REMARK    3  A    between atoms: N_8  and  C_9
REMARK    4  A    between atoms: C_12  and  S_13
REMARK    5  A    between atoms: S_13  and  N_16
REMARK    6  A    between atoms: N_16  and  C_17
REMARK                            x       y       z     vdW  Elec       q    Type
REMARK                         _______ _______ _______ _____ _____    ______ ____
ROOT
ATOM      1  C   UNL     1       2.742   6.939  18.579  0.00  0.00    +0.000 A 
ATOM      2  C   UNL     1       2.264   6.922  19.897  0.00  0.00    +0.000 A 
ATOM      3  C   UNL     1       1.575   8.014  20.439  0.00  0.00    +0.000 A 
ATOM      4  C   UNL     1       1.363   9.153  19.666  0.00  0.00    +0.000 A 
ATOM      5  C   UNL     1       1.821   9.196  18.351  0.00  0.00    +0.000 A 
ATOM      6  C   UNL     1       2.515   8.102  17.822  0.00  0.00    +0.000 A 
ENDROOT
BRANCH   1  11
ATOM      7  C   UNL     1       5.114   4.616  16.961  0.00  0.00    +0.000 C 
ATOM      8  C   UNL     1       3.900   3.713  17.056  0.00  0.00    +0.000 C 
ATOM      9  C   UNL     1       2.809   4.635  17.543  0.00  0.00    +0.000 C 
ATOM     10  O   UNL     1       1.626   4.346  17.477  0.00  0.00    +0.000 OA
ATOM     11  N   UNL     1       3.410   5.819  18.006  0.00  0.00    +0.000 N 
ATOM     12  C   UNL     1       4.854   5.718  17.960  0.00  0.00    +0.000 C 
BRANCH   7  14
ATOM     13  O   UNL     1       5.448   6.371  15.359  0.00  0.00    +0.000 OA
ATOM     14  C   UNL     1       5.332   5.173  15.573  0.00  0.00    +0.000 C 
BRANCH  14  15
ATOM     15  O   UNL     1       5.373   4.270  14.571  0.00  0.00    +0.000 OA
ATOM     16  H   UNL     1       4.901   3.423  14.706  0.00  0.00    +0.000 HD
ENDBRANCH  14  15
ENDBRANCH   7  14
ENDBRANCH   1  11
BRANCH   4  17
ATOM     17  S   UNL     1       0.362  10.478  20.297  0.00  0.00    +0.000 S 
ATOM     18  O   UNL     1      -0.822   9.879  20.870  0.00  0.00    +0.000 OA
ATOM     19  O   UNL     1       1.210  11.357  21.074  0.00  0.00    +0.000 OA
BRANCH  17  20
ATOM     20  N   UNL     1      -0.168  11.281  18.905  0.00  0.00    +0.000 N 
ATOM     21  H   UNL     1       0.473  11.036  18.148  0.00  0.00    +0.000 HD
BRANCH  20  22
ATOM     22  C   UNL     1      -1.559  11.148  18.564  0.00  0.00    +0.000 A 
ATOM     23  C   UNL     1      -2.536  11.958  19.139  0.00  0.00    +0.000 A 
ATOM     24  F   UNL     1      -2.196  12.911  20.020  0.00  0.00    +0.000 F 
ATOM     25  C   UNL     1      -3.877  11.832  18.775  0.00  0.00    +0.000 A 
ATOM     26  C   UNL     1      -4.257  10.868  17.838  0.00  0.00    +0.000 A 
ATOM     27  C   UNL     1      -3.294  10.025  17.284  0.00  0.00    +0.000 A 
ATOM     28  C   UNL     1      -1.958  10.165  17.657  0.00  0.00    +0.000 A 
ATOM     29  F   UNL     1      -1.039   9.361  17.100  0.00  0.00    +0.000 F 
ENDBRANCH  20  22
ENDBRANCH  17  20
ENDBRANCH   4  17
TORSDOF 6
ENDMDL
MODEL 5
REMARK VINA RESULT:      -8.2      3.029      7.969
REMARK  Name = 
REMARK  6 active torsions:
REMARK  status: ('A' for Active; 'I' for Inactive)
REMARK    1  A    between atoms: C_2  and  O_3
REMARK    2  A    between atoms: C_2  and  C_4
REMARK    3  A    between atoms: N_8  and  C_9
REMARK    4  A    between atoms: C_12  and  S_13
REMARK    5  A    between atoms: S_13  and  N_16
REMARK    6  A    between atoms: N_16  and  C_17
REMARK                            x       y       z     vdW  Elec       q    Type
REMARK                         _______ _______ _______ _____ _____    ______ ____
ROOT
ATOM      1  C   UNL     1       1.342   8.848  19.193  0.00  0.00    +0.000 A 
ATOM      2  C   UNL     1       1.771   7.845  20.074  0.00  0.00    +0.000 A 
ATOM      3  C   UNL     1       2.720   6.890  19.689  0.00  0.00    +0.000 A 
ATOM      4  C   UNL     1       3.250   6.919  18.401  0.00  0.00    +0.000 A 
ATOM      5  C   UNL     1       2.848   7.908  17.506  0.00  0.00    +0.000 A 
ATOM      6  C   UNL     1       1.893   8.853  17.899  0.00  0.00    +0.000 A 
ENDROOT
BRANCH   1  11
ATOM      7  C   UNL     1      -1.268  11.455  19.361  0.00  0.00    +0.000 C 
ATOM      8  C   UNL     1      -0.773  11.501  20.792  0.00  0.00    +0.000 C 
ATOM      9  C   UNL     1       0.431  10.590  20.780  0.00  0.00    +0.000 C 
ATOM     10  O   UNL     1       1.261  10.586  21.674  0.00  0.00    +0.000 OA
ATOM     11  N   UNL     1       0.406   9.846  19.587  0.00  0.00    +0.000 N 
ATOM     12  C   UNL     1      -0.799  10.121  18.832  0.00  0.00    +0.000 C 
BRANCH   7  14
ATOM     13  O   UNL     1       0.035  13.428  18.952  0.00  0.00    +0.000 OA
ATOM     14  C   UNL     1      -0.747  12.595  18.516  0.00  0.00    +0.000 C 
BRANCH  14  15
ATOM     15  O   UNL     1      -1.211  12.655  17.250  0.00  0.00    +0.000 OA
ATOM     16  H   UNL     1      -2.065  12.217  17.060  0.00  0.00    +0.000 HD
ENDBRANCH  14  15
ENDBRANCH   7  14
ENDBRANCH   1  11
BRANCH   4  17
ATOM     17  S   UNL     1       4.561   5.806  17.957  0.00  0.00    +0.000 S 
ATOM     18  O   UNL     1       5.067   6.238  16.673  0.00  0.00    +0.000 OA
ATOM     19  O   UNL     1       5.438   5.660  19.098  0.00  0.00    +0.000 OA
BRANCH  17  20
ATOM     20  N   UNL     1       3.765   4.343  17.658  0.00  0.00    +0.000 N 
ATOM     21  H   UNL     1       4.465   3.675  17.330  0.00  0.00    +0.000 HD
BRANCH  20  22
ATOM     22  C   UNL     1       2.914   3.838  18.702  0.00  0.00    +0.000 A 
ATOM     23  C   UNL     1       1.528   3.983  18.652  0.00  0.00    +0.000 A 
ATOM     24  F   UNL     1       0.945   4.583  17.605  0.00  0.00    +0.000 F 
ATOM     25  C   UNL     1       0.718   3.461  19.661  0.00  0.00    +0.000 A 
ATOM     26  C   UNL     1       1.295   2.804  20.750  0.00  0.00    +0.000 A 
ATOM     27  C   UNL     1       2.682   2.687  20.831  0.00  0.00    +0.000 A 
ATOM     28  C   UNL     1       3.479   3.212  19.814  0.00  0.00    +0.000 A 
ATOM     29  F   UNL     1       4.811   3.074  19.894  0.00  0.00    +0.000 F 
ENDBRANCH  20  22
ENDBRANCH  17  20
ENDBRANCH   4  17
TORSDOF 6
ENDMDL
MODEL 6
REMARK VINA RESULT:      -8.1      0.219      1.851
REMARK  Name = 
REMARK  6 active torsions:
REMARK  status: ('A' for Active; 'I' for Inactive)
REMARK    1  A    between atoms: C_2  and  O_3
REMARK    2  A    between atoms: C_2  and  C_4
REMARK    3  A    between atoms: N_8  and  C_9
REMARK    4  A    between atoms: C_12  and  S_13
REMARK    5  A    between atoms: S_13  and  N_16
REMARK    6  A    between atoms: N_16  and  C_17
REMARK                            x       y       z     vdW  Elec       q    Type
REMARK                         _______ _______ _______ _____ _____    ______ ____
ROOT
ATOM      1  C   UNL     1       2.684   6.970  18.466  0.00  0.00    +0.000 A 
ATOM      2  C   UNL     1       2.454   8.030  17.578  0.00  0.00    +0.000 A 
ATOM      3  C   UNL     1       1.762   9.181  17.977  0.00  0.00    +0.000 A 
ATOM      4  C   UNL     1       1.277   9.282  19.278  0.00  0.00    +0.000 A 
ATOM      5  C   UNL     1       1.497   8.246  20.184  0.00  0.00    +0.000 A 
ATOM      6  C   UNL     1       2.183   7.098  19.772  0.00  0.00    +0.000 A 
ENDROOT
BRANCH   1  11
ATOM      7  C   UNL     1       3.913   3.547  17.822  0.00  0.00    +0.000 C 
ATOM      8  C   UNL     1       5.133   4.338  17.393  0.00  0.00    +0.000 C 
ATOM      9  C   UNL     1       4.795   5.754  17.793  0.00  0.00    +0.000 C 
ATOM     10  O   UNL     1       5.636   6.635  17.865  0.00  0.00    +0.000 OA
ATOM     11  N   UNL     1       3.420   5.812  18.081  0.00  0.00    +0.000 N 
ATOM     12  C   UNL     1       2.780   4.543  17.802  0.00  0.00    +0.000 C 
BRANCH   7  14
ATOM     13  O   UNL     1       3.109   2.699  19.918  0.00  0.00    +0.000 OA
ATOM     14  C   UNL     1       4.066   2.915  19.187  0.00  0.00    +0.000 C 
BRANCH  14  15
ATOM     15  O   UNL     1       5.326   2.619  19.566  0.00  0.00    +0.000 OA
ATOM     16  H   UNL     1       5.508   1.701  19.853  0.00  0.00    +0.000 HD
ENDBRANCH  14  15
ENDBRANCH   7  14
ENDBRANCH   1  11
BRANCH   4  17
ATOM     17  S   UNL     1       0.533  10.797  19.832  0.00  0.00    +0.000 S 
ATOM     18  O   UNL     1      -0.562  10.437  20.704  0.00  0.00    +0.000 OA
ATOM     19  O   UNL     1       1.586  11.684  20.277  0.00  0.00    +0.000 OA
BRANCH  17  20
ATOM     20  N   UNL     1      -0.191  11.424  18.437  0.00  0.00    +0.000 N 
ATOM     21  H   UNL     1       0.372  11.122  17.639  0.00  0.00    +0.000 HD
BRANCH  20  22
ATOM     22  C   UNL     1      -1.603  11.202  18.278  0.00  0.00    +0.000 A 
ATOM     23  C   UNL     1      -2.548  12.020  18.895  0.00  0.00    +0.000 A 
ATOM     24  F   UNL     1      -2.158  13.062  19.644  0.00  0.00    +0.000 F 
ATOM     25  C   UNL     1      -3.913  11.805  18.706  0.00  0.00    +0.000 A 
ATOM     26  C   UNL     1      -4.349  10.745  17.907  0.00  0.00    +0.000 A 
ATOM     27  C   UNL     1      -3.414   9.896  17.316  0.00  0.00    +0.000 A 
ATOM     28  C   UNL     1      -2.053  10.125  17.512  0.00  0.00    +0.000 A 
ATOM     29  F   UNL     1      -1.164   9.313  16.920  0.00  0.00    +0.000 F 
ENDBRANCH  20  22
ENDBRANCH  17  20
ENDBRANCH   4  17
TORSDOF 6
ENDMDL
MODEL 7
REMARK VINA RESULT:      -8.1      3.685      8.014
REMARK  Name = 
REMARK  6 active torsions:
REMARK  status: ('A' for Active; 'I' for Inactive)
REMARK    1  A    between atoms: C_2  and  O_3
REMARK    2  A    between atoms: C_2  and  C_4
REMARK    3  A    between atoms: N_8  and  C_9
REMARK    4  A    between atoms: C_12  and  S_13
REMARK    5  A    between atoms: S_13  and  N_16
REMARK    6  A    between atoms: N_16  and  C_17
REMARK                            x       y       z     vdW  Elec       q    Type
REMARK                         _______ _______ _______ _____ _____    ______ ____
ROOT
ATOM      1  C   UNL     1       2.311   7.850  18.877  0.00  0.00    +0.000 A 
ATOM      2  C   UNL     1       2.542   6.891  19.874  0.00  0.00    +0.000 A 
ATOM      3  C   UNL     1       3.388   5.797  19.654  0.00  0.00    +0.000 A 
ATOM      4  C   UNL     1       4.011   5.640  18.418  0.00  0.00    +0.000 A 
ATOM      5  C   UNL     1       3.806   6.580  17.411  0.00  0.00    +0.000 A 
ATOM      6  C   UNL     1       2.952   7.666  17.640  0.00  0.00    +0.000 A 
ENDROOT
BRANCH   1  11
ATOM      7  C   UNL     1       0.478  11.050  18.689  0.00  0.00    +0.000 C 
ATOM      8  C   UNL     1       0.119  10.636  20.102  0.00  0.00    +0.000 C 
ATOM      9  C   UNL     1       0.975   9.416  20.342  0.00  0.00    +0.000 C 
ATOM     10  O   UNL     1       1.175   8.963  21.456  0.00  0.00    +0.000 OA
ATOM     11  N   UNL     1       1.483   8.986  19.103  0.00  0.00    +0.000 N 
ATOM     12  C   UNL     1       0.941   9.779  18.019  0.00  0.00    +0.000 C 
BRANCH   7  14
ATOM     13  O   UNL     1       1.589  13.041  19.440  0.00  0.00    +0.000 OA
ATOM     14  C   UNL     1       1.547  12.119  18.637  0.00  0.00    +0.000 C 
BRANCH  14  15
ATOM     15  O   UNL     1       2.448  12.009  17.639  0.00  0.00    +0.000 OA
ATOM     16  H   UNL     1       3.227  12.601  17.666  0.00  0.00    +0.000 HD
ENDBRANCH  14  15
ENDBRANCH   7  14
ENDBRANCH   1  11
BRANCH   4  17
ATOM     17  S   UNL     1       5.199   4.340  18.184  0.00  0.00    +0.000 S 
ATOM     18  O   UNL     1       5.696   4.459  16.832  0.00  0.00    +0.000 OA
ATOM     19  O   UNL     1       6.100   4.339  19.317  0.00  0.00    +0.000 OA
BRANCH  17  20
ATOM     20  N   UNL     1       4.264   2.930  18.198  0.00  0.00    +0.000 N 
ATOM     21  H   UNL     1       4.907   2.137  18.212  0.00  0.00    +0.000 HD
BRANCH  20  22
ATOM     22  C   UNL     1       3.214   2.853  19.179  0.00  0.00    +0.000 A 
ATOM     23  C   UNL     1       3.467   2.471  20.495  0.00  0.00    +0.000 A 
ATOM     24  F   UNL     1       4.716   2.184  20.891  0.00  0.00    +0.000 F 
ATOM     25  C   UNL     1       2.440   2.429  21.438  0.00  0.00    +0.000 A 
ATOM     26  C   UNL     1       1.134   2.752  21.063  0.00  0.00    +0.000 A 
ATOM     27  C   UNL     1       0.861   3.098  19.740  0.00  0.00    +0.000 A 
ATOM     28  C   UNL     1       1.898   3.137  18.809  0.00  0.00    +0.000 A 
ATOM     29  F   UNL     1       1.625   3.493  17.545  0.00  0.00    +0.000 F 
ENDBRANCH  20  22
ENDBRANCH  17  20
ENDBRANCH   4  17
TORSDOF 6
ENDMDL
MODEL 8
REMARK VINA RESULT:      -8.1      1.217      2.846
REMARK  Name = 
REMARK  6 active torsions:
REMARK  status: ('A' for Active; 'I' for Inactive)
REMARK    1  A    between atoms: C_2  and  O_3
REMARK    2  A    between atoms: C_2  and  C_4
REMARK    3  A    between atoms: N_8  and  C_9
REMARK    4  A    between atoms: C_12  and  S_13
REMARK    5  A    between atoms: S_13  and  N_16
REMARK    6  A    between atoms: N_16  and  C_17
REMARK                            x       y       z     vdW  Elec       q    Type
REMARK                         _______ _______ _______ _____ _____    ______ ____
ROOT
ATOM      1  C   UNL     1       2.703   7.094  18.493  0.00  0.00    +0.000 A 
ATOM      2  C   UNL     1       2.430   8.234  17.724  0.00  0.00    +0.000 A 
ATOM      3  C   UNL     1       1.696   9.308  18.244  0.00  0.00    +0.000 A 
ATOM      4  C   UNL     1       1.211   9.250  19.549  0.00  0.00    +0.000 A 
ATOM      5  C   UNL     1       1.473   8.132  20.338  0.00  0.00    +0.000 A 
ATOM      6  C   UNL     1       2.201   7.062  19.806  0.00  0.00    +0.000 A 
ENDROOT
BRANCH   1  11
ATOM      7  C   UNL     1       5.284   4.929  16.978  0.00  0.00    +0.000 C 
ATOM      8  C   UNL     1       4.188   3.905  17.192  0.00  0.00    +0.000 C 
ATOM      9  C   UNL     1       3.010   4.734  17.644  0.00  0.00    +0.000 C 
ATOM     10  O   UNL     1       1.868   4.306  17.648  0.00  0.00    +0.000 OA
ATOM     11  N   UNL     1       3.481   6.014  17.987  0.00  0.00    +0.000 N 
ATOM     12  C   UNL     1       4.925   6.075  17.894  0.00  0.00    +0.000 C 
BRANCH   7  14
ATOM     13  O   UNL     1       5.438   4.602  14.606  0.00  0.00    +0.000 OA
ATOM     14  C   UNL     1       5.395   5.388  15.542  0.00  0.00    +0.000 C 
BRANCH  14  15
ATOM     15  O   UNL     1       5.465   6.721  15.349  0.00  0.00    +0.000 OA
ATOM     16  H   UNL     1       4.767   7.274  15.755  0.00  0.00    +0.000 HD
ENDBRANCH  14  15
ENDBRANCH   7  14
ENDBRANCH   1  11
BRANCH   4  17
ATOM     17  S   UNL     1       0.411  10.666  20.261  0.00  0.00    +0.000 S 
ATOM     18  O   UNL     1      -0.743  10.182  20.984  0.00  0.00    +0.000 OA
ATOM     19  O   UNL     1       1.418  11.477  20.911  0.00  0.00    +0.000 OA
BRANCH  17  20
ATOM     20  N   UNL     1      -0.211  11.494  18.923  0.00  0.00    +0.000 N 
ATOM     21  H   UNL     1       0.400  11.295  18.129  0.00  0.00    +0.000 HD
BRANCH  20  22
ATOM     22  C   UNL     1      -1.612  11.323  18.643  0.00  0.00    +0.000 A 
ATOM     23  C   UNL     1      -2.583  12.114  19.253  0.00  0.00    +0.000 A 
ATOM     24  F   UNL     1      -2.230  13.083  20.111  0.00  0.00    +0.000 F 
ATOM     25  C   UNL     1      -3.935  11.951  18.948  0.00  0.00    +0.000 A 
ATOM     26  C   UNL     1      -4.331  10.970  18.036  0.00  0.00    +0.000 A 
ATOM     27  C   UNL     1      -3.372  10.146  17.447  0.00  0.00    +0.000 A 
ATOM     28  C   UNL     1      -2.025  10.322  17.761  0.00  0.00    +0.000 A 
ATOM     29  F   UNL     1      -1.111   9.536  17.172  0.00  0.00    +0.000 F 
ENDBRANCH  20  22
ENDBRANCH  17  20
ENDBRANCH   4  17
TORSDOF 6
ENDMDL
MODEL 9
REMARK VINA RESULT:      -8.0      3.175      7.762
REMARK  Name = 
REMARK  6 active torsions:
REMARK  status: ('A' for Active; 'I' for Inactive)
REMARK    1  A    between atoms: C_2  and  O_3
REMARK    2  A    between atoms: C_2  and  C_4
REMARK    3  A    between atoms: N_8  and  C_9
REMARK    4  A    between atoms: C_12  and  S_13
REMARK    5  A    between atoms: S_13  and  N_16
REMARK    6  A    between atoms: N_16  and  C_17
REMARK                            x       y       z     vdW  Elec       q    Type
REMARK                         _______ _______ _______ _____ _____    ______ ____
ROOT
ATOM      1  C   UNL     1       1.437   8.961  19.414  0.00  0.00    +0.000 A 
ATOM      2  C   UNL     1       1.846   7.860  20.180  0.00  0.00    +0.000 A 
ATOM      3  C   UNL     1       2.713   6.890  19.662  0.00  0.00    +0.000 A 
ATOM      4  C   UNL     1       3.178   7.003  18.354  0.00  0.00    +0.000 A 
ATOM      5  C   UNL     1       2.794   8.090  17.571  0.00  0.00    +0.000 A 
ATOM      6  C   UNL     1       1.921   9.049  18.097  0.00  0.00    +0.000 A 
ENDROOT
BRANCH   1  11
ATOM      7  C   UNL     1      -0.222  11.541  21.470  0.00  0.00    +0.000 C 
ATOM      8  C   UNL     1      -1.227  11.433  20.341  0.00  0.00    +0.000 C 
ATOM      9  C   UNL     1      -0.726  10.262  19.531  0.00  0.00    +0.000 C 
ATOM     10  O   UNL     1      -1.417   9.691  18.703  0.00  0.00    +0.000 OA
ATOM     11  N   UNL     1       0.587   9.973  19.944  0.00  0.00    +0.000 N 
ATOM     12  C   UNL     1       1.048  10.943  20.915  0.00  0.00    +0.000 C 
BRANCH   7  14
ATOM     13  O   UNL     1      -1.766  11.001  23.226  0.00  0.00    +0.000 OA
ATOM     14  C   UNL     1      -0.663  10.826  22.727  0.00  0.00    +0.000 C 
BRANCH  14  15
ATOM     15  O   UNL     1       0.240   9.993  23.283  0.00  0.00    +0.000 OA
ATOM     16  H   UNL     1       0.380   9.125  22.853  0.00  0.00    +0.000 HD
ENDBRANCH  14  15
ENDBRANCH   7  14
ENDBRANCH   1  11
BRANCH   4  17
ATOM     17  S   UNL     1       4.393   5.860  17.743  0.00  0.00    +0.000 S 
ATOM     18  O   UNL     1       4.771   6.310  16.422  0.00  0.00    +0.000 OA
ATOM     19  O   UNL     1       5.383   5.654  18.778  0.00  0.00    +0.000 OA
BRANCH  17  20
ATOM     20  N   UNL     1       3.517   4.433  17.498  0.00  0.00    +0.000 N 
ATOM     21  H   UNL     1       4.136   3.772  17.025  0.00  0.00    +0.000 HD
BRANCH  20  22
ATOM     22  C   UNL     1       2.833   3.884  18.638  0.00  0.00    +0.000 A 
ATOM     23  C   UNL     1       3.521   3.250  19.671  0.00  0.00    +0.000 A 
ATOM     24  F   UNL     1       4.858   3.154  19.638  0.00  0.00    +0.000 F 
ATOM     25  C   UNL     1       2.841   2.748  20.782  0.00  0.00    +0.000 A 
ATOM     26  C   UNL     1       1.451   2.859  20.858  0.00  0.00    +0.000 A 
ATOM     27  C   UNL     1       0.747   3.458  19.813  0.00  0.00    +0.000 A 
ATOM     28  C   UNL     1       1.440   3.956  18.711  0.00  0.00    +0.000 A 
ATOM     29  F   UNL     1       0.752   4.548  17.723  0.00  0.00    +0.000 F 
ENDBRANCH  20  22
ENDBRANCH  17  20
ENDBRANCH   4  17
TORSDOF 6
ENDMDL
