MODEL 1
REMARK VINA RESULT:      -8.9      0.000      0.000
REMARK  Name = 
REMARK  5 active torsions:
REMARK  status: ('A' for Active; 'I' for Inactive)
REMARK    1  A    between atoms: C_1  and  C_2
REMARK    2  A    between atoms: C_2  and  N_3
REMARK    3  A    between atoms: C_2  and  C_16
REMARK    4  A    between atoms: N_3  and  C_4
REMARK    5  A    between atoms: C_19  and  C_20
REMARK                            x       y       z     vdW  Elec       q    Type
REMARK                         _______ _______ _______ _____ _____    ______ ____
ROOT
ATOM      1  N   UNL     1       2.466   6.197  20.647  0.00  0.00    +0.000 N 
ATOM      2  H   UNL     1       3.482   6.149  20.552  0.00  0.00    +0.000 HD
ENDROOT
BRANCH   1   3
ATOM      3  C   UNL     1       1.950   7.335  20.023  0.00  0.00    +0.000 A 
ATOM      4  C   UNL     1       2.340   7.623  18.705  0.00  0.00    +0.000 A 
ATOM      5  C   UNL     1       1.962   8.811  18.074  0.00  0.00    +0.000 A 
ATOM      6  C   UNL     1       1.198   9.740  18.767  0.00  0.00    +0.000 A 
ATOM      7  C   UNL     1       0.804   9.503  20.091  0.00  0.00    +0.000 A 
ATOM      8  C   UNL     1       1.202   8.304  20.706  0.00  0.00    +0.000 A 
ATOM      9  C   UNL     1       0.029  10.529  20.886  0.00  0.00    +0.000 C 
ATOM     10  C   UNL     1       0.790  11.851  21.052  0.00  0.00    +0.000 C 
ATOM     11  C   UNL     1       0.795  12.727  19.795  0.00  0.00    +0.000 C 
ATOM     12  C   UNL     1       1.526  12.061  18.640  0.00  0.00    +0.000 C 
ATOM     13  O   UNL     1       2.622  12.441  18.240  0.00  0.00    +0.000 OA
ATOM     14  N   UNL     1       0.849  10.957  18.128  0.00  0.00    +0.000 N 
ATOM     15  H   UNL     1      -0.146  11.108  18.261  0.00  0.00    +0.000 HD
ENDBRANCH   1   3
BRANCH   1  17
ATOM     16  C   UNL     1       2.303   3.949  21.533  0.00  0.00    +0.000 C 
ATOM     17  C   UNL     1       1.896   4.862  20.366  0.00  0.00    +0.000 C 
BRANCH  17  18
ATOM     18  C   UNL     1       2.401   4.250  19.086  0.00  0.00    +0.000 A 
ATOM     19  N   UNL     1       1.792   3.347  18.339  0.00  0.00    +0.000 NA
ATOM     20  C   UNL     1       2.638   3.187  17.280  0.00  0.00    +0.000 A 
ATOM     21  C   UNL     1       3.755   3.983  17.423  0.00  0.00    +0.000 A 
ATOM     22  O   UNL     1       3.608   4.683  18.595  0.00  0.00    +0.000 OA
BRANCH  21  23
ATOM     23  C   UNL     1       4.925   4.234  16.593  0.00  0.00    +0.000 A 
ATOM     24  C   UNL     1       6.002   5.013  17.038  0.00  0.00    +0.000 A 
ATOM     25  C   UNL     1       7.032   5.362  16.159  0.00  0.00    +0.000 A 
ATOM     26  C   UNL     1       6.996   4.919  14.841  0.00  0.00    +0.000 A 
ATOM     27  F   UNL     1       7.957   5.295  13.989  0.00  0.00    +0.000 F 
ATOM     28  C   UNL     1       5.968   4.104  14.393  0.00  0.00    +0.000 A 
ATOM     29  C   UNL     1       4.939   3.756  15.269  0.00  0.00    +0.000 A 
ENDBRANCH  21  23
ENDBRANCH  17  18
ENDBRANCH   1  17
TORSDOF 4
ENDMDL
MODEL 2
REMARK VINA RESULT:      -8.8      1.849      3.185
REMARK  Name = 
REMARK  5 active torsions:
REMARK  status: ('A' for Active; 'I' for Inactive)
REMARK    1  A    between atoms: C_1  and  C_2
REMARK    2  A    between atoms: C_2  and  N_3
REMARK    3  A    between atoms: C_2  and  C_16
REMARK    4  A    between atoms: N_3  and  C_4
REMARK    5  A    between atoms: C_19  and  C_20
REMARK                            x       y       z     vdW  Elec       q    Type
REMARK                         _______ _______ _______ _____ _____    ______ ____
ROOT
ATOM      1  N   UNL     1       2.118   3.606  18.845  0.00  0.00    +0.000 N 
ATOM      2  H   UNL     1       1.371   3.062  19.283  0.00  0.00    +0.000 HD
ENDROOT
BRANCH   1   3
ATOM      3  C   UNL     1       2.122   4.925  19.304  0.00  0.00    +0.000 A 
ATOM      4  C   UNL     1       1.627   5.198  20.589  0.00  0.00    +0.000 A 
ATOM      5  C   UNL     1       1.485   6.509  21.054  0.00  0.00    +0.000 A 
ATOM      6  C   UNL     1       1.823   7.569  20.224  0.00  0.00    +0.000 A 
ATOM      7  C   UNL     1       2.301   7.342  18.926  0.00  0.00    +0.000 A 
ATOM      8  C   UNL     1       2.429   6.016  18.479  0.00  0.00    +0.000 A 
ATOM      9  C   UNL     1       2.611   8.482  17.983  0.00  0.00    +0.000 C 
ATOM     10  C   UNL     1       1.385   9.355  17.683  0.00  0.00    +0.000 C 
ATOM     11  C   UNL     1       1.008  10.309  18.821  0.00  0.00    +0.000 C 
ATOM     12  C   UNL     1       0.587   9.559  20.076  0.00  0.00    +0.000 C 
ATOM     13  O   UNL     1      -0.575   9.516  20.465  0.00  0.00    +0.000 OA
ATOM     14  N   UNL     1       1.642   8.895  20.695  0.00  0.00    +0.000 N 
ATOM     15  H   UNL     1       2.495   9.413  20.509  0.00  0.00    +0.000 HD
ENDBRANCH   1   3
BRANCH   1  17
ATOM     16  C   UNL     1       3.735   2.571  20.320  0.00  0.00    +0.000 C 
ATOM     17  C   UNL     1       3.360   2.804  18.849  0.00  0.00    +0.000 C 
BRANCH  17  18
ATOM     18  C   UNL     1       4.517   3.484  18.166  0.00  0.00    +0.000 A 
ATOM     19  N   UNL     1       5.565   4.044  18.740  0.00  0.00    +0.000 NA
ATOM     20  C   UNL     1       6.330   4.447  17.684  0.00  0.00    +0.000 A 
ATOM     21  C   UNL     1       5.712   4.141  16.490  0.00  0.00    +0.000 A 
ATOM     22  O   UNL     1       4.532   3.509  16.793  0.00  0.00    +0.000 OA
BRANCH  21  23
ATOM     23  C   UNL     1       6.089   4.301  15.092  0.00  0.00    +0.000 A 
ATOM     24  C   UNL     1       5.439   3.609  14.060  0.00  0.00    +0.000 A 
ATOM     25  C   UNL     1       5.931   3.665  12.753  0.00  0.00    +0.000 A 
ATOM     26  C   UNL     1       7.060   4.427  12.471  0.00  0.00    +0.000 A 
ATOM     27  F   UNL     1       7.557   4.440  11.228  0.00  0.00    +0.000 F 
ATOM     28  C   UNL     1       7.687   5.162  13.465  0.00  0.00    +0.000 A 
ATOM     29  C   UNL     1       7.199   5.105  14.770  0.00  0.00    +0.000 A 
ENDBRANCH  21  23
ENDBRANCH  17  18
ENDBRANCH   1  17
TORSDOF 4
ENDMDL
MODEL 3
REMARK VINA RESULT:      -8.8      4.665      9.858
REMARK  Name = 
REMARK  5 active torsions:
REMARK  status: ('A' for Active; 'I' for Inactive)
REMARK    1  A    between atoms: C_1  and  C_2
REMARK    2  A    between atoms: C_2  and  N_3
REMARK    3  A    between atoms: C_2  and  C_16
REMARK    4  A    between atoms: N_3  and  C_4
REMARK    5  A    between atoms: C_19  and  C_20
REMARK                            x       y       z     vdW  Elec       q    Type
REMARK                         _______ _______ _______ _____ _____    ______ ____
ROOT
ATOM      1  N   UNL     1       1.470   9.337  19.461  0.00  0.00    +0.000 N 
ATOM      2  H   UNL     1       1.971   9.890  20.158  0.00  0.00    +0.000 HD
ENDROOT
BRANCH   1   3
ATOM      3  C   UNL     1       2.038   8.069  19.315  0.00  0.00    +0.000 A 
ATOM      4  C   UNL     1       2.718   7.763  18.125  0.00  0.00    +0.000 A 
ATOM      5  C   UNL     1       3.194   6.474  17.867  0.00  0.00    +0.000 A 
ATOM      6  C   UNL     1       2.977   5.466  18.797  0.00  0.00    +0.000 A 
ATOM      7  C   UNL     1       2.285   5.723  19.988  0.00  0.00    +0.000 A 
ATOM      8  C   UNL     1       1.811   7.025  20.222  0.00  0.00    +0.000 A 
ATOM      9  C   UNL     1       1.981   4.627  20.983  0.00  0.00    +0.000 C 
ATOM     10  C   UNL     1       1.112   3.510  20.389  0.00  0.00    +0.000 C 
ATOM     11  C   UNL     1       1.874   2.555  19.465  0.00  0.00    +0.000 C 
ATOM     12  C   UNL     1       2.405   3.262  18.228  0.00  0.00    +0.000 C 
ATOM     13  O   UNL     1       1.932   3.087  17.109  0.00  0.00    +0.000 OA
ATOM     14  N   UNL     1       3.436   4.155  18.508  0.00  0.00    +0.000 N 
ATOM     15  H   UNL     1       3.938   3.812  19.320  0.00  0.00    +0.000 HD
ENDBRANCH   1   3
BRANCH   1  17
ATOM     16  C   UNL     1      -0.472  10.578  18.716  0.00  0.00    +0.000 C 
ATOM     17  C   UNL     1       0.016   9.489  19.684  0.00  0.00    +0.000 C 
BRANCH  17  18
ATOM     18  C   UNL     1      -0.336   9.908  21.087  0.00  0.00    +0.000 A 
ATOM     19  N   UNL     1      -0.001   9.298  22.209  0.00  0.00    +0.000 NA
ATOM     20  C   UNL     1      -0.511  10.113  23.179  0.00  0.00    +0.000 A 
ATOM     21  C   UNL     1      -1.165  11.189  22.617  0.00  0.00    +0.000 A 
ATOM     22  O   UNL     1      -1.053  11.067  21.254  0.00  0.00    +0.000 OA
BRANCH  21  23
ATOM     23  C   UNL     1      -1.837  12.358  23.169  0.00  0.00    +0.000 A 
ATOM     24  C   UNL     1      -1.172  13.576  23.368  0.00  0.00    +0.000 A 
ATOM     25  C   UNL     1      -1.804  14.623  24.045  0.00  0.00    +0.000 A 
ATOM     26  C   UNL     1      -3.106  14.462  24.507  0.00  0.00    +0.000 A 
ATOM     27  F   UNL     1      -3.691  15.448  25.197  0.00  0.00    +0.000 F 
ATOM     28  C   UNL     1      -3.802  13.286  24.274  0.00  0.00    +0.000 A 
ATOM     29  C   UNL     1      -3.171  12.239  23.600  0.00  0.00    +0.000 A 
ENDBRANCH  21  23
ENDBRANCH  17  18
ENDBRANCH   1  17
TORSDOF 4
ENDMDL
MODEL 4
REMARK VINA RESULT:      -8.7      4.999      7.527
REMARK  Name = 
REMARK  5 active torsions:
REMARK  status: ('A' for Active; 'I' for Inactive)
REMARK    1  A    between atoms: C_1  and  C_2
REMARK    2  A    between atoms: C_2  and  N_3
REMARK    3  A    between atoms: C_2  and  C_16
REMARK    4  A    between atoms: N_3  and  C_4
REMARK    5  A    between atoms: C_19  and  C_20
REMARK                            x       y       z     vdW  Elec       q    Type
REMARK                         _______ _______ _______ _____ _____    ______ ____
ROOT
ATOM      1  N   UNL     1       6.777   5.074  17.353  0.00  0.00    +0.000 N 
ATOM      2  H   UNL     1       7.258   4.242  17.004  0.00  0.00    +0.000 HD
ENDROOT
BRANCH   1   3
ATOM      3  C   UNL     1       5.448   4.792  17.677  0.00  0.00    +0.000 A 
ATOM      4  C   UNL     1       4.460   5.745  17.379  0.00  0.00    +0.000 A 
ATOM      5  C   UNL     1       3.136   5.578  17.795  0.00  0.00    +0.000 A 
ATOM      6  C   UNL     1       2.787   4.455  18.534  0.00  0.00    +0.000 A 
ATOM      7  C   UNL     1       3.746   3.490  18.871  0.00  0.00    +0.000 A 
ATOM      8  C   UNL     1       5.071   3.683  18.447  0.00  0.00    +0.000 A 
ATOM      9  C   UNL     1       3.402   2.295  19.731  0.00  0.00    +0.000 C 
ATOM     10  C   UNL     1       2.899   2.692  21.125  0.00  0.00    +0.000 C 
ATOM     11  C   UNL     1       1.456   3.206  21.142  0.00  0.00    +0.000 C 
ATOM     12  C   UNL     1       1.302   4.495  20.351  0.00  0.00    +0.000 C 
ATOM     13  O   UNL     1       1.113   5.583  20.885  0.00  0.00    +0.000 OA
ATOM     14  N   UNL     1       1.448   4.315  18.978  0.00  0.00    +0.000 N 
ATOM     15  H   UNL     1       1.137   3.376  18.749  0.00  0.00    +0.000 HD
ENDBRANCH   1   3
BRANCH   1  17
ATOM     16  C   UNL     1       7.026   5.582  19.707  0.00  0.00    +0.000 C 
ATOM     17  C   UNL     1       7.657   5.766  18.319  0.00  0.00    +0.000 C 
BRANCH  17  18
ATOM     18  C   UNL     1       7.798   7.241  18.053  0.00  0.00    +0.000 A 
ATOM     19  N   UNL     1       7.122   7.963  17.178  0.00  0.00    +0.000 NA
ATOM     20  C   UNL     1       7.585   9.230  17.384  0.00  0.00    +0.000 A 
ATOM     21  C   UNL     1       8.553   9.242  18.366  0.00  0.00    +0.000 A 
ATOM     22  O   UNL     1       8.696   7.951  18.812  0.00  0.00    +0.000 OA
BRANCH  21  23
ATOM     23  C   UNL     1       9.332  10.298  18.999  0.00  0.00    +0.000 A 
ATOM     24  C   UNL     1       9.266  10.549  20.377  0.00  0.00    +0.000 A 
ATOM     25  C   UNL     1       9.903  11.669  20.921  0.00  0.00    +0.000 A 
ATOM     26  C   UNL     1      10.620  12.527  20.094  0.00  0.00    +0.000 A 
ATOM     27  F   UNL     1      11.188  13.624  20.610  0.00  0.00    +0.000 F 
ATOM     28  C   UNL     1      10.743  12.269  18.738  0.00  0.00    +0.000 A 
ATOM     29  C   UNL     1      10.106  11.153  18.193  0.00  0.00    +0.000 A 
ENDBRANCH  21  23
ENDBRANCH  17  18
ENDBRANCH   1  17
TORSDOF 4
ENDMDL
MODEL 5
REMARK VINA RESULT:      -8.7      0.690      1.154
REMARK  Name = 
REMARK  5 active torsions:
REMARK  status: ('A' for Active; 'I' for Inactive)
REMARK    1  A    between atoms: C_1  and  C_2
REMARK    2  A    between atoms: C_2  and  N_3
REMARK    3  A    between atoms: C_2  and  C_16
REMARK    4  A    between atoms: N_3  and  C_4
REMARK    5  A    between atoms: C_19  and  C_20
REMARK                            x       y       z     vdW  Elec       q    Type
REMARK                         _______ _______ _______ _____ _____    ______ ____
ROOT
ATOM      1  N   UNL     1       2.715   6.553  20.076  0.00  0.00    +0.000 N 
ATOM      2  H   UNL     1       3.693   6.574  19.780  0.00  0.00    +0.000 HD
ENDROOT
BRANCH   1   3
ATOM      3  C   UNL     1       2.024   7.678  19.621  0.00  0.00    +0.000 A 
ATOM      4  C   UNL     1       2.277   8.153  18.324  0.00  0.00    +0.000 A 
ATOM      5  C   UNL     1       1.716   9.345  17.860  0.00  0.00    +0.000 A 
ATOM      6  C   UNL     1       0.901  10.091  18.701  0.00  0.00    +0.000 A 
ATOM      7  C   UNL     1       0.638   9.665  20.010  0.00  0.00    +0.000 A 
ATOM      8  C   UNL     1       1.219   8.466  20.456  0.00  0.00    +0.000 A 
ATOM      9  C   UNL     1      -0.190  10.494  20.965  0.00  0.00    +0.000 C 
ATOM     10  C   UNL     1       0.420  11.876  21.236  0.00  0.00    +0.000 C 
ATOM     11  C   UNL     1       0.227  12.875  20.091  0.00  0.00    +0.000 C 
ATOM     12  C   UNL     1       0.943  12.434  18.824  0.00  0.00    +0.000 C 
ATOM     13  O   UNL     1       1.953  12.990  18.405  0.00  0.00    +0.000 OA
ATOM     14  N   UNL     1       0.364  11.316  18.230  0.00  0.00    +0.000 N 
ATOM     15  H   UNL     1      -0.629  11.326  18.440  0.00  0.00    +0.000 HD
ENDBRANCH   1   3
BRANCH   1  17
ATOM     16  C   UNL     1       2.207   4.471  21.204  0.00  0.00    +0.000 C 
ATOM     17  C   UNL     1       2.175   5.196  19.850  0.00  0.00    +0.000 C 
BRANCH  17  18
ATOM     18  C   UNL     1       2.973   4.388  18.861  0.00  0.00    +0.000 A 
ATOM     19  N   UNL     1       2.958   3.077  18.704  0.00  0.00    +0.000 NA
ATOM     20  C   UNL     1       3.800   2.872  17.649  0.00  0.00    +0.000 A 
ATOM     21  C   UNL     1       4.325   4.067  17.206  0.00  0.00    +0.000 A 
ATOM     22  O   UNL     1       3.790   5.062  17.985  0.00  0.00    +0.000 OA
BRANCH  21  23
ATOM     23  C   UNL     1       5.219   4.430  16.113  0.00  0.00    +0.000 A 
ATOM     24  C   UNL     1       5.133   3.829  14.850  0.00  0.00    +0.000 A 
ATOM     25  C   UNL     1       6.105   4.086  13.878  0.00  0.00    +0.000 A 
ATOM     26  C   UNL     1       7.152   4.956  14.161  0.00  0.00    +0.000 A 
ATOM     27  F   UNL     1       8.108   5.163  13.247  0.00  0.00    +0.000 F 
ATOM     28  C   UNL     1       7.228   5.603  15.385  0.00  0.00    +0.000 A 
ATOM     29  C   UNL     1       6.259   5.346  16.356  0.00  0.00    +0.000 A 
ENDBRANCH  21  23
ENDBRANCH  17  18
ENDBRANCH   1  17
TORSDOF 4
ENDMDL
MODEL 6
REMARK VINA RESULT:      -8.7      2.319      3.757
REMARK  Name = 
REMARK  5 active torsions:
REMARK  status: ('A' for Active; 'I' for Inactive)
REMARK    1  A    between atoms: C_1  and  C_2
REMARK    2  A    between atoms: C_2  and  N_3
REMARK    3  A    between atoms: C_2  and  C_16
REMARK    4  A    between atoms: N_3  and  C_4
REMARK    5  A    between atoms: C_19  and  C_20
REMARK                            x       y       z     vdW  Elec       q    Type
REMARK                         _______ _______ _______ _____ _____    ______ ____
ROOT
ATOM      1  N   UNL     1       1.855   3.242  18.329  0.00  0.00    +0.000 N 
ATOM      2  H   UNL     1       1.256   2.617  18.872  0.00  0.00    +0.000 HD
ENDROOT
BRANCH   1   3
ATOM      3  C   UNL     1       1.991   4.484  18.955  0.00  0.00    +0.000 A 
ATOM      4  C   UNL     1       1.650   4.601  20.312  0.00  0.00    +0.000 A 
ATOM      5  C   UNL     1       1.641   5.840  20.959  0.00  0.00    +0.000 A 
ATOM      6  C   UNL     1       1.959   6.987  20.243  0.00  0.00    +0.000 A 
ATOM      7  C   UNL     1       2.285   6.918  18.882  0.00  0.00    +0.000 A 
ATOM      8  C   UNL     1       2.281   5.661  18.253  0.00  0.00    +0.000 A 
ATOM      9  C   UNL     1       2.568   8.160  18.068  0.00  0.00    +0.000 C 
ATOM     10  C   UNL     1       1.377   9.126  18.024  0.00  0.00    +0.000 C 
ATOM     11  C   UNL     1       1.181   9.931  19.312  0.00  0.00    +0.000 C 
ATOM     12  C   UNL     1       0.845   9.037  20.496  0.00  0.00    +0.000 C 
ATOM     13  O   UNL     1      -0.271   8.999  21.003  0.00  0.00    +0.000 OA
ATOM     14  N   UNL     1       1.914   8.242  20.902  0.00  0.00    +0.000 N 
ATOM     15  H   UNL     1       2.774   8.739  20.692  0.00  0.00    +0.000 HD
ENDBRANCH   1   3
BRANCH   1  17
ATOM     16  C   UNL     1       3.694   1.887  19.135  0.00  0.00    +0.000 C 
ATOM     17  C   UNL     1       3.046   2.492  17.879  0.00  0.00    +0.000 C 
BRANCH  17  18
ATOM     18  C   UNL     1       4.070   3.350  17.184  0.00  0.00    +0.000 A 
ATOM     19  N   UNL     1       4.240   3.491  15.882  0.00  0.00    +0.000 NA
ATOM     20  C   UNL     1       5.241   4.415  15.790  0.00  0.00    +0.000 A 
ATOM     21  C   UNL     1       5.669   4.796  17.044  0.00  0.00    +0.000 A 
ATOM     22  O   UNL     1       4.910   4.110  17.959  0.00  0.00    +0.000 OA
BRANCH  21  23
ATOM     23  C   UNL     1       6.655   5.757  17.522  0.00  0.00    +0.000 A 
ATOM     24  C   UNL     1       7.451   5.510  18.649  0.00  0.00    +0.000 A 
ATOM     25  C   UNL     1       8.269   6.517  19.170  0.00  0.00    +0.000 A 
ATOM     26  C   UNL     1       8.307   7.764  18.555  0.00  0.00    +0.000 A 
ATOM     27  F   UNL     1       9.053   8.741  19.084  0.00  0.00    +0.000 F 
ATOM     28  C   UNL     1       7.569   8.014  17.408  0.00  0.00    +0.000 A 
ATOM     29  C   UNL     1       6.751   7.010  16.889  0.00  0.00    +0.000 A 
ENDBRANCH  21  23
ENDBRANCH  17  18
ENDBRANCH   1  17
TORSDOF 4
ENDMDL
MODEL 7
REMARK VINA RESULT:      -8.7      4.589      7.513
REMARK  Name = 
REMARK  5 active torsions:
REMARK  status: ('A' for Active; 'I' for Inactive)
REMARK    1  A    between atoms: C_1  and  C_2
REMARK    2  A    between atoms: C_2  and  N_3
REMARK    3  A    between atoms: C_2  and  C_16
REMARK    4  A    between atoms: N_3  and  C_4
REMARK    5  A    between atoms: C_19  and  C_20
REMARK                            x       y       z     vdW  Elec       q    Type
REMARK                         _______ _______ _______ _____ _____    ______ ____
ROOT
ATOM      1  N   UNL     1       5.328   6.232  16.627  0.00  0.00    +0.000 N 
ATOM      2  H   UNL     1       4.887   6.375  15.716  0.00  0.00    +0.000 HD
ENDROOT
BRANCH   1   3
ATOM      3  C   UNL     1       4.709   5.198  17.333  0.00  0.00    +0.000 A 
ATOM      4  C   UNL     1       4.450   3.985  16.674  0.00  0.00    +0.000 A 
ATOM      5  C   UNL     1       3.718   2.963  17.286  0.00  0.00    +0.000 A 
ATOM      6  C   UNL     1       3.220   3.152  18.568  0.00  0.00    +0.000 A 
ATOM      7  C   UNL     1       3.437   4.355  19.254  0.00  0.00    +0.000 A 
ATOM      8  C   UNL     1       4.170   5.369  18.616  0.00  0.00    +0.000 A 
ATOM      9  C   UNL     1       2.848   4.607  20.623  0.00  0.00    +0.000 C 
ATOM     10  C   UNL     1       1.314   4.553  20.628  0.00  0.00    +0.000 C 
ATOM     11  C   UNL     1       0.742   3.133  20.567  0.00  0.00    +0.000 C 
ATOM     12  C   UNL     1       1.098   2.432  19.266  0.00  0.00    +0.000 C 
ATOM     13  O   UNL     1       0.274   2.210  18.384  0.00  0.00    +0.000 OA
ATOM     14  N   UNL     1       2.451   2.120  19.165  0.00  0.00    +0.000 N 
ATOM     15  H   UNL     1       2.809   1.963  20.102  0.00  0.00    +0.000 HD
ENDBRANCH   1   3
BRANCH   1  17
ATOM     16  C   UNL     1       7.289   4.811  16.664  0.00  0.00    +0.000 C 
ATOM     17  C   UNL     1       6.797   6.251  16.456  0.00  0.00    +0.000 C 
BRANCH  17  18
ATOM     18  C   UNL     1       7.505   7.142  17.442  0.00  0.00    +0.000 A 
ATOM     19  N   UNL     1       8.031   6.789  18.601  0.00  0.00    +0.000 NA
ATOM     20  C   UNL     1       8.596   7.944  19.059  0.00  0.00    +0.000 A 
ATOM     21  C   UNL     1       8.378   8.978  18.173  0.00  0.00    +0.000 A 
ATOM     22  O   UNL     1       7.671   8.465  17.114  0.00  0.00    +0.000 OA
BRANCH  21  23
ATOM     23  C   UNL     1       8.784  10.377  18.140  0.00  0.00    +0.000 A 
ATOM     24  C   UNL     1       7.961  11.380  17.607  0.00  0.00    +0.000 A 
ATOM     25  C   UNL     1       8.447  12.681  17.447  0.00  0.00    +0.000 A 
ATOM     26  C   UNL     1       9.747  12.986  17.836  0.00  0.00    +0.000 A 
ATOM     27  F   UNL     1      10.226  14.220  17.637  0.00  0.00    +0.000 F 
ATOM     28  C   UNL     1      10.560  12.024  18.414  0.00  0.00    +0.000 A 
ATOM     29  C   UNL     1      10.077  10.725  18.572  0.00  0.00    +0.000 A 
ENDBRANCH  21  23
ENDBRANCH  17  18
ENDBRANCH   1  17
TORSDOF 4
ENDMDL
MODEL 8
REMARK VINA RESULT:      -8.6      1.934      3.282
REMARK  Name = 
REMARK  5 active torsions:
REMARK  status: ('A' for Active; 'I' for Inactive)
REMARK    1  A    between atoms: C_1  and  C_2
REMARK    2  A    between atoms: C_2  and  N_3
REMARK    3  A    between atoms: C_2  and  C_16
REMARK    4  A    between atoms: N_3  and  C_4
REMARK    5  A    between atoms: C_19  and  C_20
REMARK                            x       y       z     vdW  Elec       q    Type
REMARK                         _______ _______ _______ _____ _____    ______ ____
ROOT
ATOM      1  N   UNL     1       2.110   3.653  18.160  0.00  0.00    +0.000 N 
ATOM      2  H   UNL     1       1.316   3.094  18.481  0.00  0.00    +0.000 HD
ENDROOT
BRANCH   1   3
ATOM      3  C   UNL     1       2.160   4.886  18.814  0.00  0.00    +0.000 A 
ATOM      4  C   UNL     1       1.782   4.954  20.165  0.00  0.00    +0.000 A 
ATOM      5  C   UNL     1       1.688   6.176  20.836  0.00  0.00    +0.000 A 
ATOM      6  C   UNL     1       1.955   7.355  20.153  0.00  0.00    +0.000 A 
ATOM      7  C   UNL     1       2.315   7.334  18.798  0.00  0.00    +0.000 A 
ATOM      8  C   UNL     1       2.398   6.094  18.144  0.00  0.00    +0.000 A 
ATOM      9  C   UNL     1       2.546   8.608  18.018  0.00  0.00    +0.000 C 
ATOM     10  C   UNL     1       1.302   9.505  17.965  0.00  0.00    +0.000 C 
ATOM     11  C   UNL     1       1.031  10.269  19.265  0.00  0.00    +0.000 C 
ATOM     12  C   UNL     1       0.720   9.332  20.421  0.00  0.00    +0.000 C 
ATOM     13  O   UNL     1      -0.404   9.219  20.900  0.00  0.00    +0.000 OA
ATOM     14  N   UNL     1       1.823   8.590  20.836  0.00  0.00    +0.000 N 
ATOM     15  H   UNL     1       2.657   9.139  20.657  0.00  0.00    +0.000 HD
ENDBRANCH   1   3
BRANCH   1  17
ATOM     16  C   UNL     1       3.617   2.340  19.527  0.00  0.00    +0.000 C 
ATOM     17  C   UNL     1       3.307   2.788  18.091  0.00  0.00    +0.000 C 
BRANCH  17  18
ATOM     18  C   UNL     1       4.522   3.486  17.539  0.00  0.00    +0.000 A 
ATOM     19  N   UNL     1       5.474   4.091  18.224  0.00  0.00    +0.000 NA
ATOM     20  C   UNL     1       6.354   4.492  17.261  0.00  0.00    +0.000 A 
ATOM     21  C   UNL     1       5.899   4.140  16.008  0.00  0.00    +0.000 A 
ATOM     22  O   UNL     1       4.708   3.480  16.178  0.00  0.00    +0.000 OA
BRANCH  21  23
ATOM     23  C   UNL     1       6.445   4.278  14.664  0.00  0.00    +0.000 A 
ATOM     24  C   UNL     1       7.471   5.185  14.366  0.00  0.00    +0.000 A 
ATOM     25  C   UNL     1       7.858   5.404  13.040  0.00  0.00    +0.000 A 
ATOM     26  C   UNL     1       7.233   4.703  12.014  0.00  0.00    +0.000 A 
ATOM     27  F   UNL     1       7.571   4.949  10.742  0.00  0.00    +0.000 F 
ATOM     28  C   UNL     1       6.253   3.762  12.289  0.00  0.00    +0.000 A 
ATOM     29  C   UNL     1       5.865   3.545  13.612  0.00  0.00    +0.000 A 
ENDBRANCH  21  23
ENDBRANCH  17  18
ENDBRANCH   1  17
TORSDOF 4
ENDMDL
MODEL 9
REMARK VINA RESULT:      -8.5      1.269      1.702
REMARK  Name = 
REMARK  5 active torsions:
REMARK  status: ('A' for Active; 'I' for Inactive)
REMARK    1  A    between atoms: C_1  and  C_2
REMARK    2  A    between atoms: C_2  and  N_3
REMARK    3  A    between atoms: C_2  and  C_16
REMARK    4  A    between atoms: N_3  and  C_4
REMARK    5  A    between atoms: C_19  and  C_20
REMARK                            x       y       z     vdW  Elec       q    Type
REMARK                         _______ _______ _______ _____ _____    ______ ____
ROOT
ATOM      1  N   UNL     1       2.472   6.625  20.484  0.00  0.00    +0.000 N 
ATOM      2  H   UNL     1       3.373   6.839  20.916  0.00  0.00    +0.000 HD
ENDROOT
BRANCH   1   3
ATOM      3  C   UNL     1       1.907   7.760  19.897  0.00  0.00    +0.000 A 
ATOM      4  C   UNL     1       2.239   8.073  18.569  0.00  0.00    +0.000 A 
ATOM      5  C   UNL     1       1.811   9.261  17.970  0.00  0.00    +0.000 A 
ATOM      6  C   UNL     1       1.054  10.164  18.706  0.00  0.00    +0.000 A 
ATOM      7  C   UNL     1       0.718   9.900  20.041  0.00  0.00    +0.000 A 
ATOM      8  C   UNL     1       1.166   8.702  20.623  0.00  0.00    +0.000 A 
ATOM      9  C   UNL     1      -0.047  10.898  20.880  0.00  0.00    +0.000 C 
ATOM     10  C   UNL     1       0.691  12.235  21.034  0.00  0.00    +0.000 C 
ATOM     11  C   UNL     1       0.628  13.127  19.790  0.00  0.00    +0.000 C 
ATOM     12  C   UNL     1       1.327  12.493  18.598  0.00  0.00    +0.000 C 
ATOM     13  O   UNL     1       2.397  12.903  18.161  0.00  0.00    +0.000 OA
ATOM     14  N   UNL     1       0.654  11.381  18.098  0.00  0.00    +0.000 N 
ATOM     15  H   UNL     1      -0.338  11.508  18.272  0.00  0.00    +0.000 HD
ENDBRANCH   1   3
BRANCH   1  17
ATOM     16  C   UNL     1       2.395   4.216  20.720  0.00  0.00    +0.000 C 
ATOM     17  C   UNL     1       2.595   5.365  19.720  0.00  0.00    +0.000 C 
BRANCH  17  18
ATOM     18  C   UNL     1       3.937   5.192  19.059  0.00  0.00    +0.000 A 
ATOM     19  N   UNL     1       5.103   5.016  19.654  0.00  0.00    +0.000 NA
ATOM     20  C   UNL     1       5.970   4.851  18.613  0.00  0.00    +0.000 A 
ATOM     21  C   UNL     1       5.310   4.956  17.407  0.00  0.00    +0.000 A 
ATOM     22  O   UNL     1       3.984   5.173  17.687  0.00  0.00    +0.000 OA
BRANCH  21  23
ATOM     23  C   UNL     1       5.727   4.825  16.018  0.00  0.00    +0.000 A 
ATOM     24  C   UNL     1       4.944   4.158  15.064  0.00  0.00    +0.000 A 
ATOM     25  C   UNL     1       5.447   3.914  13.783  0.00  0.00    +0.000 A 
ATOM     26  C   UNL     1       6.724   4.352  13.447  0.00  0.00    +0.000 A 
ATOM     27  F   UNL     1       7.222   4.075  12.236  0.00  0.00    +0.000 F 
ATOM     28  C   UNL     1       7.495   5.060  14.356  0.00  0.00    +0.000 A 
ATOM     29  C   UNL     1       6.994   5.302  15.636  0.00  0.00    +0.000 A 
ENDBRANCH  21  23
ENDBRANCH  17  18
ENDBRANCH   1  17
TORSDOF 4
ENDMDL
