MODEL 1
REMARK VINA RESULT:      -9.4      0.000      0.000
REMARK  Name = 
REMARK  4 active torsions:
REMARK  status: ('A' for Active; 'I' for Inactive)
REMARK    1  A    between atoms: N_1  and  C_2
REMARK    2  A    between atoms: C_7  and  S_8
REMARK    3  A    between atoms: S_8  and  C_9
REMARK    4  A    between atoms: C_10  and  C_11
REMARK                            x       y       z     vdW  Elec       q    Type
REMARK                         _______ _______ _______ _____ _____    ______ ____
ROOT
ATOM      1  C   UNL     1       4.178   5.297  17.112  0.00  0.00    +0.000 A 
ATOM      2  C   UNL     1       3.140   5.432  17.972  0.00  0.00    +0.000 A 
ATOM      3  C   UNL     1       2.530   4.196  18.546  0.00  0.00    +0.000 A 
ATOM      4  C   UNL     1       1.451   4.251  19.446  0.00  0.00    +0.000 A 
ATOM      5  C   UNL     1       0.908   3.085  19.993  0.00  0.00    +0.000 A 
ATOM      6  C   UNL     1       1.430   1.844  19.640  0.00  0.00    +0.000 A 
ATOM      7  C   UNL     1       2.488   1.767  18.737  0.00  0.00    +0.000 A 
ATOM      8  C   UNL     1       3.031   2.937  18.199  0.00  0.00    +0.000 A 
ATOM      9  N   UNL     1       4.094   2.849  17.302  0.00  0.00    +0.000 N 
ATOM     10  C   UNL     1       4.703   3.935  16.734  0.00  0.00    +0.000 A 
ATOM     11  O   UNL     1       5.634   3.768  15.948  0.00  0.00    +0.000 OA
ATOM     12  H   UNL     1       4.464   1.947  17.034  0.00  0.00    +0.000 HD
ENDROOT
BRANCH   2  13
ATOM     13  C   UNL     1       2.653   6.778  18.369  0.00  0.00    +0.000 A 
ATOM     14  C   UNL     1       2.322   7.736  17.403  0.00  0.00    +0.000 A 
ATOM     15  C   UNL     1       1.729   8.940  17.787  0.00  0.00    +0.000 A 
ATOM     16  C   UNL     1       1.457   9.190  19.133  0.00  0.00    +0.000 A 
ATOM     17  C   UNL     1       1.801   8.249  20.101  0.00  0.00    +0.000 A 
ATOM     18  C   UNL     1       2.404   7.049  19.722  0.00  0.00    +0.000 A 
ENDBRANCH   2  13
BRANCH   1  19
ATOM     19  S   UNL     1       4.989   6.628  16.322  0.00  0.00    +0.000 S 
BRANCH  19  25
ATOM     20  C   UNL     1       7.847   6.286  18.994  0.00  0.00    +0.000 A 
ATOM     21  C   UNL     1       8.480   7.468  18.908  0.00  0.00    +0.000 A 
ATOM     22  C   UNL     1       8.026   8.449  17.914  0.00  0.00    +0.000 A 
ATOM     23  O   UNL     1       8.574   9.541  17.799  0.00  0.00    +0.000 OA
ATOM     24  N   UNL     1       6.965   8.064  17.166  0.00  0.00    +0.000 N 
ATOM     25  C   UNL     1       6.383   6.849  17.339  0.00  0.00    +0.000 A 
ATOM     26  N   UNL     1       6.776   5.972  18.200  0.00  0.00    +0.000 NA
ATOM     27  H   UNL     1       6.610   8.701  16.470  0.00  0.00    +0.000 HD
BRANCH  20  28
ATOM     28  N   UNL     1       8.254   5.359  19.926  0.00  0.00    +0.000 N 
ATOM     29  H   UNL     1       7.962   4.410  19.721  0.00  0.00    +0.000 HD
ATOM     30  H   UNL     1       9.256   5.442  20.075  0.00  0.00    +0.000 HD
ENDBRANCH  20  28
ENDBRANCH  19  25
ENDBRANCH   1  19
TORSDOF 4
ENDMDL
MODEL 2
REMARK VINA RESULT:      -9.1      1.073      1.609
REMARK  Name = 
REMARK  4 active torsions:
REMARK  status: ('A' for Active; 'I' for Inactive)
REMARK    1  A    between atoms: N_1  and  C_2
REMARK    2  A    between atoms: C_7  and  S_8
REMARK    3  A    between atoms: S_8  and  C_9
REMARK    4  A    between atoms: C_10  and  C_11
REMARK                            x       y       z     vdW  Elec       q    Type
REMARK                         _______ _______ _______ _____ _____    ______ ____
ROOT
ATOM      1  C   UNL     1       4.172   5.338  17.119  0.00  0.00    +0.000 A 
ATOM      2  C   UNL     1       3.161   5.483  18.009  0.00  0.00    +0.000 A 
ATOM      3  C   UNL     1       2.604   4.256  18.653  0.00  0.00    +0.000 A 
ATOM      4  C   UNL     1       1.556   4.321  19.588  0.00  0.00    +0.000 A 
ATOM      5  C   UNL     1       1.062   3.165  20.200  0.00  0.00    +0.000 A 
ATOM      6  C   UNL     1       1.603   1.925  19.879  0.00  0.00    +0.000 A 
ATOM      7  C   UNL     1       2.632   1.837  18.942  0.00  0.00    +0.000 A 
ATOM      8  C   UNL     1       3.125   2.997  18.339  0.00  0.00    +0.000 A 
ATOM      9  N   UNL     1       4.158   2.899  17.409  0.00  0.00    +0.000 N 
ATOM     10  C   UNL     1       4.719   3.975  16.777  0.00  0.00    +0.000 A 
ATOM     11  O   UNL     1       5.626   3.800  15.965  0.00  0.00    +0.000 OA
ATOM     12  H   UNL     1       4.543   1.996  17.164  0.00  0.00    +0.000 HD
ENDROOT
BRANCH   2  13
ATOM     13  C   UNL     1       2.653   6.832  18.369  0.00  0.00    +0.000 A 
ATOM     14  C   UNL     1       2.310   7.758  17.378  0.00  0.00    +0.000 A 
ATOM     15  C   UNL     1       1.698   8.963  17.728  0.00  0.00    +0.000 A 
ATOM     16  C   UNL     1       1.420   9.245  19.067  0.00  0.00    +0.000 A 
ATOM     17  C   UNL     1       1.776   8.335  20.060  0.00  0.00    +0.000 A 
ATOM     18  C   UNL     1       2.397   7.135  19.714  0.00  0.00    +0.000 A 
ENDBRANCH   2  13
BRANCH   1  19
ATOM     19  S   UNL     1       4.920   6.656  16.248  0.00  0.00    +0.000 S 
BRANCH  19  25
ATOM     20  C   UNL     1       7.980   8.331  18.053  0.00  0.00    +0.000 A 
ATOM     21  C   UNL     1       8.437   7.346  18.842  0.00  0.00    +0.000 A 
ATOM     22  C   UNL     1       7.725   6.062  18.866  0.00  0.00    +0.000 A 
ATOM     23  O   UNL     1       8.105   5.133  19.573  0.00  0.00    +0.000 OA
ATOM     24  N   UNL     1       6.649   5.984  18.047  0.00  0.00    +0.000 N 
ATOM     25  C   UNL     1       6.274   7.035  17.273  0.00  0.00    +0.000 A 
ATOM     26  N   UNL     1       6.882   8.172  17.248  0.00  0.00    +0.000 NA
ATOM     27  H   UNL     1       6.124   5.123  18.021  0.00  0.00    +0.000 HD
BRANCH  20  28
ATOM     28  N   UNL     1       8.641   9.537  18.013  0.00  0.00    +0.000 N 
ATOM     29  H   UNL     1       9.146   9.704  17.149  0.00  0.00    +0.000 HD
ATOM     30  H   UNL     1       7.998  10.287  18.246  0.00  0.00    +0.000 HD
ENDBRANCH  20  28
ENDBRANCH  19  25
ENDBRANCH   1  19
TORSDOF 4
ENDMDL
MODEL 3
REMARK VINA RESULT:      -9.1      1.914      4.434
REMARK  Name = 
REMARK  4 active torsions:
REMARK  status: ('A' for Active; 'I' for Inactive)
REMARK    1  A    between atoms: N_1  and  C_2
REMARK    2  A    between atoms: C_7  and  S_8
REMARK    3  A    between atoms: S_8  and  C_9
REMARK    4  A    between atoms: C_10  and  C_11
REMARK                            x       y       z     vdW  Elec       q    Type
REMARK                         _______ _______ _______ _____ _____    ______ ____
ROOT
ATOM      1  C   UNL     1       3.001   6.472  18.366  0.00  0.00    +0.000 A 
ATOM      2  C   UNL     1       2.217   6.306  19.459  0.00  0.00    +0.000 A 
ATOM      3  C   UNL     1       1.486   7.493  19.993  0.00  0.00    +0.000 A 
ATOM      4  C   UNL     1       0.652   7.403  21.121  0.00  0.00    +0.000 A 
ATOM      5  C   UNL     1      -0.045   8.519  21.593  0.00  0.00    +0.000 A 
ATOM      6  C   UNL     1       0.088   9.744  20.948  0.00  0.00    +0.000 A 
ATOM      7  C   UNL     1       0.922   9.858  19.838  0.00  0.00    +0.000 A 
ATOM      8  C   UNL     1       1.611   8.737  19.367  0.00  0.00    +0.000 A 
ATOM      9  N   UNL     1       2.437   8.860  18.252  0.00  0.00    +0.000 N 
ATOM     10  C   UNL     1       3.140   7.820  17.706  0.00  0.00    +0.000 A 
ATOM     11  O   UNL     1       3.851   8.016  16.721  0.00  0.00    +0.000 OA
ATOM     12  H   UNL     1       2.546   9.754  17.791  0.00  0.00    +0.000 HD
ENDROOT
BRANCH   2  13
ATOM     13  C   UNL     1       2.056   4.966  20.080  0.00  0.00    +0.000 A 
ATOM     14  C   UNL     1       2.679   4.658  21.295  0.00  0.00    +0.000 A 
ATOM     15  C   UNL     1       2.400   3.450  21.938  0.00  0.00    +0.000 A 
ATOM     16  C   UNL     1       1.494   2.549  21.374  0.00  0.00    +0.000 A 
ATOM     17  C   UNL     1       0.884   2.842  20.157  0.00  0.00    +0.000 A 
ATOM     18  C   UNL     1       1.170   4.044  19.507  0.00  0.00    +0.000 A 
ENDBRANCH   2  13
BRANCH   1  19
ATOM     19  S   UNL     1       3.953   5.205  17.628  0.00  0.00    +0.000 S 
BRANCH  19  25
ATOM     20  C   UNL     1       7.387   5.678  19.477  0.00  0.00    +0.000 A 
ATOM     21  C   UNL     1       8.009   6.596  18.721  0.00  0.00    +0.000 A 
ATOM     22  C   UNL     1       7.346   7.090  17.507  0.00  0.00    +0.000 A 
ATOM     23  O   UNL     1       7.877   7.928  16.784  0.00  0.00    +0.000 OA
ATOM     24  N   UNL     1       6.118   6.569  17.268  0.00  0.00    +0.000 N 
ATOM     25  C   UNL     1       5.566   5.652  18.104  0.00  0.00    +0.000 A 
ATOM     26  N   UNL     1       6.140   5.201  19.167  0.00  0.00    +0.000 NA
ATOM     27  H   UNL     1       5.616   6.875  16.449  0.00  0.00    +0.000 HD
BRANCH  20  28
ATOM     28  N   UNL     1       7.991   5.212  20.622  0.00  0.00    +0.000 N 
ATOM     29  H   UNL     1       7.345   4.837  21.307  0.00  0.00    +0.000 HD
ATOM     30  H   UNL     1       8.730   4.559  20.376  0.00  0.00    +0.000 HD
ENDBRANCH  20  28
ENDBRANCH  19  25
ENDBRANCH   1  19
TORSDOF 4
ENDMDL
MODEL 4
REMARK VINA RESULT:      -9.0      2.023      4.591
REMARK  Name = 
REMARK  4 active torsions:
REMARK  status: ('A' for Active; 'I' for Inactive)
REMARK    1  A    between atoms: N_1  and  C_2
REMARK    2  A    between atoms: C_7  and  S_8
REMARK    3  A    between atoms: S_8  and  C_9
REMARK    4  A    between atoms: C_10  and  C_11
REMARK                            x       y       z     vdW  Elec       q    Type
REMARK                         _______ _______ _______ _____ _____    ______ ____
ROOT
ATOM      1  C   UNL     1       2.721   6.296  18.399  0.00  0.00    +0.000 A 
ATOM      2  C   UNL     1       2.048   6.291  19.575  0.00  0.00    +0.000 A 
ATOM      3  C   UNL     1       1.544   7.591  20.109  0.00  0.00    +0.000 A 
ATOM      4  C   UNL     1       0.835   7.669  21.320  0.00  0.00    +0.000 A 
ATOM      5  C   UNL     1       0.349   8.892  21.793  0.00  0.00    +0.000 A 
ATOM      6  C   UNL     1       0.573  10.056  21.066  0.00  0.00    +0.000 A 
ATOM      7  C   UNL     1       1.287  10.002  19.871  0.00  0.00    +0.000 A 
ATOM      8  C   UNL     1       1.765   8.776  19.400  0.00  0.00    +0.000 A 
ATOM      9  N   UNL     1       2.473   8.732  18.200  0.00  0.00    +0.000 N 
ATOM     10  C   UNL     1       2.967   7.581  17.649  0.00  0.00    +0.000 A 
ATOM     11  O   UNL     1       3.584   7.632  16.586  0.00  0.00    +0.000 OA
ATOM     12  H   UNL     1       2.649   9.581  17.678  0.00  0.00    +0.000 HD
ENDROOT
BRANCH   2  13
ATOM     13  C   UNL     1       1.779   5.016  20.288  0.00  0.00    +0.000 A 
ATOM     14  C   UNL     1       0.767   4.150  19.857  0.00  0.00    +0.000 A 
ATOM     15  C   UNL     1       0.624   2.893  20.446  0.00  0.00    +0.000 A 
ATOM     16  C   UNL     1       1.494   2.492  21.463  0.00  0.00    +0.000 A 
ATOM     17  C   UNL     1       2.491   3.355  21.909  0.00  0.00    +0.000 A 
ATOM     18  C   UNL     1       2.630   4.617  21.329  0.00  0.00    +0.000 A 
ENDBRANCH   2  13
BRANCH   1  19
ATOM     19  S   UNL     1       3.409   4.878  17.645  0.00  0.00    +0.000 S 
BRANCH  19  25
ATOM     20  C   UNL     1       7.041   5.508  19.002  0.00  0.00    +0.000 A 
ATOM     21  C   UNL     1       7.733   5.787  17.886  0.00  0.00    +0.000 A 
ATOM     22  C   UNL     1       7.046   5.736  16.589  0.00  0.00    +0.000 A 
ATOM     23  O   UNL     1       7.638   5.982  15.542  0.00  0.00    +0.000 OA
ATOM     24  N   UNL     1       5.730   5.421  16.646  0.00  0.00    +0.000 N 
ATOM     25  C   UNL     1       5.115   5.170  17.830  0.00  0.00    +0.000 A 
ATOM     26  N   UNL     1       5.706   5.200  18.976  0.00  0.00    +0.000 NA
ATOM     27  H   UNL     1       5.208   5.376  15.784  0.00  0.00    +0.000 HD
BRANCH  20  28
ATOM     28  N   UNL     1       7.669   5.559  20.226  0.00  0.00    +0.000 N 
ATOM     29  H   UNL     1       7.070   5.320  21.008  0.00  0.00    +0.000 HD
ATOM     30  H   UNL     1       8.520   5.007  20.196  0.00  0.00    +0.000 HD
ENDBRANCH  20  28
ENDBRANCH  19  25
ENDBRANCH   1  19
TORSDOF 4
ENDMDL
MODEL 5
REMARK VINA RESULT:      -8.7      2.291      4.817
REMARK  Name = 
REMARK  4 active torsions:
REMARK  status: ('A' for Active; 'I' for Inactive)
REMARK    1  A    between atoms: N_1  and  C_2
REMARK    2  A    between atoms: C_7  and  S_8
REMARK    3  A    between atoms: S_8  and  C_9
REMARK    4  A    between atoms: C_10  and  C_11
REMARK                            x       y       z     vdW  Elec       q    Type
REMARK                         _______ _______ _______ _____ _____    ______ ____
ROOT
ATOM      1  C   UNL     1       2.524   6.366  18.431  0.00  0.00    +0.000 A 
ATOM      2  C   UNL     1       1.935   6.335  19.651  0.00  0.00    +0.000 A 
ATOM      3  C   UNL     1       1.477   7.624  20.249  0.00  0.00    +0.000 A 
ATOM      4  C   UNL     1       0.856   7.677  21.510  0.00  0.00    +0.000 A 
ATOM      5  C   UNL     1       0.410   8.889  22.044  0.00  0.00    +0.000 A 
ATOM      6  C   UNL     1       0.588  10.069  21.329  0.00  0.00    +0.000 A 
ATOM      7  C   UNL     1       1.215  10.041  20.085  0.00  0.00    +0.000 A 
ATOM      8  C   UNL     1       1.653   8.824  19.554  0.00  0.00    +0.000 A 
ATOM      9  N   UNL     1       2.273   8.806  18.306  0.00  0.00    +0.000 N 
ATOM     10  C   UNL     1       2.721   7.666  17.695  0.00  0.00    +0.000 A 
ATOM     11  O   UNL     1       3.262   7.740  16.592  0.00  0.00    +0.000 OA
ATOM     12  H   UNL     1       2.415   9.666  17.792  0.00  0.00    +0.000 HD
ENDROOT
BRANCH   2  13
ATOM     13  C   UNL     1       1.711   5.045  20.353  0.00  0.00    +0.000 A 
ATOM     14  C   UNL     1       0.707   4.165  19.937  0.00  0.00    +0.000 A 
ATOM     15  C   UNL     1       0.605   2.896  20.511  0.00  0.00    +0.000 A 
ATOM     16  C   UNL     1       1.510   2.499  21.497  0.00  0.00    +0.000 A 
ATOM     17  C   UNL     1       2.501   3.377  21.929  0.00  0.00    +0.000 A 
ATOM     18  C   UNL     1       2.598   4.649  21.365  0.00  0.00    +0.000 A 
ENDBRANCH   2  13
BRANCH   1  19
ATOM     19  S   UNL     1       3.149   4.962  17.598  0.00  0.00    +0.000 S 
BRANCH  19  25
ATOM     20  C   UNL     1       6.889   5.646  16.610  0.00  0.00    +0.000 A 
ATOM     21  C   UNL     1       7.517   5.643  17.797  0.00  0.00    +0.000 A 
ATOM     22  C   UNL     1       6.728   5.460  19.021  0.00  0.00    +0.000 A 
ATOM     23  O   UNL     1       7.258   5.450  20.128  0.00  0.00    +0.000 OA
ATOM     24  N   UNL     1       5.398   5.287  18.830  0.00  0.00    +0.000 N 
ATOM     25  C   UNL     1       4.858   5.292  17.583  0.00  0.00    +0.000 A 
ATOM     26  N   UNL     1       5.536   5.462  16.500  0.00  0.00    +0.000 NA
ATOM     27  H   UNL     1       4.808   5.153  19.637  0.00  0.00    +0.000 HD
BRANCH  20  28
ATOM     28  N   UNL     1       7.616   5.808  15.453  0.00  0.00    +0.000 N 
ATOM     29  H   UNL     1       8.616   5.691  15.572  0.00  0.00    +0.000 HD
ATOM     30  H   UNL     1       7.232   5.216  14.723  0.00  0.00    +0.000 HD
ENDBRANCH  20  28
ENDBRANCH  19  25
ENDBRANCH   1  19
TORSDOF 4
ENDMDL
MODEL 6
REMARK VINA RESULT:      -8.6      2.901      5.808
REMARK  Name = 
REMARK  4 active torsions:
REMARK  status: ('A' for Active; 'I' for Inactive)
REMARK    1  A    between atoms: N_1  and  C_2
REMARK    2  A    between atoms: C_7  and  S_8
REMARK    3  A    between atoms: S_8  and  C_9
REMARK    4  A    between atoms: C_10  and  C_11
REMARK                            x       y       z     vdW  Elec       q    Type
REMARK                         _______ _______ _______ _____ _____    ______ ____
ROOT
ATOM      1  C   UNL     1       6.061   5.033  17.457  0.00  0.00    +0.000 A 
ATOM      2  C   UNL     1       5.335   4.275  16.600  0.00  0.00    +0.000 A 
ATOM      3  C   UNL     1       5.753   4.228  15.168  0.00  0.00    +0.000 A 
ATOM      4  C   UNL     1       5.055   3.464  14.217  0.00  0.00    +0.000 A 
ATOM      5  C   UNL     1       5.475   3.411  12.884  0.00  0.00    +0.000 A 
ATOM      6  C   UNL     1       6.596   4.130  12.481  0.00  0.00    +0.000 A 
ATOM      7  C   UNL     1       7.293   4.906  13.405  0.00  0.00    +0.000 A 
ATOM      8  C   UNL     1       6.871   4.949  14.737  0.00  0.00    +0.000 A 
ATOM      9  N   UNL     1       7.579   5.723  15.654  0.00  0.00    +0.000 N 
ATOM     10  C   UNL     1       7.256   5.818  16.981  0.00  0.00    +0.000 A 
ATOM     11  O   UNL     1       7.934   6.528  17.723  0.00  0.00    +0.000 OA
ATOM     12  H   UNL     1       8.386   6.257  15.359  0.00  0.00    +0.000 HD
ENDROOT
BRANCH   2  13
ATOM     13  C   UNL     1       4.180   3.476  17.085  0.00  0.00    +0.000 A 
ATOM     14  C   UNL     1       4.376   2.260  17.749  0.00  0.00    +0.000 A 
ATOM     15  C   UNL     1       3.293   1.596  18.327  0.00  0.00    +0.000 A 
ATOM     16  C   UNL     1       2.011   2.146  18.250  0.00  0.00    +0.000 A 
ATOM     17  C   UNL     1       1.807   3.347  17.576  0.00  0.00    +0.000 A 
ATOM     18  C   UNL     1       2.886   4.007  16.988  0.00  0.00    +0.000 A 
ENDBRANCH   2  13
BRANCH   1  19
ATOM     19  S   UNL     1       5.697   5.232  19.155  0.00  0.00    +0.000 S 
BRANCH  19  25
ATOM     20  C   UNL     1       2.715   7.662  18.358  0.00  0.00    +0.000 A 
ATOM     21  C   UNL     1       1.801   7.328  19.283  0.00  0.00    +0.000 A 
ATOM     22  C   UNL     1       2.096   6.229  20.212  0.00  0.00    +0.000 A 
ATOM     23  O   UNL     1       1.290   5.888  21.073  0.00  0.00    +0.000 OA
ATOM     24  N   UNL     1       3.311   5.651  20.055  0.00  0.00    +0.000 N 
ATOM     25  C   UNL     1       4.174   6.072  19.095  0.00  0.00    +0.000 A 
ATOM     26  N   UNL     1       3.927   7.028  18.265  0.00  0.00    +0.000 NA
ATOM     27  H   UNL     1       3.566   4.893  20.669  0.00  0.00    +0.000 HD
BRANCH  20  28
ATOM     28  N   UNL     1       2.458   8.694  17.485  0.00  0.00    +0.000 N 
ATOM     29  H   UNL     1       3.235   8.923  16.874  0.00  0.00    +0.000 HD
ATOM     30  H   UNL     1       1.598   8.507  16.978  0.00  0.00    +0.000 HD
ENDBRANCH  20  28
ENDBRANCH  19  25
ENDBRANCH   1  19
TORSDOF 4
ENDMDL
MODEL 7
REMARK VINA RESULT:      -8.5      2.228      4.753
REMARK  Name = 
REMARK  4 active torsions:
REMARK  status: ('A' for Active; 'I' for Inactive)
REMARK    1  A    between atoms: N_1  and  C_2
REMARK    2  A    between atoms: C_7  and  S_8
REMARK    3  A    between atoms: S_8  and  C_9
REMARK    4  A    between atoms: C_10  and  C_11
REMARK                            x       y       z     vdW  Elec       q    Type
REMARK                         _______ _______ _______ _____ _____    ______ ____
ROOT
ATOM      1  C   UNL     1       2.812   6.633  18.405  0.00  0.00    +0.000 A 
ATOM      2  C   UNL     1       2.072   6.414  19.519  0.00  0.00    +0.000 A 
ATOM      3  C   UNL     1       1.331   7.565  20.115  0.00  0.00    +0.000 A 
ATOM      4  C   UNL     1       0.541   7.420  21.268  0.00  0.00    +0.000 A 
ATOM      5  C   UNL     1      -0.166   8.502  21.799  0.00  0.00    +0.000 A 
ATOM      6  C   UNL     1      -0.085   9.750  21.190  0.00  0.00    +0.000 A 
ATOM      7  C   UNL     1       0.705   9.919  20.055  0.00  0.00    +0.000 A 
ATOM      8  C   UNL     1       1.405   8.831  19.525  0.00  0.00    +0.000 A 
ATOM      9  N   UNL     1       2.188   9.009  18.387  0.00  0.00    +0.000 N 
ATOM     10  C   UNL     1       2.896   8.004  17.784  0.00  0.00    +0.000 A 
ATOM     11  O   UNL     1       3.566   8.249  16.782  0.00  0.00    +0.000 OA
ATOM     12  H   UNL     1       2.259   9.919  17.951  0.00  0.00    +0.000 HD
ENDROOT
BRANCH   2  13
ATOM     13  C   UNL     1       1.966   5.052  20.103  0.00  0.00    +0.000 A 
ATOM     14  C   UNL     1       2.618   4.729  21.298  0.00  0.00    +0.000 A 
ATOM     15  C   UNL     1       2.390   3.495  21.908  0.00  0.00    +0.000 A 
ATOM     16  C   UNL     1       1.504   2.581  21.333  0.00  0.00    +0.000 A 
ATOM     17  C   UNL     1       0.865   2.889  20.134  0.00  0.00    +0.000 A 
ATOM     18  C   UNL     1       1.100   4.118  19.516  0.00  0.00    +0.000 A 
ENDBRANCH   2  13
BRANCH   1  19
ATOM     19  S   UNL     1       3.768   5.414  17.596  0.00  0.00    +0.000 S 
BRANCH  19  25
ATOM     20  C   UNL     1       7.383   6.950  17.614  0.00  0.00    +0.000 A 
ATOM     21  C   UNL     1       7.921   6.435  18.732  0.00  0.00    +0.000 A 
ATOM     22  C   UNL     1       7.096   5.575  19.589  0.00  0.00    +0.000 A 
ATOM     23  O   UNL     1       7.544   5.082  20.621  0.00  0.00    +0.000 OA
ATOM     24  N   UNL     1       5.834   5.358  19.146  0.00  0.00    +0.000 N 
ATOM     25  C   UNL     1       5.387   5.914  17.990  0.00  0.00    +0.000 A 
ATOM     26  N   UNL     1       6.095   6.680  17.232  0.00  0.00    +0.000 NA
ATOM     27  H   UNL     1       5.225   4.771  19.695  0.00  0.00    +0.000 HD
BRANCH  20  28
ATOM     28  N   UNL     1       8.145   7.752  16.796  0.00  0.00    +0.000 N 
ATOM     29  H   UNL     1       7.960   7.628  15.806  0.00  0.00    +0.000 HD
ATOM     30  H   UNL     1       8.066   8.719  17.095  0.00  0.00    +0.000 HD
ENDBRANCH  20  28
ENDBRANCH  19  25
ENDBRANCH   1  19
TORSDOF 4
ENDMDL
MODEL 8
REMARK VINA RESULT:      -8.1      2.838      5.557
REMARK  Name = 
REMARK  4 active torsions:
REMARK  status: ('A' for Active; 'I' for Inactive)
REMARK    1  A    between atoms: N_1  and  C_2
REMARK    2  A    between atoms: C_7  and  S_8
REMARK    3  A    between atoms: S_8  and  C_9
REMARK    4  A    between atoms: C_10  and  C_11
REMARK                            x       y       z     vdW  Elec       q    Type
REMARK                         _______ _______ _______ _____ _____    ______ ____
ROOT
ATOM      1  C   UNL     1       6.086   4.969  17.482  0.00  0.00    +0.000 A 
ATOM      2  C   UNL     1       5.339   4.229  16.628  0.00  0.00    +0.000 A 
ATOM      3  C   UNL     1       5.731   4.199  15.188  0.00  0.00    +0.000 A 
ATOM      4  C   UNL     1       5.009   3.454  14.239  0.00  0.00    +0.000 A 
ATOM      5  C   UNL     1       5.405   3.417  12.898  0.00  0.00    +0.000 A 
ATOM      6  C   UNL     1       6.523   4.133  12.485  0.00  0.00    +0.000 A 
ATOM      7  C   UNL     1       7.243   4.891  13.407  0.00  0.00    +0.000 A 
ATOM      8  C   UNL     1       6.846   4.918  14.747  0.00  0.00    +0.000 A 
ATOM      9  N   UNL     1       7.577   5.674  15.662  0.00  0.00    +0.000 N 
ATOM     10  C   UNL     1       7.279   5.752  16.995  0.00  0.00    +0.000 A 
ATOM     11  O   UNL     1       7.975   6.446  17.735  0.00  0.00    +0.000 OA
ATOM     12  H   UNL     1       8.382   6.206  15.359  0.00  0.00    +0.000 HD
ENDROOT
BRANCH   2  13
ATOM     13  C   UNL     1       4.188   3.431  17.123  0.00  0.00    +0.000 A 
ATOM     14  C   UNL     1       4.388   2.221  17.797  0.00  0.00    +0.000 A 
ATOM     15  C   UNL     1       3.308   1.559  18.383  0.00  0.00    +0.000 A 
ATOM     16  C   UNL     1       2.025   2.105  18.305  0.00  0.00    +0.000 A 
ATOM     17  C   UNL     1       1.816   3.300  17.620  0.00  0.00    +0.000 A 
ATOM     18  C   UNL     1       2.892   3.958  17.024  0.00  0.00    +0.000 A 
ENDBRANCH   2  13
BRANCH   1  19
ATOM     19  S   UNL     1       5.755   5.146  19.189  0.00  0.00    +0.000 S 
BRANCH  19  25
ATOM     20  C   UNL     1       2.164   6.589  19.863  0.00  0.00    +0.000 A 
ATOM     21  C   UNL     1       1.999   7.462  18.856  0.00  0.00    +0.000 A 
ATOM     22  C   UNL     1       3.098   7.669  17.904  0.00  0.00    +0.000 A 
ATOM     23  O   UNL     1       2.993   8.458  16.969  0.00  0.00    +0.000 OA
ATOM     24  N   UNL     1       4.204   6.920  18.128  0.00  0.00    +0.000 N 
ATOM     25  C   UNL     1       4.268   6.050  19.170  0.00  0.00    +0.000 A 
ATOM     26  N   UNL     1       3.317   5.865  20.020  0.00  0.00    +0.000 NA
ATOM     27  H   UNL     1       4.988   7.019  17.502  0.00  0.00    +0.000 HD
BRANCH  20  28
ATOM     28  N   UNL     1       1.141   6.378  20.759  0.00  0.00    +0.000 N 
ATOM     29  H   UNL     1       1.133   5.449  21.166  0.00  0.00    +0.000 HD
ATOM     30  H   UNL     1       1.140   7.116  21.456  0.00  0.00    +0.000 HD
ENDBRANCH  20  28
ENDBRANCH  19  25
ENDBRANCH   1  19
TORSDOF 4
ENDMDL
MODEL 9
REMARK VINA RESULT:      -8.0      8.640     11.319
REMARK  Name = 
REMARK  4 active torsions:
REMARK  status: ('A' for Active; 'I' for Inactive)
REMARK    1  A    between atoms: N_1  and  C_2
REMARK    2  A    between atoms: C_7  and  S_8
REMARK    3  A    between atoms: S_8  and  C_9
REMARK    4  A    between atoms: C_10  and  C_11
REMARK                            x       y       z     vdW  Elec       q    Type
REMARK                         _______ _______ _______ _____ _____    ______ ____
ROOT
ATOM      1  C   UNL     1      -2.332  12.488  20.546  0.00  0.00    +0.000 A 
ATOM      2  C   UNL     1      -1.874  12.084  21.755  0.00  0.00    +0.000 A 
ATOM      3  C   UNL     1      -0.939  10.920  21.806  0.00  0.00    +0.000 A 
ATOM      4  C   UNL     1      -0.419  10.441  23.021  0.00  0.00    +0.000 A 
ATOM      5  C   UNL     1       0.475   9.366  23.048  0.00  0.00    +0.000 A 
ATOM      6  C   UNL     1       0.853   8.748  21.861  0.00  0.00    +0.000 A 
ATOM      7  C   UNL     1       0.336   9.198  20.647  0.00  0.00    +0.000 A 
ATOM      8  C   UNL     1      -0.552  10.277  20.626  0.00  0.00    +0.000 A 
ATOM      9  N   UNL     1      -1.058  10.723  19.407  0.00  0.00    +0.000 N 
ATOM     10  C   UNL     1      -1.918  11.780  19.281  0.00  0.00    +0.000 A 
ATOM     11  O   UNL     1      -2.321  12.107  18.165  0.00  0.00    +0.000 OA
ATOM     12  H   UNL     1      -0.794  10.266  18.545  0.00  0.00    +0.000 HD
ENDROOT
BRANCH   2  13
ATOM     13  C   UNL     1      -2.257  12.810  22.993  0.00  0.00    +0.000 A 
ATOM     14  C   UNL     1      -1.524  13.918  23.433  0.00  0.00    +0.000 A 
ATOM     15  C   UNL     1      -1.981  14.677  24.512  0.00  0.00    +0.000 A 
ATOM     16  C   UNL     1      -3.175  14.337  25.152  0.00  0.00    +0.000 A 
ATOM     17  C   UNL     1      -3.900  13.225  24.731  0.00  0.00    +0.000 A 
ATOM     18  C   UNL     1      -3.440  12.458  23.660  0.00  0.00    +0.000 A 
ENDBRANCH   2  13
BRANCH   1  19
ATOM     19  S   UNL     1      -3.454  13.806  20.302  0.00  0.00    +0.000 S 
BRANCH  19  25
ATOM     20  C   UNL     1      -6.676  11.563  20.458  0.00  0.00    +0.000 A 
ATOM     21  C   UNL     1      -7.127  11.600  19.194  0.00  0.00    +0.000 A 
ATOM     22  C   UNL     1      -6.414  12.420  18.206  0.00  0.00    +0.000 A 
ATOM     23  O   UNL     1      -6.791  12.485  17.039  0.00  0.00    +0.000 OA
ATOM     24  N   UNL     1      -5.320  13.066  18.674  0.00  0.00    +0.000 N 
ATOM     25  C   UNL     1      -4.934  12.953  19.972  0.00  0.00    +0.000 A 
ATOM     26  N   UNL     1      -5.555  12.246  20.854  0.00  0.00    +0.000 NA
ATOM     27  H   UNL     1      -4.790  13.641  18.037  0.00  0.00    +0.000 HD
BRANCH  20  28
ATOM     28  N   UNL     1      -7.327  10.793  21.395  0.00  0.00    +0.000 N 
ATOM     29  H   UNL     1      -7.084  11.015  22.354  0.00  0.00    +0.000 HD
ATOM     30  H   UNL     1      -8.328  10.822  21.223  0.00  0.00    +0.000 HD
ENDBRANCH  20  28
ENDBRANCH  19  25
ENDBRANCH   1  19
TORSDOF 4
ENDMDL
