MODEL 1
REMARK VINA RESULT:      -8.6      0.000      0.000
REMARK  Name = 
REMARK  4 active torsions:
REMARK  status: ('A' for Active; 'I' for Inactive)
REMARK    1  A    between atoms: C_1  and  C_2
REMARK    2  A    between atoms: N_4  and  C_5
REMARK    3  A    between atoms: C_10  and  C_12
REMARK    4  A    between atoms: C_12  and  C_13
REMARK                            x       y       z     vdW  Elec       q    Type
REMARK                         _______ _______ _______ _____ _____    ______ ____
ROOT
ATOM      1  C   UNL     1       0.189  10.784  21.115  0.00  0.00    +0.000 A 
ATOM      2  C   UNL     1       0.533   9.882  22.116  0.00  0.00    +0.000 A 
ATOM      3  C   UNL     1       1.151   8.670  21.788  0.00  0.00    +0.000 A 
ATOM      4  C   UNL     1       1.441   8.392  20.460  0.00  0.00    +0.000 A 
ATOM      5  N   UNL     1       2.159   7.217  20.180  0.00  0.00    +0.000 N 
ATOM      6  C   UNL     1       2.824   6.985  18.993  0.00  0.00    +0.000 C 
ATOM      7  O   UNL     1       2.874   7.764  18.039  0.00  0.00    +0.000 OA
ATOM      8  N   UNL     1       1.064   9.224  19.473  0.00  0.00    +0.000 NA
ATOM      9  C   UNL     1       0.441  10.380  19.809  0.00  0.00    +0.000 A 
ATOM     10  H   UNL     1       2.274   6.558  20.935  0.00  0.00    +0.000 HD
ENDROOT
BRANCH   1  14
ATOM     11  C   UNL     1      -0.564  14.423  21.786  0.00  0.00    +0.000 C 
ATOM     12  C   UNL     1       0.326  13.236  21.523  0.00  0.00    +0.000 C 
ATOM     13  O   UNL     1       1.545  13.369  21.469  0.00  0.00    +0.000 OA
ATOM     14  N   UNL     1      -0.379  12.056  21.356  0.00  0.00    +0.000 N 
ATOM     15  H   UNL     1      -1.386  12.130  21.265  0.00  0.00    +0.000 HD
ENDBRANCH   1  14
BRANCH   6  16
ATOM     16  C   UNL     1       3.517   5.600  18.878  0.00  0.00    +0.000 C 
ATOM     17  C   UNL     1       5.013   5.573  19.288  0.00  0.00    +0.000 C 
ATOM     18  C   UNL     1       5.639   4.415  18.504  0.00  0.00    +0.000 C 
ATOM     19  C   UNL     1       4.769   4.228  17.268  0.00  0.00    +0.000 C 
ATOM     20  C   UNL     1       3.721   5.327  17.356  0.00  0.00    +0.000 C 
BRANCH  16  21
ATOM     21  C   UNL     1       2.646   4.564  19.607  0.00  0.00    +0.000 A 
ATOM     22  C   UNL     1       3.004   4.052  20.868  0.00  0.00    +0.000 A 
ATOM     23  C   UNL     1       2.248   3.053  21.494  0.00  0.00    +0.000 A 
ATOM     24  C   UNL     1       1.118   2.535  20.872  0.00  0.00    +0.000 A 
ATOM     25  C   UNL     1       0.753   3.008  19.617  0.00  0.00    +0.000 A 
ATOM     26  C   UNL     1       1.520   3.993  18.993  0.00  0.00    +0.000 A 
ATOM     27  F   UNL     1       1.168   4.350  17.749  0.00  0.00    +0.000 F 
ENDBRANCH  16  21
ENDBRANCH   6  16
TORSDOF 3
ENDMDL
MODEL 2
REMARK VINA RESULT:      -8.5      2.329      3.982
REMARK  Name = 
REMARK  4 active torsions:
REMARK  status: ('A' for Active; 'I' for Inactive)
REMARK    1  A    between atoms: C_1  and  C_2
REMARK    2  A    between atoms: N_4  and  C_5
REMARK    3  A    between atoms: C_10  and  C_12
REMARK    4  A    between atoms: C_12  and  C_13
REMARK                            x       y       z     vdW  Elec       q    Type
REMARK                         _______ _______ _______ _____ _____    ______ ____
ROOT
ATOM      1  C   UNL     1       0.866  10.105  19.446  0.00  0.00    +0.000 A 
ATOM      2  C   UNL     1       1.301   9.877  18.146  0.00  0.00    +0.000 A 
ATOM      3  C   UNL     1       1.972   8.691  17.826  0.00  0.00    +0.000 A 
ATOM      4  C   UNL     1       2.172   7.737  18.814  0.00  0.00    +0.000 A 
ATOM      5  N   UNL     1       2.752   6.515  18.433  0.00  0.00    +0.000 N 
ATOM      6  C   UNL     1       2.686   5.362  19.191  0.00  0.00    +0.000 C 
ATOM      7  O   UNL     1       2.123   5.256  20.282  0.00  0.00    +0.000 OA
ATOM      8  N   UNL     1       1.812   7.964  20.090  0.00  0.00    +0.000 NA
ATOM      9  C   UNL     1       1.188   9.130  20.383  0.00  0.00    +0.000 A 
ATOM     10  H   UNL     1       3.144   6.461  17.506  0.00  0.00    +0.000 HD
ENDROOT
BRANCH   1  14
ATOM     11  C   UNL     1      -1.690  12.815  20.066  0.00  0.00    +0.000 C 
ATOM     12  C   UNL     1      -1.188  11.512  19.500  0.00  0.00    +0.000 C 
ATOM     13  O   UNL     1      -1.920  10.805  18.815  0.00  0.00    +0.000 OA
ATOM     14  N   UNL     1       0.125  11.242  19.846  0.00  0.00    +0.000 N 
ATOM     15  H   UNL     1       0.549  11.836  20.549  0.00  0.00    +0.000 HD
ENDBRANCH   1  14
BRANCH   6  16
ATOM     16  C   UNL     1       3.434   4.135  18.601  0.00  0.00    +0.000 C 
ATOM     17  C   UNL     1       2.537   3.108  17.862  0.00  0.00    +0.000 C 
ATOM     18  C   UNL     1       3.266   1.764  17.972  0.00  0.00    +0.000 C 
ATOM     19  C   UNL     1       4.137   1.862  19.217  0.00  0.00    +0.000 C 
ATOM     20  C   UNL     1       3.825   3.228  19.808  0.00  0.00    +0.000 C 
BRANCH  16  21
ATOM     21  C   UNL     1       4.621   4.648  17.771  0.00  0.00    +0.000 A 
ATOM     22  C   UNL     1       4.676   4.479  16.374  0.00  0.00    +0.000 A 
ATOM     23  C   UNL     1       5.793   4.879  15.632  0.00  0.00    +0.000 A 
ATOM     24  C   UNL     1       6.888   5.455  16.266  0.00  0.00    +0.000 A 
ATOM     25  C   UNL     1       6.869   5.616  17.646  0.00  0.00    +0.000 A 
ATOM     26  C   UNL     1       5.759   5.200  18.382  0.00  0.00    +0.000 A 
ATOM     27  F   UNL     1       5.831   5.303  19.717  0.00  0.00    +0.000 F 
ENDBRANCH  16  21
ENDBRANCH   6  16
TORSDOF 3
ENDMDL
MODEL 3
REMARK VINA RESULT:      -8.5      2.041      3.798
REMARK  Name = 
REMARK  4 active torsions:
REMARK  status: ('A' for Active; 'I' for Inactive)
REMARK    1  A    between atoms: C_1  and  C_2
REMARK    2  A    between atoms: N_4  and  C_5
REMARK    3  A    between atoms: C_10  and  C_12
REMARK    4  A    between atoms: C_12  and  C_13
REMARK                            x       y       z     vdW  Elec       q    Type
REMARK                         _______ _______ _______ _____ _____    ______ ____
ROOT
ATOM      1  C   UNL     1       0.958  10.210  19.324  0.00  0.00    +0.000 A 
ATOM      2  C   UNL     1       1.501   9.996  18.063  0.00  0.00    +0.000 A 
ATOM      3  C   UNL     1       2.159   8.795  17.774  0.00  0.00    +0.000 A 
ATOM      4  C   UNL     1       2.239   7.813  18.751  0.00  0.00    +0.000 A 
ATOM      5  N   UNL     1       2.810   6.580  18.392  0.00  0.00    +0.000 N 
ATOM      6  C   UNL     1       2.640   5.414  19.111  0.00  0.00    +0.000 C 
ATOM      7  O   UNL     1       1.976   5.302  20.143  0.00  0.00    +0.000 OA
ATOM      8  N   UNL     1       1.772   8.023  19.995  0.00  0.00    +0.000 NA
ATOM      9  C   UNL     1       1.162   9.203  20.261  0.00  0.00    +0.000 A 
ATOM     10  H   UNL     1       3.283   6.534  17.503  0.00  0.00    +0.000 HD
ENDROOT
BRANCH   1  14
ATOM     11  C   UNL     1      -0.362  13.457  20.730  0.00  0.00    +0.000 C 
ATOM     12  C   UNL     1       0.663  12.373  20.522  0.00  0.00    +0.000 C 
ATOM     13  O   UNL     1       1.762  12.441  21.063  0.00  0.00    +0.000 OA
ATOM     14  N   UNL     1       0.222  11.362  19.685  0.00  0.00    +0.000 N 
ATOM     15  H   UNL     1      -0.645  11.523  19.184  0.00  0.00    +0.000 HD
ENDBRANCH   1  14
BRANCH   6  16
ATOM     16  C   UNL     1       3.398   4.175  18.558  0.00  0.00    +0.000 C 
ATOM     17  C   UNL     1       2.517   3.144  17.804  0.00  0.00    +0.000 C 
ATOM     18  C   UNL     1       3.234   1.798  17.952  0.00  0.00    +0.000 C 
ATOM     19  C   UNL     1       4.068   1.906  19.222  0.00  0.00    +0.000 C 
ATOM     20  C   UNL     1       3.746   3.281  19.787  0.00  0.00    +0.000 C 
BRANCH  16  21
ATOM     21  C   UNL     1       4.612   4.672  17.759  0.00  0.00    +0.000 A 
ATOM     22  C   UNL     1       4.694   4.515  16.362  0.00  0.00    +0.000 A 
ATOM     23  C   UNL     1       5.834   4.900  15.647  0.00  0.00    +0.000 A 
ATOM     24  C   UNL     1       6.927   5.445  16.311  0.00  0.00    +0.000 A 
ATOM     25  C   UNL     1       6.882   5.592  17.692  0.00  0.00    +0.000 A 
ATOM     26  C   UNL     1       5.748   5.193  18.400  0.00  0.00    +0.000 A 
ATOM     27  F   UNL     1       5.794   5.281  19.737  0.00  0.00    +0.000 F 
ENDBRANCH  16  21
ENDBRANCH   6  16
TORSDOF 3
ENDMDL
MODEL 4
REMARK VINA RESULT:      -8.5      1.060      1.060
REMARK  Name = 
REMARK  4 active torsions:
REMARK  status: ('A' for Active; 'I' for Inactive)
REMARK    1  A    between atoms: C_1  and  C_2
REMARK    2  A    between atoms: N_4  and  C_5
REMARK    3  A    between atoms: C_10  and  C_12
REMARK    4  A    between atoms: C_12  and  C_13
REMARK                            x       y       z     vdW  Elec       q    Type
REMARK                         _______ _______ _______ _____ _____    ______ ____
ROOT
ATOM      1  C   UNL     1       0.212  10.662  21.385  0.00  0.00    +0.000 A 
ATOM      2  C   UNL     1       0.539   9.706  22.340  0.00  0.00    +0.000 A 
ATOM      3  C   UNL     1       1.148   8.506  21.954  0.00  0.00    +0.000 A 
ATOM      4  C   UNL     1       1.445   8.295  20.614  0.00  0.00    +0.000 A 
ATOM      5  N   UNL     1       2.152   7.129  20.279  0.00  0.00    +0.000 N 
ATOM      6  C   UNL     1       2.824   6.953  19.085  0.00  0.00    +0.000 C 
ATOM      7  O   UNL     1       2.890   7.780  18.174  0.00  0.00    +0.000 OA
ATOM      8  N   UNL     1       1.084   9.182  19.670  0.00  0.00    +0.000 NA
ATOM      9  C   UNL     1       0.471  10.325  20.062  0.00  0.00    +0.000 A 
ATOM     10  H   UNL     1       2.255   6.430  20.998  0.00  0.00    +0.000 HD
ENDROOT
BRANCH   1  14
ATOM     11  C   UNL     1      -1.743  13.619  22.690  0.00  0.00    +0.000 C 
ATOM     12  C   UNL     1      -1.352  12.166  22.608  0.00  0.00    +0.000 C 
ATOM     13  O   UNL     1      -1.905  11.329  23.314  0.00  0.00    +0.000 OA
ATOM     14  N   UNL     1      -0.344  11.927  21.689  0.00  0.00    +0.000 N 
ATOM     15  H   UNL     1       0.127  12.736  21.299  0.00  0.00    +0.000 HD
ENDBRANCH   1  14
BRANCH   6  16
ATOM     16  C   UNL     1       3.504   5.567  18.903  0.00  0.00    +0.000 C 
ATOM     17  C   UNL     1       5.000   5.507  19.309  0.00  0.00    +0.000 C 
ATOM     18  C   UNL     1       5.614   4.382  18.469  0.00  0.00    +0.000 C 
ATOM     19  C   UNL     1       4.741   4.263  17.227  0.00  0.00    +0.000 C 
ATOM     20  C   UNL     1       3.703   5.366  17.370  0.00  0.00    +0.000 C 
BRANCH  16  21
ATOM     21  C   UNL     1       2.624   4.507  19.582  0.00  0.00    +0.000 A 
ATOM     22  C   UNL     1       2.970   3.941  20.824  0.00  0.00    +0.000 A 
ATOM     23  C   UNL     1       2.207   2.920  21.403  0.00  0.00    +0.000 A 
ATOM     24  C   UNL     1       1.079   2.434  20.752  0.00  0.00    +0.000 A 
ATOM     25  C   UNL     1       0.725   2.959  19.516  0.00  0.00    +0.000 A 
ATOM     26  C   UNL     1       1.500   3.965  18.937  0.00  0.00    +0.000 A 
ATOM     27  F   UNL     1       1.158   4.375  17.707  0.00  0.00    +0.000 F 
ENDBRANCH  16  21
ENDBRANCH   6  16
TORSDOF 3
ENDMDL
MODEL 5
REMARK VINA RESULT:      -8.4      2.210      2.665
REMARK  Name = 
REMARK  4 active torsions:
REMARK  status: ('A' for Active; 'I' for Inactive)
REMARK    1  A    between atoms: C_1  and  C_2
REMARK    2  A    between atoms: N_4  and  C_5
REMARK    3  A    between atoms: C_10  and  C_12
REMARK    4  A    between atoms: C_12  and  C_13
REMARK                            x       y       z     vdW  Elec       q    Type
REMARK                         _______ _______ _______ _____ _____    ______ ____
ROOT
ATOM      1  C   UNL     1       0.680   9.197  20.582  0.00  0.00    +0.000 A 
ATOM      2  C   UNL     1       0.985   8.022  21.261  0.00  0.00    +0.000 A 
ATOM      3  C   UNL     1       1.791   7.050  20.658  0.00  0.00    +0.000 A 
ATOM      4  C   UNL     1       2.303   7.284  19.390  0.00  0.00    +0.000 A 
ATOM      5  N   UNL     1       3.195   6.335  18.862  0.00  0.00    +0.000 N 
ATOM      6  C   UNL     1       4.050   6.586  17.806  0.00  0.00    +0.000 C 
ATOM      7  O   UNL     1       4.140   7.655  17.200  0.00  0.00    +0.000 OA
ATOM      8  N   UNL     1       1.972   8.386  18.694  0.00  0.00    +0.000 NA
ATOM      9  C   UNL     1       1.168   9.302  19.284  0.00  0.00    +0.000 A 
ATOM     10  H   UNL     1       3.282   5.460  19.355  0.00  0.00    +0.000 HD
ENDROOT
BRANCH   1  14
ATOM     11  C   UNL     1      -1.102  11.716  22.758  0.00  0.00    +0.000 C 
ATOM     12  C   UNL     1      -0.223  10.524  22.485  0.00  0.00    +0.000 C 
ATOM     13  O   UNL     1       0.281   9.895  23.410  0.00  0.00    +0.000 OA
ATOM     14  N   UNL     1      -0.071  10.260  21.135  0.00  0.00    +0.000 N 
ATOM     15  H   UNL     1      -0.413  10.960  20.486  0.00  0.00    +0.000 HD
ENDBRANCH   1  14
BRANCH   6  16
ATOM     16  C   UNL     1       4.920   5.381  17.354  0.00  0.00    +0.000 C 
ATOM     17  C   UNL     1       6.423   5.474  17.728  0.00  0.00    +0.000 C 
ATOM     18  C   UNL     1       7.165   4.636  16.682  0.00  0.00    +0.000 C 
ATOM     19  C   UNL     1       6.273   4.623  15.448  0.00  0.00    +0.000 C 
ATOM     20  C   UNL     1       5.089   5.507  15.809  0.00  0.00    +0.000 C 
BRANCH  16  21
ATOM     21  C   UNL     1       4.233   4.089  17.823  0.00  0.00    +0.000 A 
ATOM     22  C   UNL     1       3.175   3.507  17.098  0.00  0.00    +0.000 A 
ATOM     23  C   UNL     1       2.502   2.374  17.568  0.00  0.00    +0.000 A 
ATOM     24  C   UNL     1       2.864   1.795  18.779  0.00  0.00    +0.000 A 
ATOM     25  C   UNL     1       3.890   2.360  19.526  0.00  0.00    +0.000 A 
ATOM     26  C   UNL     1       4.546   3.499  19.059  0.00  0.00    +0.000 A 
ATOM     27  F   UNL     1       5.471   4.049  19.860  0.00  0.00    +0.000 F 
ENDBRANCH  16  21
ENDBRANCH   6  16
TORSDOF 3
ENDMDL
MODEL 6
REMARK VINA RESULT:      -8.4      2.257      3.778
REMARK  Name = 
REMARK  4 active torsions:
REMARK  status: ('A' for Active; 'I' for Inactive)
REMARK    1  A    between atoms: C_1  and  C_2
REMARK    2  A    between atoms: N_4  and  C_5
REMARK    3  A    between atoms: C_10  and  C_12
REMARK    4  A    between atoms: C_12  and  C_13
REMARK                            x       y       z     vdW  Elec       q    Type
REMARK                         _______ _______ _______ _____ _____    ______ ____
ROOT
ATOM      1  C   UNL     1       0.727  10.153  19.372  0.00  0.00    +0.000 A 
ATOM      2  C   UNL     1       1.260   9.929  18.107  0.00  0.00    +0.000 A 
ATOM      3  C   UNL     1       1.990   8.764  17.847  0.00  0.00    +0.000 A 
ATOM      4  C   UNL     1       2.152   7.825  18.856  0.00  0.00    +0.000 A 
ATOM      5  N   UNL     1       2.797   6.621  18.529  0.00  0.00    +0.000 N 
ATOM      6  C   UNL     1       2.717   5.473  19.292  0.00  0.00    +0.000 C 
ATOM      7  O   UNL     1       2.082   5.356  20.341  0.00  0.00    +0.000 OA
ATOM      8  N   UNL     1       1.695   8.050  20.101  0.00  0.00    +0.000 NA
ATOM      9  C   UNL     1       1.015   9.197  20.339  0.00  0.00    +0.000 A 
ATOM     10  H   UNL     1       3.256   6.573  17.632  0.00  0.00    +0.000 HD
ENDROOT
BRANCH   1  14
ATOM     11  C   UNL     1      -1.977  12.748  19.835  0.00  0.00    +0.000 C 
ATOM     12  C   UNL     1      -1.401  11.447  19.341  0.00  0.00    +0.000 C 
ATOM     13  O   UNL     1      -2.088  10.666  18.692  0.00  0.00    +0.000 OA
ATOM     14  N   UNL     1      -0.077  11.267  19.707  0.00  0.00    +0.000 N 
ATOM     15  H   UNL     1       0.308  11.919  20.380  0.00  0.00    +0.000 HD
ENDBRANCH   1  14
BRANCH   6  16
ATOM     16  C   UNL     1       3.545   4.267  18.768  0.00  0.00    +0.000 C 
ATOM     17  C   UNL     1       2.860   3.428  17.657  0.00  0.00    +0.000 C 
ATOM     18  C   UNL     1       3.454   2.020  17.772  0.00  0.00    +0.000 C 
ATOM     19  C   UNL     1       3.917   1.879  19.216  0.00  0.00    +0.000 C 
ATOM     20  C   UNL     1       3.511   3.182  19.887  0.00  0.00    +0.000 C 
BRANCH  16  21
ATOM     21  C   UNL     1       4.950   4.771  18.402  0.00  0.00    +0.000 A 
ATOM     22  C   UNL     1       5.892   5.121  19.388  0.00  0.00    +0.000 A 
ATOM     23  C   UNL     1       7.142   5.652  19.051  0.00  0.00    +0.000 A 
ATOM     24  C   UNL     1       7.483   5.852  17.718  0.00  0.00    +0.000 A 
ATOM     25  C   UNL     1       6.565   5.535  16.725  0.00  0.00    +0.000 A 
ATOM     26  C   UNL     1       5.314   5.021  17.069  0.00  0.00    +0.000 A 
ATOM     27  F   UNL     1       4.439   4.812  16.074  0.00  0.00    +0.000 F 
ENDBRANCH  16  21
ENDBRANCH   6  16
TORSDOF 3
ENDMDL
MODEL 7
REMARK VINA RESULT:      -8.3      1.885      3.517
REMARK  Name = 
REMARK  4 active torsions:
REMARK  status: ('A' for Active; 'I' for Inactive)
REMARK    1  A    between atoms: C_1  and  C_2
REMARK    2  A    between atoms: N_4  and  C_5
REMARK    3  A    between atoms: C_10  and  C_12
REMARK    4  A    between atoms: C_12  and  C_13
REMARK                            x       y       z     vdW  Elec       q    Type
REMARK                         _______ _______ _______ _____ _____    ______ ____
ROOT
ATOM      1  C   UNL     1       0.718  10.179  19.493  0.00  0.00    +0.000 A 
ATOM      2  C   UNL     1       1.236   9.980  18.218  0.00  0.00    +0.000 A 
ATOM      3  C   UNL     1       1.958   8.818  17.926  0.00  0.00    +0.000 A 
ATOM      4  C   UNL     1       2.128   7.857  18.914  0.00  0.00    +0.000 A 
ATOM      5  N   UNL     1       2.764   6.657  18.554  0.00  0.00    +0.000 N 
ATOM      6  C   UNL     1       2.687   5.493  19.294  0.00  0.00    +0.000 C 
ATOM      7  O   UNL     1       2.063   5.357  20.347  0.00  0.00    +0.000 OA
ATOM      8  N   UNL     1       1.686   8.057  20.168  0.00  0.00    +0.000 NA
ATOM      9  C   UNL     1       1.013   9.202  20.437  0.00  0.00    +0.000 A 
ATOM     10  H   UNL     1       3.212   6.626  17.651  0.00  0.00    +0.000 HD
ENDROOT
BRANCH   1  14
ATOM     11  C   UNL     1      -0.754  13.368  20.882  0.00  0.00    +0.000 C 
ATOM     12  C   UNL     1       0.332  12.349  20.652  0.00  0.00    +0.000 C 
ATOM     13  O   UNL     1       1.447  12.504  21.140  0.00  0.00    +0.000 OA
ATOM     14  N   UNL     1      -0.077  11.289  19.861  0.00  0.00    +0.000 N 
ATOM     15  H   UNL     1      -0.974  11.379  19.397  0.00  0.00    +0.000 HD
ENDBRANCH   1  14
BRANCH   6  16
ATOM     16  C   UNL     1       3.504   4.295  18.735  0.00  0.00    +0.000 C 
ATOM     17  C   UNL     1       2.808   3.491  17.606  0.00  0.00    +0.000 C 
ATOM     18  C   UNL     1       3.392   2.076  17.682  0.00  0.00    +0.000 C 
ATOM     19  C   UNL     1       3.860   1.894  19.120  0.00  0.00    +0.000 C 
ATOM     20  C   UNL     1       3.467   3.182  19.827  0.00  0.00    +0.000 C 
BRANCH  16  21
ATOM     21  C   UNL     1       4.911   4.798  18.376  0.00  0.00    +0.000 A 
ATOM     22  C   UNL     1       5.851   5.139  19.367  0.00  0.00    +0.000 A 
ATOM     23  C   UNL     1       7.104   5.669  19.036  0.00  0.00    +0.000 A 
ATOM     24  C   UNL     1       7.448   5.878  17.706  0.00  0.00    +0.000 A 
ATOM     25  C   UNL     1       6.532   5.570  16.708  0.00  0.00    +0.000 A 
ATOM     26  C   UNL     1       5.279   5.056  17.046  0.00  0.00    +0.000 A 
ATOM     27  F   UNL     1       4.406   4.856  16.047  0.00  0.00    +0.000 F 
ENDBRANCH  16  21
ENDBRANCH   6  16
TORSDOF 3
ENDMDL
MODEL 8
REMARK VINA RESULT:      -8.3      1.115      1.115
REMARK  Name = 
REMARK  4 active torsions:
REMARK  status: ('A' for Active; 'I' for Inactive)
REMARK    1  A    between atoms: C_1  and  C_2
REMARK    2  A    between atoms: N_4  and  C_5
REMARK    3  A    between atoms: C_10  and  C_12
REMARK    4  A    between atoms: C_12  and  C_13
REMARK                            x       y       z     vdW  Elec       q    Type
REMARK                         _______ _______ _______ _____ _____    ______ ____
ROOT
ATOM      1  C   UNL     1       0.226  10.879  20.622  0.00  0.00    +0.000 A 
ATOM      2  C   UNL     1       0.481  10.010  21.676  0.00  0.00    +0.000 A 
ATOM      3  C   UNL     1       1.089   8.772  21.437  0.00  0.00    +0.000 A 
ATOM      4  C   UNL     1       1.458   8.436  20.142  0.00  0.00    +0.000 A 
ATOM      5  N   UNL     1       2.163   7.235  19.955  0.00  0.00    +0.000 N 
ATOM      6  C   UNL     1       2.899   6.943  18.824  0.00  0.00    +0.000 C 
ATOM      7  O   UNL     1       3.031   7.682  17.847  0.00  0.00    +0.000 OA
ATOM      8  N   UNL     1       1.168   9.237  19.101  0.00  0.00    +0.000 NA
ATOM      9  C   UNL     1       0.554  10.419  19.352  0.00  0.00    +0.000 A 
ATOM     10  H   UNL     1       2.213   6.604  20.740  0.00  0.00    +0.000 HD
ENDROOT
BRANCH   1  14
ATOM     11  C   UNL     1      -1.854  14.031  20.615  0.00  0.00    +0.000 C 
ATOM     12  C   UNL     1      -1.561  12.585  20.310  0.00  0.00    +0.000 C 
ATOM     13  O   UNL     1      -2.380  11.895  19.712  0.00  0.00    +0.000 OA
ATOM     14  N   UNL     1      -0.324  12.173  20.777  0.00  0.00    +0.000 N 
ATOM     15  H   UNL     1       0.171  12.806  21.394  0.00  0.00    +0.000 HD
ENDBRANCH   1  14
BRANCH   6  16
ATOM     16  C   UNL     1       3.563   5.538  18.808  0.00  0.00    +0.000 C 
ATOM     17  C   UNL     1       5.052   5.506  19.245  0.00  0.00    +0.000 C 
ATOM     18  C   UNL     1       5.665   4.288  18.546  0.00  0.00    +0.000 C 
ATOM     19  C   UNL     1       4.811   4.043  17.308  0.00  0.00    +0.000 C 
ATOM     20  C   UNL     1       3.786   5.167  17.310  0.00  0.00    +0.000 C 
BRANCH  16  21
ATOM     21  C   UNL     1       2.658   4.569  19.583  0.00  0.00    +0.000 A 
ATOM     22  C   UNL     1       2.997   4.105  20.869  0.00  0.00    +0.000 A 
ATOM     23  C   UNL     1       2.209   3.163  21.539  0.00  0.00    +0.000 A 
ATOM     24  C   UNL     1       1.062   2.655  20.941  0.00  0.00    +0.000 A 
ATOM     25  C   UNL     1       0.714   3.079  19.664  0.00  0.00    +0.000 A 
ATOM     26  C   UNL     1       1.513   4.006  18.995  0.00  0.00    +0.000 A 
ATOM     27  F   UNL     1       1.174   4.315  17.735  0.00  0.00    +0.000 F 
ENDBRANCH  16  21
ENDBRANCH   6  16
TORSDOF 3
ENDMDL
MODEL 9
REMARK VINA RESULT:      -8.3      2.439      2.969
REMARK  Name = 
REMARK  4 active torsions:
REMARK  status: ('A' for Active; 'I' for Inactive)
REMARK    1  A    between atoms: C_1  and  C_2
REMARK    2  A    between atoms: N_4  and  C_5
REMARK    3  A    between atoms: C_10  and  C_12
REMARK    4  A    between atoms: C_12  and  C_13
REMARK                            x       y       z     vdW  Elec       q    Type
REMARK                         _______ _______ _______ _____ _____    ______ ____
ROOT
ATOM      1  C   UNL     1       0.897   9.804  19.241  0.00  0.00    +0.000 A 
ATOM      2  C   UNL     1       1.180   8.816  20.178  0.00  0.00    +0.000 A 
ATOM      3  C   UNL     1       1.982   7.724  19.828  0.00  0.00    +0.000 A 
ATOM      4  C   UNL     1       2.513   7.653  18.548  0.00  0.00    +0.000 A 
ATOM      5  N   UNL     1       3.401   6.601  18.267  0.00  0.00    +0.000 N 
ATOM      6  C   UNL     1       4.271   6.594  17.195  0.00  0.00    +0.000 C 
ATOM      7  O   UNL     1       4.382   7.493  16.359  0.00  0.00    +0.000 OA
ATOM      8  N   UNL     1       2.204   8.567  17.611  0.00  0.00    +0.000 NA
ATOM      9  C   UNL     1       1.403   9.602  17.962  0.00  0.00    +0.000 A 
ATOM     10  H   UNL     1       3.471   5.863  18.950  0.00  0.00    +0.000 HD
ENDROOT
BRANCH   1  14
ATOM     11  C   UNL     1      -1.679  12.543  19.597  0.00  0.00    +0.000 C 
ATOM     12  C   UNL     1      -1.172  11.188  19.175  0.00  0.00    +0.000 C 
ATOM     13  O   UNL     1      -1.908  10.400  18.590  0.00  0.00    +0.000 OA
ATOM     14  N   UNL     1       0.151  10.972  19.523  0.00  0.00    +0.000 N 
ATOM     15  H   UNL     1       0.581  11.647  20.145  0.00  0.00    +0.000 HD
ENDBRANCH   1  14
BRANCH   6  16
ATOM     16  C   UNL     1       5.133   5.310  17.046  0.00  0.00    +0.000 C 
ATOM     17  C   UNL     1       6.609   5.449  17.505  0.00  0.00    +0.000 C 
ATOM     18  C   UNL     1       7.395   4.412  16.695  0.00  0.00    +0.000 C 
ATOM     19  C   UNL     1       6.590   4.176  15.424  0.00  0.00    +0.000 C 
ATOM     20  C   UNL     1       5.412   5.134  15.522  0.00  0.00    +0.000 C 
BRANCH  16  21
ATOM     21  C   UNL     1       4.376   4.144  17.702  0.00  0.00    +0.000 A 
ATOM     22  C   UNL     1       3.327   3.478  17.041  0.00  0.00    +0.000 A 
ATOM     23  C   UNL     1       2.589   2.468  17.671  0.00  0.00    +0.000 A 
ATOM     24  C   UNL     1       2.879   2.101  18.980  0.00  0.00    +0.000 A 
ATOM     25  C   UNL     1       3.896   2.756  19.663  0.00  0.00    +0.000 A 
ATOM     26  C   UNL     1       4.616   3.773  19.035  0.00  0.00    +0.000 A 
ATOM     27  F   UNL     1       5.528   4.425  19.769  0.00  0.00    +0.000 F 
ENDBRANCH  16  21
ENDBRANCH   6  16
TORSDOF 3
ENDMDL
