MODEL 1
REMARK VINA RESULT:      -8.3      0.000      0.000
REMARK  Name = 
REMARK  3 active torsions:
REMARK  status: ('A' for Active; 'I' for Inactive)
REMARK    1  A    between atoms: C_2  and  C_4
REMARK    2  A    between atoms: N_14  and  C_15
REMARK    3  A    between atoms: C_19  and  C_20
REMARK                            x       y       z     vdW  Elec       q    Type
REMARK                         _______ _______ _______ _____ _____    ______ ____
ROOT
ATOM      1  C   UNL     1       5.947   4.923  16.652  0.00  0.00    +0.000 A 
ATOM      2  C   UNL     1       6.920   5.280  15.796  0.00  0.00    +0.000 A 
ATOM      3  C   UNL     1       6.881   4.899  14.402  0.00  0.00    +0.000 A 
ATOM      4  C   UNL     1       7.866   5.305  13.499  0.00  0.00    +0.000 A 
ATOM      5  C   UNL     1       7.841   4.835  12.188  0.00  0.00    +0.000 A 
ATOM      6  C   UNL     1       6.827   3.961  11.776  0.00  0.00    +0.000 A 
ATOM      7  C   UNL     1       5.837   3.564  12.675  0.00  0.00    +0.000 A 
ATOM      8  C   UNL     1       5.881   4.041  13.981  0.00  0.00    +0.000 A 
ATOM      9  O   UNL     1       4.873   3.642  14.880  0.00  0.00    +0.000 OA
ATOM     10  C   UNL     1       4.741   4.142  16.190  0.00  0.00    +0.000 A 
ATOM     11  N   UNL     1       3.598   3.856  16.722  0.00  0.00    +0.000 NA
ENDROOT
BRANCH  11  12
ATOM     12  C   UNL     1       3.139   4.280  17.976  0.00  0.00    +0.000 A 
ATOM     13  C   UNL     1       2.862   5.639  18.171  0.00  0.00    +0.000 A 
ATOM     14  C   UNL     1       2.407   6.110  19.407  0.00  0.00    +0.000 A 
ATOM     15  C   UNL     1       2.169   5.209  20.445  0.00  0.00    +0.000 A 
ATOM     16  C   UNL     1       2.453   3.850  20.272  0.00  0.00    +0.000 A 
ATOM     17  C   UNL     1       3.027   3.423  19.066  0.00  0.00    +0.000 A 
BRANCH  16  18
ATOM     18  C   UNL     1       2.065   2.811  21.290  0.00  0.00    +0.000 C 
ATOM     19  F   UNL     1       1.232   3.269  22.259  0.00  0.00    +0.000 F 
ATOM     20  F   UNL     1       1.425   1.747  20.718  0.00  0.00    +0.000 F 
ATOM     21  F   UNL     1       3.143   2.278  21.931  0.00  0.00    +0.000 F 
ENDBRANCH  16  18
ENDBRANCH  11  12
BRANCH   1  23
ATOM     22  N   UNL     1       6.302   4.192  18.942  0.00  0.00    +0.000 N 
ATOM     23  C   UNL     1       6.251   5.251  18.071  0.00  0.00    +0.000 C 
ATOM     24  O   UNL     1       6.441   6.389  18.471  0.00  0.00    +0.000 OA
ATOM     25  H   UNL     1       6.539   4.397  19.905  0.00  0.00    +0.000 HD
ATOM     26  H   UNL     1       6.161   3.224  18.687  0.00  0.00    +0.000 HD
ENDBRANCH   1  23
TORSDOF 3
ENDMDL
MODEL 2
REMARK VINA RESULT:      -8.3      0.728      1.100
REMARK  Name = 
REMARK  3 active torsions:
REMARK  status: ('A' for Active; 'I' for Inactive)
REMARK    1  A    between atoms: C_2  and  C_4
REMARK    2  A    between atoms: N_14  and  C_15
REMARK    3  A    between atoms: C_19  and  C_20
REMARK                            x       y       z     vdW  Elec       q    Type
REMARK                         _______ _______ _______ _____ _____    ______ ____
ROOT
ATOM      1  C   UNL     1       5.988   4.941  16.633  0.00  0.00    +0.000 A 
ATOM      2  C   UNL     1       6.950   5.269  15.753  0.00  0.00    +0.000 A 
ATOM      3  C   UNL     1       6.884   4.861  14.368  0.00  0.00    +0.000 A 
ATOM      4  C   UNL     1       7.857   5.237  13.441  0.00  0.00    +0.000 A 
ATOM      5  C   UNL     1       7.804   4.741  12.140  0.00  0.00    +0.000 A 
ATOM      6  C   UNL     1       6.775   3.871  11.763  0.00  0.00    +0.000 A 
ATOM      7  C   UNL     1       5.796   3.503  12.687  0.00  0.00    +0.000 A 
ATOM      8  C   UNL     1       5.867   4.006  13.982  0.00  0.00    +0.000 A 
ATOM      9  O   UNL     1       4.870   3.636  14.905  0.00  0.00    +0.000 OA
ATOM     10  C   UNL     1       4.766   4.164  16.207  0.00  0.00    +0.000 A 
ATOM     11  N   UNL     1       3.629   3.902  16.764  0.00  0.00    +0.000 NA
ENDROOT
BRANCH  11  12
ATOM     12  C   UNL     1       3.196   4.356  18.017  0.00  0.00    +0.000 A 
ATOM     13  C   UNL     1       2.820   5.699  18.157  0.00  0.00    +0.000 A 
ATOM     14  C   UNL     1       2.387   6.199  19.388  0.00  0.00    +0.000 A 
ATOM     15  C   UNL     1       2.270   5.340  20.482  0.00  0.00    +0.000 A 
ATOM     16  C   UNL     1       2.654   4.000  20.363  0.00  0.00    +0.000 A 
ATOM     17  C   UNL     1       3.203   3.554  19.152  0.00  0.00    +0.000 A 
BRANCH  16  18
ATOM     18  C   UNL     1       2.399   2.990  21.451  0.00  0.00    +0.000 C 
ATOM     19  F   UNL     1       3.401   2.090  21.618  0.00  0.00    +0.000 F 
ATOM     20  F   UNL     1       2.223   3.584  22.669  0.00  0.00    +0.000 F 
ATOM     21  F   UNL     1       1.265   2.266  21.237  0.00  0.00    +0.000 F 
ENDBRANCH  16  18
ENDBRANCH  11  12
BRANCH   1  23
ATOM     22  N   UNL     1       6.483   6.629  18.309  0.00  0.00    +0.000 N 
ATOM     23  C   UNL     1       6.320   5.294  18.040  0.00  0.00    +0.000 C 
ATOM     24  O   UNL     1       6.453   4.464  18.926  0.00  0.00    +0.000 OA
ATOM     25  H   UNL     1       6.679   6.886  19.269  0.00  0.00    +0.000 HD
ATOM     26  H   UNL     1       6.385   7.373  17.633  0.00  0.00    +0.000 HD
ENDBRANCH   1  23
TORSDOF 3
ENDMDL
MODEL 3
REMARK VINA RESULT:      -7.3      1.737      2.328
REMARK  Name = 
REMARK  3 active torsions:
REMARK  status: ('A' for Active; 'I' for Inactive)
REMARK    1  A    between atoms: C_2  and  C_4
REMARK    2  A    between atoms: N_14  and  C_15
REMARK    3  A    between atoms: C_19  and  C_20
REMARK                            x       y       z     vdW  Elec       q    Type
REMARK                         _______ _______ _______ _____ _____    ______ ____
ROOT
ATOM      1  C   UNL     1       5.340   4.354  17.332  0.00  0.00    +0.000 A 
ATOM      2  C   UNL     1       6.420   4.852  16.707  0.00  0.00    +0.000 A 
ATOM      3  C   UNL     1       6.583   4.750  15.274  0.00  0.00    +0.000 A 
ATOM      4  C   UNL     1       7.682   5.306  14.615  0.00  0.00    +0.000 A 
ATOM      5  C   UNL     1       7.846   5.099  13.247  0.00  0.00    +0.000 A 
ATOM      6  C   UNL     1       6.909   4.342  12.534  0.00  0.00    +0.000 A 
ATOM      7  C   UNL     1       5.806   3.796  13.191  0.00  0.00    +0.000 A 
ATOM      8  C   UNL     1       5.660   4.009  14.557  0.00  0.00    +0.000 A 
ATOM      9  O   UNL     1       4.539   3.462  15.211  0.00  0.00    +0.000 OA
ATOM     10  C   UNL     1       4.219   3.700  16.561  0.00  0.00    +0.000 A 
ATOM     11  N   UNL     1       3.014   3.337  16.862  0.00  0.00    +0.000 NA
ENDROOT
BRANCH  11  12
ATOM     12  C   UNL     1       2.379   3.518  18.097  0.00  0.00    +0.000 A 
ATOM     13  C   UNL     1       1.887   2.395  18.775  0.00  0.00    +0.000 A 
ATOM     14  C   UNL     1       1.239   2.526  20.008  0.00  0.00    +0.000 A 
ATOM     15  C   UNL     1       1.131   3.785  20.602  0.00  0.00    +0.000 A 
ATOM     16  C   UNL     1       1.605   4.918  19.932  0.00  0.00    +0.000 A 
ATOM     17  C   UNL     1       2.136   4.774  18.642  0.00  0.00    +0.000 A 
BRANCH  16  18
ATOM     18  C   UNL     1       1.666   6.273  20.587  0.00  0.00    +0.000 C 
ATOM     19  F   UNL     1       0.451   6.797  20.888  0.00  0.00    +0.000 F 
ATOM     20  F   UNL     1       2.362   6.241  21.763  0.00  0.00    +0.000 F 
ATOM     21  F   UNL     1       2.303   7.198  19.817  0.00  0.00    +0.000 F 
ENDBRANCH  16  18
ENDBRANCH  11  12
BRANCH   1  23
ATOM     22  N   UNL     1       5.352   3.187  19.463  0.00  0.00    +0.000 N 
ATOM     23  C   UNL     1       5.437   4.394  18.815  0.00  0.00    +0.000 C 
ATOM     24  O   UNL     1       5.578   5.427  19.452  0.00  0.00    +0.000 OA
ATOM     25  H   UNL     1       5.447   3.196  20.471  0.00  0.00    +0.000 HD
ATOM     26  H   UNL     1       5.240   2.291  19.008  0.00  0.00    +0.000 HD
ENDBRANCH   1  23
TORSDOF 3
ENDMDL
MODEL 4
REMARK VINA RESULT:      -7.2      1.948      2.480
REMARK  Name = 
REMARK  3 active torsions:
REMARK  status: ('A' for Active; 'I' for Inactive)
REMARK    1  A    between atoms: C_2  and  C_4
REMARK    2  A    between atoms: N_14  and  C_15
REMARK    3  A    between atoms: C_19  and  C_20
REMARK                            x       y       z     vdW  Elec       q    Type
REMARK                         _______ _______ _______ _____ _____    ______ ____
ROOT
ATOM      1  C   UNL     1       5.934   4.816  16.820  0.00  0.00    +0.000 A 
ATOM      2  C   UNL     1       6.871   5.252  15.960  0.00  0.00    +0.000 A 
ATOM      3  C   UNL     1       6.843   4.893  14.560  0.00  0.00    +0.000 A 
ATOM      4  C   UNL     1       7.788   5.380  13.655  0.00  0.00    +0.000 A 
ATOM      5  C   UNL     1       7.780   4.931  12.336  0.00  0.00    +0.000 A 
ATOM      6  C   UNL     1       6.824   3.998  11.919  0.00  0.00    +0.000 A 
ATOM      7  C   UNL     1       5.873   3.519  12.821  0.00  0.00    +0.000 A 
ATOM      8  C   UNL     1       5.898   3.976  14.134  0.00  0.00    +0.000 A 
ATOM      9  O   UNL     1       4.930   3.494  15.036  0.00  0.00    +0.000 OA
ATOM     10  C   UNL     1       4.779   3.962  16.356  0.00  0.00    +0.000 A 
ATOM     11  N   UNL     1       3.664   3.590  16.894  0.00  0.00    +0.000 NA
ENDROOT
BRANCH  11  12
ATOM     12  C   UNL     1       3.191   3.961  18.160  0.00  0.00    +0.000 A 
ATOM     13  C   UNL     1       3.233   3.023  19.199  0.00  0.00    +0.000 A 
ATOM     14  C   UNL     1       2.766   3.345  20.478  0.00  0.00    +0.000 A 
ATOM     15  C   UNL     1       2.306   4.636  20.741  0.00  0.00    +0.000 A 
ATOM     16  C   UNL     1       2.244   5.581  19.711  0.00  0.00    +0.000 A 
ATOM     17  C   UNL     1       2.600   5.194  18.411  0.00  0.00    +0.000 A 
BRANCH  16  18
ATOM     18  C   UNL     1       1.915   7.028  19.966  0.00  0.00    +0.000 C 
ATOM     19  F   UNL     1       1.529   7.711  18.858  0.00  0.00    +0.000 F 
ATOM     20  F   UNL     1       0.897   7.171  20.867  0.00  0.00    +0.000 F 
ATOM     21  F   UNL     1       2.963   7.718  20.495  0.00  0.00    +0.000 F 
ENDBRANCH  16  18
ENDBRANCH  11  12
BRANCH   1  23
ATOM     22  N   UNL     1       6.305   6.473  18.559  0.00  0.00    +0.000 N 
ATOM     23  C   UNL     1       6.231   5.139  18.241  0.00  0.00    +0.000 C 
ATOM     24  O   UNL     1       6.412   4.290  19.100  0.00  0.00    +0.000 OA
ATOM     25  H   UNL     1       6.476   6.707  19.529  0.00  0.00    +0.000 HD
ATOM     26  H   UNL     1       6.163   7.232  17.907  0.00  0.00    +0.000 HD
ENDBRANCH   1  23
TORSDOF 3
ENDMDL
MODEL 5
REMARK VINA RESULT:      -7.2      1.849      2.430
REMARK  Name = 
REMARK  3 active torsions:
REMARK  status: ('A' for Active; 'I' for Inactive)
REMARK    1  A    between atoms: C_2  and  C_4
REMARK    2  A    between atoms: N_14  and  C_15
REMARK    3  A    between atoms: C_19  and  C_20
REMARK                            x       y       z     vdW  Elec       q    Type
REMARK                         _______ _______ _______ _____ _____    ______ ____
ROOT
ATOM      1  C   UNL     1       5.895   4.820  16.787  0.00  0.00    +0.000 A 
ATOM      2  C   UNL     1       6.837   5.267  15.939  0.00  0.00    +0.000 A 
ATOM      3  C   UNL     1       6.831   4.910  14.538  0.00  0.00    +0.000 A 
ATOM      4  C   UNL     1       7.781   5.409  13.646  0.00  0.00    +0.000 A 
ATOM      5  C   UNL     1       7.794   4.962  12.326  0.00  0.00    +0.000 A 
ATOM      6  C   UNL     1       6.853   4.020  11.896  0.00  0.00    +0.000 A 
ATOM      7  C   UNL     1       5.897   3.529  12.785  0.00  0.00    +0.000 A 
ATOM      8  C   UNL     1       5.901   3.984  14.099  0.00  0.00    +0.000 A 
ATOM      9  O   UNL     1       4.927   3.490  14.989  0.00  0.00    +0.000 OA
ATOM     10  C   UNL     1       4.755   3.954  16.307  0.00  0.00    +0.000 A 
ATOM     11  N   UNL     1       3.637   3.569  16.831  0.00  0.00    +0.000 NA
ENDROOT
BRANCH  11  12
ATOM     12  C   UNL     1       3.145   3.933  18.092  0.00  0.00    +0.000 A 
ATOM     13  C   UNL     1       3.129   2.974  19.114  0.00  0.00    +0.000 A 
ATOM     14  C   UNL     1       2.641   3.289  20.386  0.00  0.00    +0.000 A 
ATOM     15  C   UNL     1       2.217   4.589  20.662  0.00  0.00    +0.000 A 
ATOM     16  C   UNL     1       2.213   5.555  19.649  0.00  0.00    +0.000 A 
ATOM     17  C   UNL     1       2.589   5.180  18.352  0.00  0.00    +0.000 A 
BRANCH  16  18
ATOM     18  C   UNL     1       1.926   7.007  19.923  0.00  0.00    +0.000 C 
ATOM     19  F   UNL     1       0.938   7.215  20.831  0.00  0.00    +0.000 F 
ATOM     20  F   UNL     1       3.023   7.663  20.409  0.00  0.00    +0.000 F 
ATOM     21  F   UNL     1       1.566   7.691  18.802  0.00  0.00    +0.000 F 
ENDBRANCH  16  18
ENDBRANCH  11  12
BRANCH   1  23
ATOM     22  N   UNL     1       6.316   4.076  19.062  0.00  0.00    +0.000 N 
ATOM     23  C   UNL     1       6.171   5.144  18.212  0.00  0.00    +0.000 C 
ATOM     24  O   UNL     1       6.261   6.286  18.635  0.00  0.00    +0.000 OA
ATOM     25  H   UNL     1       6.534   4.282  20.029  0.00  0.00    +0.000 HD
ATOM     26  H   UNL     1       6.259   3.105  18.787  0.00  0.00    +0.000 HD
ENDBRANCH   1  23
TORSDOF 3
ENDMDL
MODEL 6
REMARK VINA RESULT:      -7.2      3.577      5.213
REMARK  Name = 
REMARK  3 active torsions:
REMARK  status: ('A' for Active; 'I' for Inactive)
REMARK    1  A    between atoms: C_2  and  C_4
REMARK    2  A    between atoms: N_14  and  C_15
REMARK    3  A    between atoms: C_19  and  C_20
REMARK                            x       y       z     vdW  Elec       q    Type
REMARK                         _______ _______ _______ _____ _____    ______ ____
ROOT
ATOM      1  C   UNL     1       7.664   6.974  18.512  0.00  0.00    +0.000 A 
ATOM      2  C   UNL     1       8.534   7.739  19.195  0.00  0.00    +0.000 A 
ATOM      3  C   UNL     1       8.745   9.131  18.863  0.00  0.00    +0.000 A 
ATOM      4  C   UNL     1       9.614   9.940  19.598  0.00  0.00    +0.000 A 
ATOM      5  C   UNL     1       9.859  11.247  19.184  0.00  0.00    +0.000 A 
ATOM      6  C   UNL     1       9.233  11.749  18.037  0.00  0.00    +0.000 A 
ATOM      7  C   UNL     1       8.356  10.944  17.309  0.00  0.00    +0.000 A 
ATOM      8  C   UNL     1       8.126   9.640  17.736  0.00  0.00    +0.000 A 
ATOM      9  O   UNL     1       7.234   8.836  17.000  0.00  0.00    +0.000 OA
ATOM     10  C   UNL     1       6.831   7.544  17.390  0.00  0.00    +0.000 A 
ATOM     11  N   UNL     1       5.805   7.118  16.728  0.00  0.00    +0.000 NA
ENDROOT
BRANCH  11  12
ATOM     12  C   UNL     1       5.125   5.912  16.940  0.00  0.00    +0.000 A 
ATOM     13  C   UNL     1       5.334   4.852  16.048  0.00  0.00    +0.000 A 
ATOM     14  C   UNL     1       4.672   3.631  16.215  0.00  0.00    +0.000 A 
ATOM     15  C   UNL     1       3.836   3.443  17.317  0.00  0.00    +0.000 A 
ATOM     16  C   UNL     1       3.605   4.496  18.209  0.00  0.00    +0.000 A 
ATOM     17  C   UNL     1       4.182   5.747  17.948  0.00  0.00    +0.000 A 
BRANCH  16  18
ATOM     18  C   UNL     1       2.850   4.307  19.498  0.00  0.00    +0.000 C 
ATOM     19  F   UNL     1       1.514   4.129  19.336  0.00  0.00    +0.000 F 
ATOM     20  F   UNL     1       3.290   3.216  20.194  0.00  0.00    +0.000 F 
ATOM     21  F   UNL     1       2.996   5.360  20.349  0.00  0.00    +0.000 F 
ENDBRANCH  16  18
ENDBRANCH  11  12
BRANCH   1  23
ATOM     22  N   UNL     1       8.078   4.664  17.881  0.00  0.00    +0.000 N 
ATOM     23  C   UNL     1       7.719   5.535  18.880  0.00  0.00    +0.000 C 
ATOM     24  O   UNL     1       7.457   5.117  19.998  0.00  0.00    +0.000 OA
ATOM     25  H   UNL     1       8.149   3.684  18.126  0.00  0.00    +0.000 HD
ATOM     26  H   UNL     1       8.313   4.933  16.936  0.00  0.00    +0.000 HD
ENDBRANCH   1  23
TORSDOF 3
ENDMDL
MODEL 7
REMARK VINA RESULT:      -7.2      3.656      5.341
REMARK  Name = 
REMARK  3 active torsions:
REMARK  status: ('A' for Active; 'I' for Inactive)
REMARK    1  A    between atoms: C_2  and  C_4
REMARK    2  A    between atoms: N_14  and  C_15
REMARK    3  A    between atoms: C_19  and  C_20
REMARK                            x       y       z     vdW  Elec       q    Type
REMARK                         _______ _______ _______ _____ _____    ______ ____
ROOT
ATOM      1  C   UNL     1       7.695   7.083  18.360  0.00  0.00    +0.000 A 
ATOM      2  C   UNL     1       8.589   7.806  19.056  0.00  0.00    +0.000 A 
ATOM      3  C   UNL     1       8.767   9.222  18.823  0.00  0.00    +0.000 A 
ATOM      4  C   UNL     1       9.662   9.985  19.575  0.00  0.00    +0.000 A 
ATOM      5  C   UNL     1       9.872  11.325  19.251  0.00  0.00    +0.000 A 
ATOM      6  C   UNL     1       9.183  11.903  18.179  0.00  0.00    +0.000 A 
ATOM      7  C   UNL     1       8.281  11.142  17.434  0.00  0.00    +0.000 A 
ATOM      8  C   UNL     1       8.087   9.806  17.769  0.00  0.00    +0.000 A 
ATOM      9  O   UNL     1       7.169   9.048  17.018  0.00  0.00    +0.000 OA
ATOM     10  C   UNL     1       6.801   7.724  17.327  0.00  0.00    +0.000 A 
ATOM     11  N   UNL     1       5.749   7.334  16.683  0.00  0.00    +0.000 NA
ENDROOT
BRANCH  11  12
ATOM     12  C   UNL     1       5.093   6.105  16.834  0.00  0.00    +0.000 A 
ATOM     13  C   UNL     1       5.364   5.077  15.921  0.00  0.00    +0.000 A 
ATOM     14  C   UNL     1       4.729   3.836  16.028  0.00  0.00    +0.000 A 
ATOM     15  C   UNL     1       3.858   3.594  17.091  0.00  0.00    +0.000 A 
ATOM     16  C   UNL     1       3.566   4.613  18.003  0.00  0.00    +0.000 A 
ATOM     17  C   UNL     1       4.118   5.885  17.801  0.00  0.00    +0.000 A 
BRANCH  16  18
ATOM     18  C   UNL     1       2.769   4.366  19.257  0.00  0.00    +0.000 C 
ATOM     19  F   UNL     1       3.402   3.589  20.172  0.00  0.00    +0.000 F 
ATOM     20  F   UNL     1       2.460   5.530  19.904  0.00  0.00    +0.000 F 
ATOM     21  F   UNL     1       1.572   3.766  19.007  0.00  0.00    +0.000 F 
ENDBRANCH  16  18
ENDBRANCH  11  12
BRANCH   1  23
ATOM     22  N   UNL     1       7.515   5.206  19.893  0.00  0.00    +0.000 N 
ATOM     23  C   UNL     1       7.784   5.620  18.612  0.00  0.00    +0.000 C 
ATOM     24  O   UNL     1       8.085   4.806  17.752  0.00  0.00    +0.000 OA
ATOM     25  H   UNL     1       7.542   4.210  20.072  0.00  0.00    +0.000 HD
ATOM     26  H   UNL     1       7.255   5.816  20.656  0.00  0.00    +0.000 HD
ENDBRANCH   1  23
TORSDOF 3
ENDMDL
MODEL 8
REMARK VINA RESULT:      -7.0      1.593      2.186
REMARK  Name = 
REMARK  3 active torsions:
REMARK  status: ('A' for Active; 'I' for Inactive)
REMARK    1  A    between atoms: C_2  and  C_4
REMARK    2  A    between atoms: N_14  and  C_15
REMARK    3  A    between atoms: C_19  and  C_20
REMARK                            x       y       z     vdW  Elec       q    Type
REMARK                         _______ _______ _______ _____ _____    ______ ____
ROOT
ATOM      1  C   UNL     1       6.206   4.674  16.937  0.00  0.00    +0.000 A 
ATOM      2  C   UNL     1       6.992   5.304  16.048  0.00  0.00    +0.000 A 
ATOM      3  C   UNL     1       6.962   4.977  14.640  0.00  0.00    +0.000 A 
ATOM      4  C   UNL     1       7.744   5.660  13.707  0.00  0.00    +0.000 A 
ATOM      5  C   UNL     1       7.754   5.246  12.377  0.00  0.00    +0.000 A 
ATOM      6  C   UNL     1       6.979   4.152  11.976  0.00  0.00    +0.000 A 
ATOM      7  C   UNL     1       6.189   3.476  12.906  0.00  0.00    +0.000 A 
ATOM      8  C   UNL     1       6.193   3.901  14.231  0.00  0.00    +0.000 A 
ATOM      9  O   UNL     1       5.387   3.219  15.162  0.00  0.00    +0.000 OA
ATOM     10  C   UNL     1       5.217   3.619  16.502  0.00  0.00    +0.000 A 
ATOM     11  N   UNL     1       4.226   3.023  17.081  0.00  0.00    +0.000 NA
ENDROOT
BRANCH  11  12
ATOM     12  C   UNL     1       3.757   3.266  18.378  0.00  0.00    +0.000 A 
ATOM     13  C   UNL     1       4.146   2.403  19.411  0.00  0.00    +0.000 A 
ATOM     14  C   UNL     1       3.698   2.602  20.721  0.00  0.00    +0.000 A 
ATOM     15  C   UNL     1       2.899   3.707  21.018  0.00  0.00    +0.000 A 
ATOM     16  C   UNL     1       2.490   4.571  19.996  0.00  0.00    +0.000 A 
ATOM     17  C   UNL     1       2.850   4.278  18.673  0.00  0.00    +0.000 A 
BRANCH  16  18
ATOM     18  C   UNL     1       1.771   5.864  20.276  0.00  0.00    +0.000 C 
ATOM     19  F   UNL     1       2.240   6.536  21.358  0.00  0.00    +0.000 F 
ATOM     20  F   UNL     1       1.860   6.736  19.227  0.00  0.00    +0.000 F 
ATOM     21  F   UNL     1       0.437   5.686  20.484  0.00  0.00    +0.000 F 
ENDBRANCH  16  18
ENDBRANCH  11  12
BRANCH   1  23
ATOM     22  N   UNL     1       7.770   4.715  18.796  0.00  0.00    +0.000 N 
ATOM     23  C   UNL     1       6.507   5.019  18.352  0.00  0.00    +0.000 C 
ATOM     24  O   UNL     1       5.697   5.537  19.104  0.00  0.00    +0.000 OA
ATOM     25  H   UNL     1       7.999   4.973  19.748  0.00  0.00    +0.000 HD
ATOM     26  H   UNL     1       8.495   4.291  18.234  0.00  0.00    +0.000 HD
ENDBRANCH   1  23
TORSDOF 3
ENDMDL
MODEL 9
REMARK VINA RESULT:      -6.9      4.193      7.778
REMARK  Name = 
REMARK  3 active torsions:
REMARK  status: ('A' for Active; 'I' for Inactive)
REMARK    1  A    between atoms: C_2  and  C_4
REMARK    2  A    between atoms: N_14  and  C_15
REMARK    3  A    between atoms: C_19  and  C_20
REMARK                            x       y       z     vdW  Elec       q    Type
REMARK                         _______ _______ _______ _____ _____    ______ ____
ROOT
ATOM      1  C   UNL     1       1.810   6.719  20.415  0.00  0.00    +0.000 A 
ATOM      2  C   UNL     1       1.023   7.222  21.382  0.00  0.00    +0.000 A 
ATOM      3  C   UNL     1       0.517   8.575  21.321  0.00  0.00    +0.000 A 
ATOM      4  C   UNL     1      -0.337   9.087  22.300  0.00  0.00    +0.000 A 
ATOM      5  C   UNL     1      -0.722  10.425  22.253  0.00  0.00    +0.000 A 
ATOM      6  C   UNL     1      -0.259  11.252  21.223  0.00  0.00    +0.000 A 
ATOM      7  C   UNL     1       0.586  10.738  20.239  0.00  0.00    +0.000 A 
ATOM      8  C   UNL     1       0.963   9.401  20.304  0.00  0.00    +0.000 A 
ATOM      9  O   UNL     1       1.809   8.887  19.303  0.00  0.00    +0.000 OA
ATOM     10  C   UNL     1       2.169   7.530  19.193  0.00  0.00    +0.000 A 
ATOM     11  N   UNL     1       2.708   7.245  18.053  0.00  0.00    +0.000 NA
ENDROOT
BRANCH  11  12
ATOM     12  C   UNL     1       3.096   5.973  17.614  0.00  0.00    +0.000 A 
ATOM     13  C   UNL     1       2.165   4.927  17.665  0.00  0.00    +0.000 A 
ATOM     14  C   UNL     1       2.509   3.638  17.244  0.00  0.00    +0.000 A 
ATOM     15  C   UNL     1       3.776   3.400  16.711  0.00  0.00    +0.000 A 
ATOM     16  C   UNL     1       4.722   4.429  16.666  0.00  0.00    +0.000 A 
ATOM     17  C   UNL     1       4.394   5.679  17.210  0.00  0.00    +0.000 A 
BRANCH  16  18
ATOM     18  C   UNL     1       6.042   4.279  15.956  0.00  0.00    +0.000 C 
ATOM     19  F   UNL     1       7.100   4.099  16.787  0.00  0.00    +0.000 F 
ATOM     20  F   UNL     1       6.047   3.208  15.107  0.00  0.00    +0.000 F 
ATOM     21  F   UNL     1       6.343   5.355  15.178  0.00  0.00    +0.000 F 
ENDBRANCH  16  18
ENDBRANCH  11  12
BRANCH   1  23
ATOM     22  N   UNL     1       3.723   5.225  20.533  0.00  0.00    +0.000 N 
ATOM     23  C   UNL     1       2.375   5.383  20.740  0.00  0.00    +0.000 C 
ATOM     24  O   UNL     1       1.703   4.454  21.162  0.00  0.00    +0.000 OA
ATOM     25  H   UNL     1       4.126   4.330  20.780  0.00  0.00    +0.000 HD
ATOM     26  H   UNL     1       4.345   5.945  20.192  0.00  0.00    +0.000 HD
ENDBRANCH   1  23
TORSDOF 3
ENDMDL
