MODEL 1
REMARK VINA RESULT:      -9.6      0.000      0.000
REMARK  Name = 
REMARK  3 active torsions:
REMARK  status: ('A' for Active; 'I' for Inactive)
REMARK    1  A    between atoms: C_7  and  S_8
REMARK    2  A    between atoms: S_8  and  N_11
REMARK    3  A    between atoms: N_11  and  C_12
REMARK                            x       y       z     vdW  Elec       q    Type
REMARK                         _______ _______ _______ _____ _____    ______ ____
ROOT
ATOM      1  S   UNL     1       3.551   3.239  18.742  0.00  0.00    +0.000 S 
ATOM      2  O   UNL     1       3.045   2.257  19.684  0.00  0.00    +0.000 OA
ATOM      3  O   UNL     1       3.375   3.044  17.319  0.00  0.00    +0.000 OA
ENDROOT
BRANCH   1  10
ATOM      4  O   UNL     1       1.096  10.779  19.821  0.00  0.00    +0.000 OA
ATOM      5  C   UNL     1       1.331   9.647  19.405  0.00  0.00    +0.000 C 
ATOM      6  C   UNL     1       1.395   9.321  17.932  0.00  0.00    +0.000 C 
ATOM      7  C   UNL     1       2.422   8.246  17.624  0.00  0.00    +0.000 C 
ATOM      8  C   UNL     1       2.353   7.102  18.595  0.00  0.00    +0.000 A 
ATOM      9  C   UNL     1       2.887   5.854  18.256  0.00  0.00    +0.000 A 
ATOM     10  C   UNL     1       2.869   4.811  19.189  0.00  0.00    +0.000 A 
ATOM     11  C   UNL     1       2.336   5.015  20.455  0.00  0.00    +0.000 A 
ATOM     12  F   UNL     1       2.247   4.020  21.347  0.00  0.00    +0.000 F 
ATOM     13  C   UNL     1       1.835   6.266  20.814  0.00  0.00    +0.000 A 
ATOM     14  C   UNL     1       1.853   7.308  19.886  0.00  0.00    +0.000 A 
ATOM     15  N   UNL     1       1.423   8.582  20.264  0.00  0.00    +0.000 N 
ATOM     16  H   UNL     1       1.234   8.793  21.237  0.00  0.00    +0.000 HD
ENDBRANCH   1  10
BRANCH   1  17
ATOM     17  N   UNL     1       5.214   3.390  19.004  0.00  0.00    +0.000 N 
ATOM     18  H   UNL     1       5.649   2.467  19.012  0.00  0.00    +0.000 HD
BRANCH  17  19
ATOM     19  C   UNL     1       5.916   4.416  18.308  0.00  0.00    +0.000 A 
ATOM     20  C   UNL     1       6.462   5.471  19.047  0.00  0.00    +0.000 A 
ATOM     21  C   UNL     1       7.233   6.453  18.434  0.00  0.00    +0.000 A 
ATOM     22  C   UNL     1       7.454   6.425  17.054  0.00  0.00    +0.000 A 
ATOM     23  C   UNL     1       6.914   5.374  16.285  0.00  0.00    +0.000 A 
ATOM     24  C   UNL     1       6.909   5.072  14.897  0.00  0.00    +0.000 A 
ATOM     25  C   UNL     1       6.214   3.896  14.730  0.00  0.00    +0.000 A 
ATOM     26  N   UNL     1       5.811   3.462  15.963  0.00  0.00    +0.000 N 
ATOM     27  C   UNL     1       6.180   4.374  16.931  0.00  0.00    +0.000 A 
ATOM     28  H   UNL     1       5.304   2.606  16.156  0.00  0.00    +0.000 HD
ENDBRANCH  17  19
ENDBRANCH   1  17
TORSDOF 3
ENDMDL
MODEL 2
REMARK VINA RESULT:      -8.7      1.267      1.861
REMARK  Name = 
REMARK  3 active torsions:
REMARK  status: ('A' for Active; 'I' for Inactive)
REMARK    1  A    between atoms: C_7  and  S_8
REMARK    2  A    between atoms: S_8  and  N_11
REMARK    3  A    between atoms: N_11  and  C_12
REMARK                            x       y       z     vdW  Elec       q    Type
REMARK                         _______ _______ _______ _____ _____    ______ ____
ROOT
ATOM      1  S   UNL     1       3.478   3.533  18.894  0.00  0.00    +0.000 S 
ATOM      2  O   UNL     1       2.869   2.817  20.000  0.00  0.00    +0.000 OA
ATOM      3  O   UNL     1       3.311   3.061  17.537  0.00  0.00    +0.000 OA
ENDROOT
BRANCH   1  10
ATOM      4  O   UNL     1       0.332  10.772  20.213  0.00  0.00    +0.000 OA
ATOM      5  C   UNL     1       0.923   9.698  20.276  0.00  0.00    +0.000 C 
ATOM      6  C   UNL     1       1.195   8.996  21.586  0.00  0.00    +0.000 C 
ATOM      7  C   UNL     1       1.143   7.484  21.451  0.00  0.00    +0.000 C 
ATOM      8  C   UNL     1       1.872   7.000  20.229  0.00  0.00    +0.000 A 
ATOM      9  C   UNL     1       2.308   5.673  20.147  0.00  0.00    +0.000 A 
ATOM     10  C   UNL     1       2.934   5.216  18.981  0.00  0.00    +0.000 A 
ATOM     11  C   UNL     1       3.111   6.072  17.902  0.00  0.00    +0.000 A 
ATOM     12  F   UNL     1       3.763   5.683  16.799  0.00  0.00    +0.000 F 
ATOM     13  C   UNL     1       2.647   7.386  17.962  0.00  0.00    +0.000 A 
ATOM     14  C   UNL     1       2.022   7.843  19.122  0.00  0.00    +0.000 A 
ATOM     15  N   UNL     1       1.487   9.134  19.161  0.00  0.00    +0.000 N 
ATOM     16  H   UNL     1       1.421   9.687  18.315  0.00  0.00    +0.000 HD
ENDBRANCH   1  10
BRANCH   1  17
ATOM     17  N   UNL     1       5.143   3.594  19.180  0.00  0.00    +0.000 N 
ATOM     18  H   UNL     1       5.518   2.648  19.249  0.00  0.00    +0.000 HD
BRANCH  17  19
ATOM     19  C   UNL     1       5.921   4.531  18.440  0.00  0.00    +0.000 A 
ATOM     20  C   UNL     1       6.513   5.597  19.127  0.00  0.00    +0.000 A 
ATOM     21  C   UNL     1       7.356   6.491  18.475  0.00  0.00    +0.000 A 
ATOM     22  C   UNL     1       7.605   6.363  17.105  0.00  0.00    +0.000 A 
ATOM     23  C   UNL     1       7.019   5.300  16.389  0.00  0.00    +0.000 A 
ATOM     24  C   UNL     1       7.027   4.911  15.022  0.00  0.00    +0.000 A 
ATOM     25  C   UNL     1       6.266   3.770  14.910  0.00  0.00    +0.000 A 
ATOM     26  N   UNL     1       5.811   3.439  16.156  0.00  0.00    +0.000 N 
ATOM     27  C   UNL     1       6.212   4.387  17.075  0.00  0.00    +0.000 A 
ATOM     28  H   UNL     1       5.248   2.628  16.388  0.00  0.00    +0.000 HD
ENDBRANCH  17  19
ENDBRANCH   1  17
TORSDOF 3
ENDMDL
MODEL 3
REMARK VINA RESULT:      -8.5      1.121      2.060
REMARK  Name = 
REMARK  3 active torsions:
REMARK  status: ('A' for Active; 'I' for Inactive)
REMARK    1  A    between atoms: C_7  and  S_8
REMARK    2  A    between atoms: S_8  and  N_11
REMARK    3  A    between atoms: N_11  and  C_12
REMARK                            x       y       z     vdW  Elec       q    Type
REMARK                         _______ _______ _______ _____ _____    ______ ____
ROOT
ATOM      1  S   UNL     1       2.884   2.832  17.947  0.00  0.00    +0.000 S 
ATOM      2  O   UNL     1       2.441   1.696  18.735  0.00  0.00    +0.000 OA
ATOM      3  O   UNL     1       2.461   2.976  16.571  0.00  0.00    +0.000 OA
ENDROOT
BRANCH   1  10
ATOM      4  O   UNL     1       1.457  10.069  21.051  0.00  0.00    +0.000 OA
ATOM      5  C   UNL     1       1.509   9.055  20.360  0.00  0.00    +0.000 C 
ATOM      6  C   UNL     1       1.353   9.087  18.858  0.00  0.00    +0.000 C 
ATOM      7  C   UNL     1       2.206   8.037  18.168  0.00  0.00    +0.000 C 
ATOM      8  C   UNL     1       2.126   6.703  18.855  0.00  0.00    +0.000 A 
ATOM      9  C   UNL     1       2.468   5.533  18.167  0.00  0.00    +0.000 A 
ATOM     10  C   UNL     1       2.446   4.302  18.833  0.00  0.00    +0.000 A 
ATOM     11  C   UNL     1       2.100   4.240  20.176  0.00  0.00    +0.000 A 
ATOM     12  F   UNL     1       2.008   3.070  20.823  0.00  0.00    +0.000 F 
ATOM     13  C   UNL     1       1.792   5.405  20.879  0.00  0.00    +0.000 A 
ATOM     14  C   UNL     1       1.815   6.633  20.218  0.00  0.00    +0.000 A 
ATOM     15  N   UNL     1       1.583   7.812  20.932  0.00  0.00    +0.000 N 
ATOM     16  H   UNL     1       1.541   7.797  21.945  0.00  0.00    +0.000 HD
ENDBRANCH   1  10
BRANCH   1  17
ATOM     17  N   UNL     1       4.574   2.816  17.932  0.00  0.00    +0.000 N 
ATOM     18  H   UNL     1       4.910   1.888  17.672  0.00  0.00    +0.000 HD
BRANCH  17  19
ATOM     19  C   UNL     1       5.255   3.922  17.346  0.00  0.00    +0.000 A 
ATOM     20  C   UNL     1       4.968   4.253  16.017  0.00  0.00    +0.000 A 
ATOM     21  C   UNL     1       5.534   5.375  15.419  0.00  0.00    +0.000 A 
ATOM     22  C   UNL     1       6.430   6.182  16.128  0.00  0.00    +0.000 A 
ATOM     23  C   UNL     1       6.737   5.869  17.467  0.00  0.00    +0.000 A 
ATOM     24  C   UNL     1       7.612   6.434  18.434  0.00  0.00    +0.000 A 
ATOM     25  C   UNL     1       7.490   5.694  19.588  0.00  0.00    +0.000 A 
ATOM     26  N   UNL     1       6.562   4.713  19.367  0.00  0.00    +0.000 N 
ATOM     27  C   UNL     1       6.122   4.762  18.060  0.00  0.00    +0.000 A 
ATOM     28  H   UNL     1       6.242   4.033  20.047  0.00  0.00    +0.000 HD
ENDBRANCH  17  19
ENDBRANCH   1  17
TORSDOF 3
ENDMDL
MODEL 4
REMARK VINA RESULT:      -8.4      0.934      1.909
REMARK  Name = 
REMARK  3 active torsions:
REMARK  status: ('A' for Active; 'I' for Inactive)
REMARK    1  A    between atoms: C_7  and  S_8
REMARK    2  A    between atoms: S_8  and  N_11
REMARK    3  A    between atoms: N_11  and  C_12
REMARK                            x       y       z     vdW  Elec       q    Type
REMARK                         _______ _______ _______ _____ _____    ______ ____
ROOT
ATOM      1  S   UNL     1       3.666   3.008  19.294  0.00  0.00    +0.000 S 
ATOM      2  O   UNL     1       3.579   2.290  20.552  0.00  0.00    +0.000 OA
ATOM      3  O   UNL     1       3.113   2.435  18.086  0.00  0.00    +0.000 OA
ENDROOT
BRANCH   1  10
ATOM      4  O   UNL     1       1.188  10.614  19.537  0.00  0.00    +0.000 OA
ATOM      5  C   UNL     1       1.460   9.456  19.232  0.00  0.00    +0.000 C 
ATOM      6  C   UNL     1       1.712   9.031  17.804  0.00  0.00    +0.000 C 
ATOM      7  C   UNL     1       2.758   7.933  17.706  0.00  0.00    +0.000 C 
ATOM      8  C   UNL     1       2.547   6.857  18.734  0.00  0.00    +0.000 A 
ATOM      9  C   UNL     1       3.105   5.587  18.551  0.00  0.00    +0.000 A 
ATOM     10  C   UNL     1       2.952   4.610  19.541  0.00  0.00    +0.000 A 
ATOM     11  C   UNL     1       2.260   4.901  20.710  0.00  0.00    +0.000 A 
ATOM     12  F   UNL     1       2.043   3.969  21.647  0.00  0.00    +0.000 F 
ATOM     13  C   UNL     1       1.732   6.175  20.916  0.00  0.00    +0.000 A 
ATOM     14  C   UNL     1       1.885   7.152  19.932  0.00  0.00    +0.000 A 
ATOM     15  N   UNL     1       1.425   8.451  20.163  0.00  0.00    +0.000 N 
ATOM     16  H   UNL     1       1.114   8.727  21.087  0.00  0.00    +0.000 HD
ENDBRANCH   1  10
BRANCH   1  17
ATOM     17  N   UNL     1       5.301   3.300  18.983  0.00  0.00    +0.000 N 
ATOM     18  H   UNL     1       5.834   2.436  19.088  0.00  0.00    +0.000 HD
BRANCH  17  19
ATOM     19  C   UNL     1       5.641   4.120  17.869  0.00  0.00    +0.000 A 
ATOM     20  C   UNL     1       5.058   3.836  16.629  0.00  0.00    +0.000 A 
ATOM     21  C   UNL     1       5.281   4.655  15.526  0.00  0.00    +0.000 A 
ATOM     22  C   UNL     1       6.123   5.767  15.626  0.00  0.00    +0.000 A 
ATOM     23  C   UNL     1       6.725   6.074  16.862  0.00  0.00    +0.000 A 
ATOM     24  C   UNL     1       7.640   7.074  17.291  0.00  0.00    +0.000 A 
ATOM     25  C   UNL     1       7.873   6.876  18.632  0.00  0.00    +0.000 A 
ATOM     26  N   UNL     1       7.124   5.807  19.041  0.00  0.00    +0.000 N 
ATOM     27  C   UNL     1       6.449   5.263  17.968  0.00  0.00    +0.000 A 
ATOM     28  H   UNL     1       7.069   5.446  19.987  0.00  0.00    +0.000 HD
ENDBRANCH  17  19
ENDBRANCH   1  17
TORSDOF 3
ENDMDL
MODEL 5
REMARK VINA RESULT:      -8.4      2.192      6.117
REMARK  Name = 
REMARK  3 active torsions:
REMARK  status: ('A' for Active; 'I' for Inactive)
REMARK    1  A    between atoms: C_7  and  S_8
REMARK    2  A    between atoms: S_8  and  N_11
REMARK    3  A    between atoms: N_11  and  C_12
REMARK                            x       y       z     vdW  Elec       q    Type
REMARK                         _______ _______ _______ _____ _____    ______ ____
ROOT
ATOM      1  S   UNL     1       1.863   4.813  20.665  0.00  0.00    +0.000 S 
ATOM      2  O   UNL     1       0.523   4.880  20.110  0.00  0.00    +0.000 OA
ATOM      3  O   UNL     1       2.178   3.854  21.700  0.00  0.00    +0.000 OA
ENDROOT
BRANCH   1  10
ATOM      4  O   UNL     1       7.626   4.642  15.115  0.00  0.00    +0.000 OA
ATOM      5  C   UNL     1       6.953   4.576  16.141  0.00  0.00    +0.000 C 
ATOM      6  C   UNL     1       7.553   4.740  17.517  0.00  0.00    +0.000 C 
ATOM      7  C   UNL     1       6.602   5.425  18.483  0.00  0.00    +0.000 C 
ATOM      8  C   UNL     1       5.206   4.878  18.385  0.00  0.00    +0.000 A 
ATOM      9  C   UNL     1       4.305   5.049  19.442  0.00  0.00    +0.000 A 
ATOM     10  C   UNL     1       2.989   4.587  19.318  0.00  0.00    +0.000 A 
ATOM     11  C   UNL     1       2.572   3.972  18.144  0.00  0.00    +0.000 A 
ATOM     12  F   UNL     1       1.340   3.463  18.020  0.00  0.00    +0.000 F 
ATOM     13  C   UNL     1       3.453   3.830  17.072  0.00  0.00    +0.000 A 
ATOM     14  C   UNL     1       4.765   4.291  17.193  0.00  0.00    +0.000 A 
ATOM     15  N   UNL     1       5.630   4.221  16.098  0.00  0.00    +0.000 N 
ATOM     16  H   UNL     1       5.277   3.973  15.181  0.00  0.00    +0.000 HD
ENDBRANCH   1  10
BRANCH   1  17
ATOM     17  N   UNL     1       2.232   6.338  21.295  0.00  0.00    +0.000 N 
ATOM     18  H   UNL     1       3.244   6.465  21.326  0.00  0.00    +0.000 HD
BRANCH  17  19
ATOM     19  C   UNL     1       1.468   7.455  20.850  0.00  0.00    +0.000 A 
ATOM     20  C   UNL     1       0.493   7.980  21.706  0.00  0.00    +0.000 A 
ATOM     21  C   UNL     1      -0.222   9.124  21.364  0.00  0.00    +0.000 A 
ATOM     22  C   UNL     1      -0.004   9.757  20.136  0.00  0.00    +0.000 A 
ATOM     23  C   UNL     1       0.970   9.248  19.255  0.00  0.00    +0.000 A 
ATOM     24  C   UNL     1       1.404   9.610  17.951  0.00  0.00    +0.000 A 
ATOM     25  C   UNL     1       2.403   8.736  17.587  0.00  0.00    +0.000 A 
ATOM     26  N   UNL     1       2.607   7.869  18.625  0.00  0.00    +0.000 N 
ATOM     27  C   UNL     1       1.708   8.124  19.640  0.00  0.00    +0.000 A 
ATOM     28  H   UNL     1       3.303   7.132  18.656  0.00  0.00    +0.000 HD
ENDBRANCH  17  19
ENDBRANCH   1  17
TORSDOF 3
ENDMDL
MODEL 6
REMARK VINA RESULT:      -8.3      3.415      4.827
REMARK  Name = 
REMARK  3 active torsions:
REMARK  status: ('A' for Active; 'I' for Inactive)
REMARK    1  A    between atoms: C_7  and  S_8
REMARK    2  A    between atoms: S_8  and  N_11
REMARK    3  A    between atoms: N_11  and  C_12
REMARK                            x       y       z     vdW  Elec       q    Type
REMARK                         _______ _______ _______ _____ _____    ______ ____
ROOT
ATOM      1  S   UNL     1       2.790   6.988  18.534  0.00  0.00    +0.000 S 
ATOM      2  O   UNL     1       1.906   6.103  17.798  0.00  0.00    +0.000 OA
ATOM      3  O   UNL     1       3.932   7.589  17.880  0.00  0.00    +0.000 OA
ENDROOT
BRANCH   1  10
ATOM      4  O   UNL     1      -2.051  11.960  22.519  0.00  0.00    +0.000 OA
ATOM      5  C   UNL     1      -1.165  11.190  22.158  0.00  0.00    +0.000 C 
ATOM      6  C   UNL     1      -0.441  10.278  23.120  0.00  0.00    +0.000 C 
ATOM      7  C   UNL     1      -0.063   8.952  22.483  0.00  0.00    +0.000 C 
ATOM      8  C   UNL     1       0.519   9.130  21.109  0.00  0.00    +0.000 A 
ATOM      9  C   UNL     1       1.307   8.123  20.541  0.00  0.00    +0.000 A 
ATOM     10  C   UNL     1       1.797   8.273  19.238  0.00  0.00    +0.000 A 
ATOM     11  C   UNL     1       1.491   9.412  18.504  0.00  0.00    +0.000 A 
ATOM     12  F   UNL     1       1.997   9.613  17.280  0.00  0.00    +0.000 F 
ATOM     13  C   UNL     1       0.677  10.404  19.050  0.00  0.00    +0.000 A 
ATOM     14  C   UNL     1       0.186  10.256  20.347  0.00  0.00    +0.000 A 
ATOM     15  N   UNL     1      -0.691  11.208  20.872  0.00  0.00    +0.000 N 
ATOM     16  H   UNL     1      -1.086  11.925  20.274  0.00  0.00    +0.000 HD
ENDBRANCH   1  10
BRANCH   1  17
ATOM     17  N   UNL     1       3.394   6.125  19.856  0.00  0.00    +0.000 N 
ATOM     18  H   UNL     1       3.437   6.731  20.676  0.00  0.00    +0.000 HD
BRANCH  17  19
ATOM     19  C   UNL     1       2.916   4.801  20.073  0.00  0.00    +0.000 A 
ATOM     20  C   UNL     1       2.051   4.572  21.150  0.00  0.00    +0.000 A 
ATOM     21  C   UNL     1       1.481   3.320  21.359  0.00  0.00    +0.000 A 
ATOM     22  C   UNL     1       1.787   2.249  20.513  0.00  0.00    +0.000 A 
ATOM     23  C   UNL     1       2.658   2.452  19.423  0.00  0.00    +0.000 A 
ATOM     24  C   UNL     1       3.198   1.600  18.423  0.00  0.00    +0.000 A 
ATOM     25  C   UNL     1       4.000   2.368  17.611  0.00  0.00    +0.000 A 
ATOM     26  N   UNL     1       3.955   3.657  18.066  0.00  0.00    +0.000 N 
ATOM     27  C   UNL     1       3.182   3.731  19.207  0.00  0.00    +0.000 A 
ATOM     28  H   UNL     1       4.425   4.452  17.648  0.00  0.00    +0.000 HD
ENDBRANCH  17  19
ENDBRANCH   1  17
TORSDOF 3
ENDMDL
MODEL 7
REMARK VINA RESULT:      -8.2      2.187      6.550
REMARK  Name = 
REMARK  3 active torsions:
REMARK  status: ('A' for Active; 'I' for Inactive)
REMARK    1  A    between atoms: C_7  and  S_8
REMARK    2  A    between atoms: S_8  and  N_11
REMARK    3  A    between atoms: N_11  and  C_12
REMARK                            x       y       z     vdW  Elec       q    Type
REMARK                         _______ _______ _______ _____ _____    ______ ____
ROOT
ATOM      1  S   UNL     1       1.895   4.854  20.609  0.00  0.00    +0.000 S 
ATOM      2  O   UNL     1       0.564   4.833  20.031  0.00  0.00    +0.000 OA
ATOM      3  O   UNL     1       2.236   3.955  21.691  0.00  0.00    +0.000 OA
ENDROOT
BRANCH   1  10
ATOM      4  O   UNL     1       7.819   4.620  15.234  0.00  0.00    +0.000 OA
ATOM      5  C   UNL     1       7.112   4.552  16.236  0.00  0.00    +0.000 C 
ATOM      6  C   UNL     1       7.675   4.659  17.634  0.00  0.00    +0.000 C 
ATOM      7  C   UNL     1       6.719   5.352  18.589  0.00  0.00    +0.000 C 
ATOM      8  C   UNL     1       5.308   4.858  18.434  0.00  0.00    +0.000 A 
ATOM      9  C   UNL     1       4.381   5.033  19.467  0.00  0.00    +0.000 A 
ATOM     10  C   UNL     1       3.055   4.622  19.291  0.00  0.00    +0.000 A 
ATOM     11  C   UNL     1       2.653   4.053  18.090  0.00  0.00    +0.000 A 
ATOM     12  F   UNL     1       1.408   3.592  17.914  0.00  0.00    +0.000 F 
ATOM     13  C   UNL     1       3.562   3.907  17.041  0.00  0.00    +0.000 A 
ATOM     14  C   UNL     1       4.884   4.318  17.214  0.00  0.00    +0.000 A 
ATOM     15  N   UNL     1       5.780   4.245  16.144  0.00  0.00    +0.000 N 
ATOM     16  H   UNL     1       5.447   4.034  15.210  0.00  0.00    +0.000 HD
ENDBRANCH   1  10
BRANCH   1  17
ATOM     17  N   UNL     1       2.182   6.420  21.177  0.00  0.00    +0.000 N 
ATOM     18  H   UNL     1       3.098   6.464  21.625  0.00  0.00    +0.000 HD
BRANCH  17  19
ATOM     19  C   UNL     1       1.836   7.516  20.336  0.00  0.00    +0.000 A 
ATOM     20  C   UNL     1       2.300   7.517  19.016  0.00  0.00    +0.000 A 
ATOM     21  C   UNL     1       1.921   8.515  18.123  0.00  0.00    +0.000 A 
ATOM     22  C   UNL     1       1.090   9.561  18.536  0.00  0.00    +0.000 A 
ATOM     23  C   UNL     1       0.611   9.585  19.861  0.00  0.00    +0.000 A 
ATOM     24  C   UNL     1      -0.192  10.494  20.602  0.00  0.00    +0.000 A 
ATOM     25  C   UNL     1      -0.334   9.985  21.872  0.00  0.00    +0.000 A 
ATOM     26  N   UNL     1       0.336   8.794  21.929  0.00  0.00    +0.000 N 
ATOM     27  C   UNL     1       0.968   8.547  20.728  0.00  0.00    +0.000 A 
ATOM     28  H   UNL     1       0.383   8.175  22.731  0.00  0.00    +0.000 HD
ENDBRANCH  17  19
ENDBRANCH   1  17
TORSDOF 3
ENDMDL
MODEL 8
REMARK VINA RESULT:      -8.1      3.167      6.794
REMARK  Name = 
REMARK  3 active torsions:
REMARK  status: ('A' for Active; 'I' for Inactive)
REMARK    1  A    between atoms: C_7  and  S_8
REMARK    2  A    between atoms: S_8  and  N_11
REMARK    3  A    between atoms: N_11  and  C_12
REMARK                            x       y       z     vdW  Elec       q    Type
REMARK                         _______ _______ _______ _____ _____    ______ ____
ROOT
ATOM      1  S   UNL     1       5.820   4.781  19.249  0.00  0.00    +0.000 S 
ATOM      2  O   UNL     1       5.523   3.379  19.477  0.00  0.00    +0.000 OA
ATOM      3  O   UNL     1       6.802   5.461  20.064  0.00  0.00    +0.000 OA
ENDROOT
BRANCH   1  10
ATOM      4  O   UNL     1       7.512   4.450  11.434  0.00  0.00    +0.000 OA
ATOM      5  C   UNL     1       6.982   4.455  12.542  0.00  0.00    +0.000 C 
ATOM      6  C   UNL     1       5.711   3.694  12.837  0.00  0.00    +0.000 C 
ATOM      7  C   UNL     1       5.680   3.153  14.256  0.00  0.00    +0.000 C 
ATOM      8  C   UNL     1       6.139   4.172  15.260  0.00  0.00    +0.000 A 
ATOM      9  C   UNL     1       5.790   4.041  16.609  0.00  0.00    +0.000 A 
ATOM     10  C   UNL     1       6.271   4.963  17.546  0.00  0.00    +0.000 A 
ATOM     11  C   UNL     1       7.105   5.998  17.143  0.00  0.00    +0.000 A 
ATOM     12  F   UNL     1       7.529   6.931  18.005  0.00  0.00    +0.000 F 
ATOM     13  C   UNL     1       7.488   6.115  15.807  0.00  0.00    +0.000 A 
ATOM     14  C   UNL     1       7.011   5.196  14.872  0.00  0.00    +0.000 A 
ATOM     15  N   UNL     1       7.450   5.261  13.547  0.00  0.00    +0.000 N 
ATOM     16  H   UNL     1       8.215   5.874  13.290  0.00  0.00    +0.000 HD
ENDBRANCH   1  10
BRANCH   1  17
ATOM     17  N   UNL     1       4.376   5.643  19.415  0.00  0.00    +0.000 N 
ATOM     18  H   UNL     1       4.477   6.571  19.002  0.00  0.00    +0.000 HD
BRANCH  17  19
ATOM     19  C   UNL     1       3.151   4.965  19.156  0.00  0.00    +0.000 A 
ATOM     20  C   UNL     1       2.580   5.082  17.884  0.00  0.00    +0.000 A 
ATOM     21  C   UNL     1       1.432   4.371  17.544  0.00  0.00    +0.000 A 
ATOM     22  C   UNL     1       0.804   3.546  18.482  0.00  0.00    +0.000 A 
ATOM     23  C   UNL     1       1.357   3.412  19.771  0.00  0.00    +0.000 A 
ATOM     24  C   UNL     1       0.964   2.712  20.944  0.00  0.00    +0.000 A 
ATOM     25  C   UNL     1       1.911   2.956  21.911  0.00  0.00    +0.000 A 
ATOM     26  N   UNL     1       2.875   3.762  21.369  0.00  0.00    +0.000 N 
ATOM     27  C   UNL     1       2.536   4.101  20.075  0.00  0.00    +0.000 A 
ATOM     28  H   UNL     1       3.715   4.084  21.837  0.00  0.00    +0.000 HD
ENDBRANCH  17  19
ENDBRANCH   1  17
TORSDOF 3
ENDMDL
MODEL 9
REMARK VINA RESULT:      -8.1      2.663      4.676
REMARK  Name = 
REMARK  3 active torsions:
REMARK  status: ('A' for Active; 'I' for Inactive)
REMARK    1  A    between atoms: C_7  and  S_8
REMARK    2  A    between atoms: S_8  and  N_11
REMARK    3  A    between atoms: N_11  and  C_12
REMARK                            x       y       z     vdW  Elec       q    Type
REMARK                         _______ _______ _______ _____ _____    ______ ____
ROOT
ATOM      1  S   UNL     1       5.611   4.547  18.305  0.00  0.00    +0.000 S 
ATOM      2  O   UNL     1       6.546   4.750  17.213  0.00  0.00    +0.000 OA
ATOM      3  O   UNL     1       6.095   4.365  19.656  0.00  0.00    +0.000 OA
ENDROOT
BRANCH   1  10
ATOM      4  O   UNL     1      -0.137  10.056  19.114  0.00  0.00    +0.000 OA
ATOM      5  C   UNL     1       0.810   9.287  19.261  0.00  0.00    +0.000 C 
ATOM      6  C   UNL     1       1.217   8.750  20.612  0.00  0.00    +0.000 C 
ATOM      7  C   UNL     1       1.752   7.331  20.531  0.00  0.00    +0.000 C 
ATOM      8  C   UNL     1       2.709   7.152  19.386  0.00  0.00    +0.000 A 
ATOM      9  C   UNL     1       3.619   6.090  19.386  0.00  0.00    +0.000 A 
ATOM     10  C   UNL     1       4.466   5.898  18.288  0.00  0.00    +0.000 A 
ATOM     11  C   UNL     1       4.395   6.749  17.193  0.00  0.00    +0.000 A 
ATOM     12  F   UNL     1       5.234   6.629  16.156  0.00  0.00    +0.000 F 
ATOM     13  C   UNL     1       3.465   7.789  17.169  0.00  0.00    +0.000 A 
ATOM     14  C   UNL     1       2.619   7.981  18.261  0.00  0.00    +0.000 A 
ATOM     15  N   UNL     1       1.635   8.972  18.213  0.00  0.00    +0.000 N 
ATOM     16  H   UNL     1       1.435   9.453  17.343  0.00  0.00    +0.000 HD
ENDBRANCH   1  10
BRANCH   1  17
ATOM     17  N   UNL     1       4.685   3.181  17.938  0.00  0.00    +0.000 N 
ATOM     18  H   UNL     1       5.215   2.336  18.150  0.00  0.00    +0.000 HD
BRANCH  17  19
ATOM     19  C   UNL     1       3.311   3.177  18.312  0.00  0.00    +0.000 A 
ATOM     20  C   UNL     1       2.347   3.382  17.318  0.00  0.00    +0.000 A 
ATOM     21  C   UNL     1       0.989   3.301  17.607  0.00  0.00    +0.000 A 
ATOM     22  C   UNL     1       0.554   3.043  18.910  0.00  0.00    +0.000 A 
ATOM     23  C   UNL     1       1.503   2.835  19.931  0.00  0.00    +0.000 A 
ATOM     24  C   UNL     1       1.409   2.599  21.329  0.00  0.00    +0.000 A 
ATOM     25  C   UNL     1       2.689   2.471  21.816  0.00  0.00    +0.000 A 
ATOM     26  N   UNL     1       3.558   2.601  20.767  0.00  0.00    +0.000 N 
ATOM     27  C   UNL     1       2.863   2.877  19.607  0.00  0.00    +0.000 A 
ATOM     28  H   UNL     1       4.568   2.523  20.817  0.00  0.00    +0.000 HD
ENDBRANCH  17  19
ENDBRANCH   1  17
TORSDOF 3
ENDMDL
