MODEL 1
REMARK VINA RESULT:      -8.6      0.000      0.000
REMARK  Name = 
REMARK  7 active torsions:
REMARK  status: ('A' for Active; 'I' for Inactive)
REMARK    1  A    between atoms: C_1  and  N_2
REMARK    2  A    between atoms: C_6  and  C_7
REMARK    3  A    between atoms: C_7  and  C_8
REMARK    4  A    between atoms: C_9  and  C_10
REMARK    5  A    between atoms: C_10  and  C_11
REMARK    6  A    between atoms: C_13  and  N_14
REMARK    7  A    between atoms: C_21  and  C_22
REMARK                            x       y       z     vdW  Elec       q    Type
REMARK                         _______ _______ _______ _____ _____    ______ ____
ROOT
ATOM      1  C   UNL     1       7.696   7.865  17.842  0.00  0.00    +0.000 A 
ATOM      2  C   UNL     1       6.476   7.293  17.562  0.00  0.00    +0.000 A 
ATOM      3  C   UNL     1       6.400   6.098  18.320  0.00  0.00    +0.000 A 
ATOM      4  C   UNL     1       7.598   6.019  19.001  0.00  0.00    +0.000 A 
ATOM      5  O   UNL     1       8.387   7.086  18.722  0.00  0.00    +0.000 OA
ENDROOT
BRANCH   3   6
ATOM      6  N   UNL     1       5.365   5.177  18.387  0.00  0.00    +0.000 N 
ATOM      7  C   UNL     1       4.354   5.142  19.429  0.00  0.00    +0.000 C 
ATOM      8  C   UNL     1       3.493   3.984  19.036  0.00  0.00    +0.000 A 
ATOM      9  C   UNL     1       3.995   3.411  17.867  0.00  0.00    +0.000 A 
ATOM     10  C   UNL     1       3.421   2.308  17.265  0.00  0.00    +0.000 A 
ATOM     11  C   UNL     1       2.293   1.763  17.870  0.00  0.00    +0.000 A 
ATOM     12  C   UNL     1       1.765   2.335  19.046  0.00  0.00    +0.000 A 
ATOM     13  C   UNL     1       2.358   3.464  19.649  0.00  0.00    +0.000 A 
ATOM     14  C   UNL     1       5.176   4.170  17.441  0.00  0.00    +0.000 C 
ATOM     15  O   UNL     1       5.804   3.894  16.436  0.00  0.00    +0.000 OA
BRANCH  13  16
ATOM     16  C   UNL     1       1.756   4.059  20.895  0.00  0.00    +0.000 C 
ATOM     17  F   UNL     1       1.271   5.321  20.715  0.00  0.00    +0.000 F 
ATOM     18  F   UNL     1       0.712   3.327  21.367  0.00  0.00    +0.000 F 
ATOM     19  F   UNL     1       2.650   4.149  21.915  0.00  0.00    +0.000 F 
ENDBRANCH  13  16
ENDBRANCH   3   6
BRANCH   1  20
ATOM     20  C   UNL     1       8.359   9.100  17.371  0.00  0.00    +0.000 C 
BRANCH  20  22
ATOM     21  C   UNL     1       9.399  10.530  19.572  0.00  0.00    +0.000 C 
ATOM     22  C   UNL     1       8.918   9.869  18.556  0.00  0.00    +0.000 C 
BRANCH  21  23
ATOM     23  C   UNL     1       9.958  11.299  20.758  0.00  0.00    +0.000 C 
BRANCH  23  29
ATOM     24  C   UNL     1       8.839  14.300  20.499  0.00  0.00    +0.000 C 
ATOM     25  N   UNL     1      10.153  13.808  20.181  0.00  0.00    +0.000 N 
ATOM     26  C   UNL     1      11.167  14.588  19.707  0.00  0.00    +0.000 A 
ATOM     27  N   UNL     1      12.245  13.861  19.545  0.00  0.00    +0.000 NA
ATOM     28  N   UNL     1      11.931  12.573  19.910  0.00  0.00    +0.000 NA
ATOM     29  C   UNL     1      10.665  12.533  20.284  0.00  0.00    +0.000 A 
ENDBRANCH  23  29
ENDBRANCH  21  23
ENDBRANCH  20  22
ENDBRANCH   1  20
TORSDOF 6
ENDMDL
MODEL 2
REMARK VINA RESULT:      -8.6      0.550      1.317
REMARK  Name = 
REMARK  7 active torsions:
REMARK  status: ('A' for Active; 'I' for Inactive)
REMARK    1  A    between atoms: C_1  and  N_2
REMARK    2  A    between atoms: C_6  and  C_7
REMARK    3  A    between atoms: C_7  and  C_8
REMARK    4  A    between atoms: C_9  and  C_10
REMARK    5  A    between atoms: C_10  and  C_11
REMARK    6  A    between atoms: C_13  and  N_14
REMARK    7  A    between atoms: C_21  and  C_22
REMARK                            x       y       z     vdW  Elec       q    Type
REMARK                         _______ _______ _______ _____ _____    ______ ____
ROOT
ATOM      1  C   UNL     1       7.714   7.962  17.838  0.00  0.00    +0.000 A 
ATOM      2  C   UNL     1       6.492   7.389  17.562  0.00  0.00    +0.000 A 
ATOM      3  C   UNL     1       6.432   6.179  18.298  0.00  0.00    +0.000 A 
ATOM      4  C   UNL     1       7.638   6.092  18.962  0.00  0.00    +0.000 A 
ATOM      5  O   UNL     1       8.419   7.169  18.694  0.00  0.00    +0.000 OA
ENDROOT
BRANCH   3   6
ATOM      6  N   UNL     1       5.402   5.253  18.360  0.00  0.00    +0.000 N 
ATOM      7  C   UNL     1       4.368   5.230  19.381  0.00  0.00    +0.000 C 
ATOM      8  C   UNL     1       3.523   4.060  18.991  0.00  0.00    +0.000 A 
ATOM      9  C   UNL     1       4.054   3.469  17.844  0.00  0.00    +0.000 A 
ATOM     10  C   UNL     1       3.500   2.351  17.250  0.00  0.00    +0.000 A 
ATOM     11  C   UNL     1       2.363   1.810  17.842  0.00  0.00    +0.000 A 
ATOM     12  C   UNL     1       1.806   2.399  18.995  0.00  0.00    +0.000 A 
ATOM     13  C   UNL     1       2.379   3.543  19.589  0.00  0.00    +0.000 A 
ATOM     14  C   UNL     1       5.239   4.227  17.429  0.00  0.00    +0.000 C 
ATOM     15  O   UNL     1       5.890   3.937  16.442  0.00  0.00    +0.000 OA
BRANCH  13  16
ATOM     16  C   UNL     1       1.747   4.157  20.811  0.00  0.00    +0.000 C 
ATOM     17  F   UNL     1       2.593   4.237  21.878  0.00  0.00    +0.000 F 
ATOM     18  F   UNL     1       1.315   5.427  20.588  0.00  0.00    +0.000 F 
ATOM     19  F   UNL     1       0.666   3.458  21.247  0.00  0.00    +0.000 F 
ENDBRANCH  13  16
ENDBRANCH   3   6
BRANCH   1  20
ATOM     20  C   UNL     1       8.366   9.208  17.382  0.00  0.00    +0.000 C 
BRANCH  20  22
ATOM     21  C   UNL     1       9.339  10.647  19.609  0.00  0.00    +0.000 C 
ATOM     22  C   UNL     1       8.891   9.982  18.580  0.00  0.00    +0.000 C 
BRANCH  21  23
ATOM     23  C   UNL     1       9.863  11.422  20.806  0.00  0.00    +0.000 C 
BRANCH  23  29
ATOM     24  C   UNL     1      12.333  12.746  19.234  0.00  0.00    +0.000 C 
ATOM     25  N   UNL     1      11.161  13.394  19.762  0.00  0.00    +0.000 N 
ATOM     26  C   UNL     1      10.916  14.732  19.658  0.00  0.00    +0.000 A 
ATOM     27  N   UNL     1       9.758  15.012  20.205  0.00  0.00    +0.000 NA
ATOM     28  N   UNL     1       9.237  13.836  20.690  0.00  0.00    +0.000 NA
ATOM     29  C   UNL     1      10.086  12.857  20.435  0.00  0.00    +0.000 A 
ENDBRANCH  23  29
ENDBRANCH  21  23
ENDBRANCH  20  22
ENDBRANCH   1  20
TORSDOF 6
ENDMDL
MODEL 3
REMARK VINA RESULT:      -8.2      1.236      1.887
REMARK  Name = 
REMARK  7 active torsions:
REMARK  status: ('A' for Active; 'I' for Inactive)
REMARK    1  A    between atoms: C_1  and  N_2
REMARK    2  A    between atoms: C_6  and  C_7
REMARK    3  A    between atoms: C_7  and  C_8
REMARK    4  A    between atoms: C_9  and  C_10
REMARK    5  A    between atoms: C_10  and  C_11
REMARK    6  A    between atoms: C_13  and  N_14
REMARK    7  A    between atoms: C_21  and  C_22
REMARK                            x       y       z     vdW  Elec       q    Type
REMARK                         _______ _______ _______ _____ _____    ______ ____
ROOT
ATOM      1  C   UNL     1       7.720   8.103  17.814  0.00  0.00    +0.000 A 
ATOM      2  C   UNL     1       6.498   7.522  17.556  0.00  0.00    +0.000 A 
ATOM      3  C   UNL     1       6.473   6.293  18.261  0.00  0.00    +0.000 A 
ATOM      4  C   UNL     1       7.698   6.205  18.891  0.00  0.00    +0.000 A 
ATOM      5  O   UNL     1       8.458   7.298  18.630  0.00  0.00    +0.000 OA
ENDROOT
BRANCH   3   6
ATOM      6  N   UNL     1       5.457   5.352  18.327  0.00  0.00    +0.000 N 
ATOM      7  C   UNL     1       4.410   5.331  19.334  0.00  0.00    +0.000 C 
ATOM      8  C   UNL     1       3.589   4.140  18.955  0.00  0.00    +0.000 A 
ATOM      9  C   UNL     1       4.145   3.537  17.826  0.00  0.00    +0.000 A 
ATOM     10  C   UNL     1       3.616   2.400  17.246  0.00  0.00    +0.000 A 
ATOM     11  C   UNL     1       2.479   1.851  17.833  0.00  0.00    +0.000 A 
ATOM     12  C   UNL     1       1.898   2.453  18.967  0.00  0.00    +0.000 A 
ATOM     13  C   UNL     1       2.444   3.617  19.547  0.00  0.00    +0.000 A 
ATOM     14  C   UNL     1       5.323   4.306  17.413  0.00  0.00    +0.000 C 
ATOM     15  O   UNL     1       5.992   4.008  16.441  0.00  0.00    +0.000 OA
BRANCH  13  16
ATOM     16  C   UNL     1       1.786   4.243  20.749  0.00  0.00    +0.000 C 
ATOM     17  F   UNL     1       2.558   4.206  21.872  0.00  0.00    +0.000 F 
ATOM     18  F   UNL     1       1.487   5.555  20.551  0.00  0.00    +0.000 F 
ATOM     19  F   UNL     1       0.618   3.633  21.082  0.00  0.00    +0.000 F 
ENDBRANCH  13  16
ENDBRANCH   3   6
BRANCH   1  20
ATOM     20  C   UNL     1       8.343   9.369  17.374  0.00  0.00    +0.000 C 
BRANCH  20  22
ATOM     21  C   UNL     1       9.525  10.674  19.581  0.00  0.00    +0.000 C 
ATOM     22  C   UNL     1       8.979  10.071  18.562  0.00  0.00    +0.000 C 
BRANCH  21  23
ATOM     23  C   UNL     1      10.161  11.376  20.770  0.00  0.00    +0.000 C 
BRANCH  23  29
ATOM     24  C   UNL     1       9.693  14.535  21.131  0.00  0.00    +0.000 C 
ATOM     25  N   UNL     1       8.941  13.450  21.706  0.00  0.00    +0.000 N 
ATOM     26  C   UNL     1       7.862  13.617  22.523  0.00  0.00    +0.000 A 
ATOM     27  N   UNL     1       7.374  12.447  22.856  0.00  0.00    +0.000 NA
ATOM     28  N   UNL     1       8.157  11.490  22.255  0.00  0.00    +0.000 NA
ATOM     29  C   UNL     1       9.112  12.090  21.568  0.00  0.00    +0.000 A 
ENDBRANCH  23  29
ENDBRANCH  21  23
ENDBRANCH  20  22
ENDBRANCH   1  20
TORSDOF 6
ENDMDL
MODEL 4
REMARK VINA RESULT:      -8.1      7.217      9.376
REMARK  Name = 
REMARK  7 active torsions:
REMARK  status: ('A' for Active; 'I' for Inactive)
REMARK    1  A    between atoms: C_1  and  N_2
REMARK    2  A    between atoms: C_6  and  C_7
REMARK    3  A    between atoms: C_7  and  C_8
REMARK    4  A    between atoms: C_9  and  C_10
REMARK    5  A    between atoms: C_10  and  C_11
REMARK    6  A    between atoms: C_13  and  N_14
REMARK    7  A    between atoms: C_21  and  C_22
REMARK                            x       y       z     vdW  Elec       q    Type
REMARK                         _______ _______ _______ _____ _____    ______ ____
ROOT
ATOM      1  C   UNL     1       0.613   9.042  21.927  0.00  0.00    +0.000 A 
ATOM      2  C   UNL     1       1.321   7.904  21.612  0.00  0.00    +0.000 A 
ATOM      3  C   UNL     1       1.617   7.976  20.228  0.00  0.00    +0.000 A 
ATOM      4  C   UNL     1       1.049   9.155  19.791  0.00  0.00    +0.000 A 
ATOM      5  O   UNL     1       0.442   9.810  20.813  0.00  0.00    +0.000 OA
ENDROOT
BRANCH   3   6
ATOM      6  N   UNL     1       2.321   7.074  19.443  0.00  0.00    +0.000 N 
ATOM      7  C   UNL     1       2.389   5.643  19.684  0.00  0.00    +0.000 C 
ATOM      8  C   UNL     1       3.254   5.146  18.570  0.00  0.00    +0.000 A 
ATOM      9  C   UNL     1       3.646   6.224  17.774  0.00  0.00    +0.000 A 
ATOM     10  C   UNL     1       4.468   6.083  16.672  0.00  0.00    +0.000 A 
ATOM     11  C   UNL     1       4.909   4.800  16.363  0.00  0.00    +0.000 A 
ATOM     12  C   UNL     1       4.514   3.698  17.149  0.00  0.00    +0.000 A 
ATOM     13  C   UNL     1       3.672   3.854  18.269  0.00  0.00    +0.000 A 
ATOM     14  C   UNL     1       3.049   7.449  18.314  0.00  0.00    +0.000 C 
ATOM     15  O   UNL     1       3.215   8.540  17.800  0.00  0.00    +0.000 OA
BRANCH  13  16
ATOM     16  C   UNL     1       3.256   2.652  19.076  0.00  0.00    +0.000 C 
ATOM     17  F   UNL     1       3.625   2.724  20.387  0.00  0.00    +0.000 F 
ATOM     18  F   UNL     1       1.908   2.474  19.082  0.00  0.00    +0.000 F 
ATOM     19  F   UNL     1       3.791   1.495  18.603  0.00  0.00    +0.000 F 
ENDBRANCH  13  16
ENDBRANCH   3   6
BRANCH   1  20
ATOM     20  C   UNL     1       0.023   9.543  23.186  0.00  0.00    +0.000 C 
BRANCH  20  22
ATOM     21  C   UNL     1      -1.687  11.723  22.644  0.00  0.00    +0.000 C 
ATOM     22  C   UNL     1      -0.897  10.717  22.893  0.00  0.00    +0.000 C 
BRANCH  21  23
ATOM     23  C   UNL     1      -2.608  12.897  22.351  0.00  0.00    +0.000 C 
BRANCH  23  29
ATOM     24  C   UNL     1      -5.502  14.144  21.719  0.00  0.00    +0.000 C 
ATOM     25  N   UNL     1      -5.113  13.305  22.822  0.00  0.00    +0.000 N 
ATOM     26  C   UNL     1      -5.965  12.892  23.804  0.00  0.00    +0.000 A 
ATOM     27  N   UNL     1      -5.327  12.116  24.646  0.00  0.00    +0.000 NA
ATOM     28  N   UNL     1      -4.024  12.026  24.215  0.00  0.00    +0.000 NA
ATOM     29  C   UNL     1      -3.887  12.752  23.119  0.00  0.00    +0.000 A 
ENDBRANCH  23  29
ENDBRANCH  21  23
ENDBRANCH  20  22
ENDBRANCH   1  20
TORSDOF 6
ENDMDL
MODEL 5
REMARK VINA RESULT:      -8.0      7.420      9.514
REMARK  Name = 
REMARK  7 active torsions:
REMARK  status: ('A' for Active; 'I' for Inactive)
REMARK    1  A    between atoms: C_1  and  N_2
REMARK    2  A    between atoms: C_6  and  C_7
REMARK    3  A    between atoms: C_7  and  C_8
REMARK    4  A    between atoms: C_9  and  C_10
REMARK    5  A    between atoms: C_10  and  C_11
REMARK    6  A    between atoms: C_13  and  N_14
REMARK    7  A    between atoms: C_21  and  C_22
REMARK                            x       y       z     vdW  Elec       q    Type
REMARK                         _______ _______ _______ _____ _____    ______ ____
ROOT
ATOM      1  C   UNL     1       0.663   9.149  21.740  0.00  0.00    +0.000 A 
ATOM      2  C   UNL     1       1.243   7.925  21.488  0.00  0.00    +0.000 A 
ATOM      3  C   UNL     1       1.650   7.937  20.130  0.00  0.00    +0.000 A 
ATOM      4  C   UNL     1       1.273   9.172  19.644  0.00  0.00    +0.000 A 
ATOM      5  O   UNL     1       0.679   9.914  20.612  0.00  0.00    +0.000 OA
ENDROOT
BRANCH   3   6
ATOM      6  N   UNL     1       2.291   6.941  19.408  0.00  0.00    +0.000 N 
ATOM      7  C   UNL     1       3.246   7.176  18.339  0.00  0.00    +0.000 C 
ATOM      8  C   UNL     1       3.629   5.796  17.908  0.00  0.00    +0.000 A 
ATOM      9  C   UNL     1       2.930   4.862  18.676  0.00  0.00    +0.000 A 
ATOM     10  C   UNL     1       3.061   3.498  18.500  0.00  0.00    +0.000 A 
ATOM     11  C   UNL     1       3.934   3.061  17.508  0.00  0.00    +0.000 A 
ATOM     12  C   UNL     1       4.656   3.989  16.730  0.00  0.00    +0.000 A 
ATOM     13  C   UNL     1       4.517   5.380  16.922  0.00  0.00    +0.000 A 
ATOM     14  C   UNL     1       2.088   5.580  19.638  0.00  0.00    +0.000 C 
ATOM     15  O   UNL     1       1.382   5.006  20.446  0.00  0.00    +0.000 OA
BRANCH  13  16
ATOM     16  C   UNL     1       5.318   6.343  16.085  0.00  0.00    +0.000 C 
ATOM     17  F   UNL     1       4.547   7.190  15.346  0.00  0.00    +0.000 F 
ATOM     18  F   UNL     1       6.123   7.138  16.839  0.00  0.00    +0.000 F 
ATOM     19  F   UNL     1       6.130   5.712  15.197  0.00  0.00    +0.000 F 
ENDBRANCH  13  16
ENDBRANCH   3   6
BRANCH   1  20
ATOM     20  C   UNL     1       0.048   9.740  22.947  0.00  0.00    +0.000 C 
BRANCH  20  22
ATOM     21  C   UNL     1      -1.615  11.900  22.214  0.00  0.00    +0.000 C 
ATOM     22  C   UNL     1      -0.848  10.902  22.552  0.00  0.00    +0.000 C 
BRANCH  21  23
ATOM     23  C   UNL     1      -2.512  13.062  21.819  0.00  0.00    +0.000 C 
BRANCH  23  29
ATOM     24  C   UNL     1      -3.426  14.154  24.700  0.00  0.00    +0.000 C 
ATOM     25  N   UNL     1      -4.202  13.417  23.737  0.00  0.00    +0.000 N 
ATOM     26  C   UNL     1      -5.508  13.065  23.918  0.00  0.00    +0.000 A 
ATOM     27  N   UNL     1      -5.946  12.432  22.857  0.00  0.00    +0.000 NA
ATOM     28  N   UNL     1      -4.903  12.356  21.964  0.00  0.00    +0.000 NA
ATOM     29  C   UNL     1      -3.843  12.940  22.496  0.00  0.00    +0.000 A 
ENDBRANCH  23  29
ENDBRANCH  21  23
ENDBRANCH  20  22
ENDBRANCH   1  20
TORSDOF 6
ENDMDL
MODEL 6
REMARK VINA RESULT:      -8.0      7.353      9.580
REMARK  Name = 
REMARK  7 active torsions:
REMARK  status: ('A' for Active; 'I' for Inactive)
REMARK    1  A    between atoms: C_1  and  N_2
REMARK    2  A    between atoms: C_6  and  C_7
REMARK    3  A    between atoms: C_7  and  C_8
REMARK    4  A    between atoms: C_9  and  C_10
REMARK    5  A    between atoms: C_10  and  C_11
REMARK    6  A    between atoms: C_13  and  N_14
REMARK    7  A    between atoms: C_21  and  C_22
REMARK                            x       y       z     vdW  Elec       q    Type
REMARK                         _______ _______ _______ _____ _____    ______ ____
ROOT
ATOM      1  C   UNL     1       0.645   9.030  21.872  0.00  0.00    +0.000 A 
ATOM      2  C   UNL     1       1.199   7.804  21.576  0.00  0.00    +0.000 A 
ATOM      3  C   UNL     1       1.640   7.868  20.230  0.00  0.00    +0.000 A 
ATOM      4  C   UNL     1       1.306   9.134  19.794  0.00  0.00    +0.000 A 
ATOM      5  O   UNL     1       0.707   9.846  20.782  0.00  0.00    +0.000 OA
ENDROOT
BRANCH   3   6
ATOM      6  N   UNL     1       2.273   6.890  19.477  0.00  0.00    +0.000 N 
ATOM      7  C   UNL     1       3.214   7.151  18.402  0.00  0.00    +0.000 C 
ATOM      8  C   UNL     1       3.593   5.782  17.935  0.00  0.00    +0.000 A 
ATOM      9  C   UNL     1       2.906   4.830  18.689  0.00  0.00    +0.000 A 
ATOM     10  C   UNL     1       3.036   3.471  18.480  0.00  0.00    +0.000 A 
ATOM     11  C   UNL     1       3.897   3.058  17.467  0.00  0.00    +0.000 A 
ATOM     12  C   UNL     1       4.608   4.005  16.703  0.00  0.00    +0.000 A 
ATOM     13  C   UNL     1       4.470   5.390  16.928  0.00  0.00    +0.000 A 
ATOM     14  C   UNL     1       2.075   5.524  19.679  0.00  0.00    +0.000 C 
ATOM     15  O   UNL     1       1.380   4.930  20.482  0.00  0.00    +0.000 OA
BRANCH  13  16
ATOM     16  C   UNL     1       5.258   6.374  16.104  0.00  0.00    +0.000 C 
ATOM     17  F   UNL     1       6.084   7.166  16.845  0.00  0.00    +0.000 F 
ATOM     18  F   UNL     1       6.059   5.760  15.191  0.00  0.00    +0.000 F 
ATOM     19  F   UNL     1       4.463   7.223  15.401  0.00  0.00    +0.000 F 
ENDBRANCH  13  16
ENDBRANCH   3   6
BRANCH   1  20
ATOM     20  C   UNL     1       0.016   9.580  23.091  0.00  0.00    +0.000 C 
BRANCH  20  22
ATOM     21  C   UNL     1      -1.575  11.815  22.422  0.00  0.00    +0.000 C 
ATOM     22  C   UNL     1      -0.840  10.783  22.730  0.00  0.00    +0.000 C 
BRANCH  21  23
ATOM     23  C   UNL     1      -2.431  13.018  22.061  0.00  0.00    +0.000 C 
BRANCH  23  29
ATOM     24  C   UNL     1      -5.203  13.456  20.494  0.00  0.00    +0.000 C 
ATOM     25  N   UNL     1      -5.004  13.018  21.851  0.00  0.00    +0.000 N 
ATOM     26  C   UNL     1      -6.018  12.702  22.708  0.00  0.00    +0.000 A 
ATOM     27  N   UNL     1      -5.521  12.308  23.854  0.00  0.00    +0.000 NA
ATOM     28  N   UNL     1      -4.151  12.377  23.754  0.00  0.00    +0.000 NA
ATOM     29  C   UNL     1      -3.834  12.816  22.549  0.00  0.00    +0.000 A 
ENDBRANCH  23  29
ENDBRANCH  21  23
ENDBRANCH  20  22
ENDBRANCH   1  20
TORSDOF 6
ENDMDL
MODEL 7
REMARK VINA RESULT:      -7.8      7.971     10.442
REMARK  Name = 
REMARK  7 active torsions:
REMARK  status: ('A' for Active; 'I' for Inactive)
REMARK    1  A    between atoms: C_1  and  N_2
REMARK    2  A    between atoms: C_6  and  C_7
REMARK    3  A    between atoms: C_7  and  C_8
REMARK    4  A    between atoms: C_9  and  C_10
REMARK    5  A    between atoms: C_10  and  C_11
REMARK    6  A    between atoms: C_13  and  N_14
REMARK    7  A    between atoms: C_21  and  C_22
REMARK                            x       y       z     vdW  Elec       q    Type
REMARK                         _______ _______ _______ _____ _____    ______ ____
ROOT
ATOM      1  C   UNL     1      -0.337  10.614  22.065  0.00  0.00    +0.000 A 
ATOM      2  C   UNL     1       0.209   9.351  22.003  0.00  0.00    +0.000 A 
ATOM      3  C   UNL     1       0.742   9.199  20.698  0.00  0.00    +0.000 A 
ATOM      4  C   UNL     1       0.465  10.384  20.048  0.00  0.00    +0.000 A 
ATOM      5  O   UNL     1      -0.184  11.248  20.868  0.00  0.00    +0.000 OA
ENDROOT
BRANCH   3   6
ATOM      6  N   UNL     1       1.403   8.108  20.153  0.00  0.00    +0.000 N 
ATOM      7  C   UNL     1       1.408   6.772  20.723  0.00  0.00    +0.000 C 
ATOM      8  C   UNL     1       2.247   5.990  19.764  0.00  0.00    +0.000 A 
ATOM      9  C   UNL     1       2.684   6.833  18.741  0.00  0.00    +0.000 A 
ATOM     10  C   UNL     1       3.495   6.401  17.709  0.00  0.00    +0.000 A 
ATOM     11  C   UNL     1       3.879   5.063  17.712  0.00  0.00    +0.000 A 
ATOM     12  C   UNL     1       3.438   4.195  18.732  0.00  0.00    +0.000 A 
ATOM     13  C   UNL     1       2.606   4.647  19.778  0.00  0.00    +0.000 A 
ATOM     14  C   UNL     1       2.143   8.176  18.972  0.00  0.00    +0.000 C 
ATOM     15  O   UNL     1       2.356   9.107  18.219  0.00  0.00    +0.000 OA
BRANCH  13  16
ATOM     16  C   UNL     1       2.140   3.687  20.841  0.00  0.00    +0.000 C 
ATOM     17  F   UNL     1       0.786   3.525  20.870  0.00  0.00    +0.000 F 
ATOM     18  F   UNL     1       2.657   2.440  20.676  0.00  0.00    +0.000 F 
ATOM     19  F   UNL     1       2.493   4.083  22.092  0.00  0.00    +0.000 F 
ENDBRANCH  13  16
ENDBRANCH   3   6
BRANCH   1  20
ATOM     20  C   UNL     1      -1.036  11.355  23.136  0.00  0.00    +0.000 C 
BRANCH  20  22
ATOM     21  C   UNL     1      -3.370  12.561  22.100  0.00  0.00    +0.000 C 
ATOM     22  C   UNL     1      -2.292  12.003  22.578  0.00  0.00    +0.000 C 
BRANCH  21  23
ATOM     23  C   UNL     1      -4.626  13.210  21.543  0.00  0.00    +0.000 C 
BRANCH  23  29
ATOM     24  C   UNL     1      -7.533  12.466  20.392  0.00  0.00    +0.000 C 
ATOM     25  N   UNL     1      -7.069  12.403  21.753  0.00  0.00    +0.000 N 
ATOM     26  C   UNL     1      -7.837  11.991  22.803  0.00  0.00    +0.000 A 
ATOM     27  N   UNL     1      -7.128  12.014  23.905  0.00  0.00    +0.000 NA
ATOM     28  N   UNL     1      -5.870  12.462  23.575  0.00  0.00    +0.000 NA
ATOM     29  C   UNL     1      -5.833  12.710  22.277  0.00  0.00    +0.000 A 
ENDBRANCH  23  29
ENDBRANCH  21  23
ENDBRANCH  20  22
ENDBRANCH   1  20
TORSDOF 6
ENDMDL
MODEL 8
REMARK VINA RESULT:      -7.8      7.706      9.491
REMARK  Name = 
REMARK  7 active torsions:
REMARK  status: ('A' for Active; 'I' for Inactive)
REMARK    1  A    between atoms: C_1  and  N_2
REMARK    2  A    between atoms: C_6  and  C_7
REMARK    3  A    between atoms: C_7  and  C_8
REMARK    4  A    between atoms: C_9  and  C_10
REMARK    5  A    between atoms: C_10  and  C_11
REMARK    6  A    between atoms: C_13  and  N_14
REMARK    7  A    between atoms: C_21  and  C_22
REMARK                            x       y       z     vdW  Elec       q    Type
REMARK                         _______ _______ _______ _____ _____    ______ ____
ROOT
ATOM      1  C   UNL     1       0.472  10.740  21.042  0.00  0.00    +0.000 A 
ATOM      2  C   UNL     1       0.793   9.860  20.033  0.00  0.00    +0.000 A 
ATOM      3  C   UNL     1       1.355   8.715  20.652  0.00  0.00    +0.000 A 
ATOM      4  C   UNL     1       1.350   8.989  22.005  0.00  0.00    +0.000 A 
ATOM      5  O   UNL     1       0.813  10.211  22.251  0.00  0.00    +0.000 OA
ENDROOT
BRANCH   3   6
ATOM      6  N   UNL     1       1.823   7.551  20.061  0.00  0.00    +0.000 N 
ATOM      7  C   UNL     1       1.657   6.217  20.611  0.00  0.00    +0.000 C 
ATOM      8  C   UNL     1       2.328   5.341  19.603  0.00  0.00    +0.000 A 
ATOM      9  C   UNL     1       2.838   6.131  18.572  0.00  0.00    +0.000 A 
ATOM     10  C   UNL     1       3.530   5.607  17.496  0.00  0.00    +0.000 A 
ATOM     11  C   UNL     1       3.712   4.228  17.463  0.00  0.00    +0.000 A 
ATOM     12  C   UNL     1       3.195   3.413  18.490  0.00  0.00    +0.000 A 
ATOM     13  C   UNL     1       2.487   3.959  19.581  0.00  0.00    +0.000 A 
ATOM     14  C   UNL     1       2.511   7.534  18.848  0.00  0.00    +0.000 C 
ATOM     15  O   UNL     1       2.824   8.439  18.097  0.00  0.00    +0.000 OA
BRANCH  13  16
ATOM     16  C   UNL     1       1.933   3.056  20.652  0.00  0.00    +0.000 C 
ATOM     17  F   UNL     1       0.618   3.286  20.929  0.00  0.00    +0.000 F 
ATOM     18  F   UNL     1       2.014   1.741  20.314  0.00  0.00    +0.000 F 
ATOM     19  F   UNL     1       2.588   3.186  21.835  0.00  0.00    +0.000 F 
ENDBRANCH  13  16
ENDBRANCH   3   6
BRANCH   1  20
ATOM     20  C   UNL     1      -0.130  12.090  21.044  0.00  0.00    +0.000 C 
BRANCH  20  22
ATOM     21  C   UNL     1      -2.299  12.169  22.851  0.00  0.00    +0.000 C 
ATOM     22  C   UNL     1      -1.297  12.132  22.017  0.00  0.00    +0.000 C 
BRANCH  21  23
ATOM     23  C   UNL     1      -3.465  12.212  23.824  0.00  0.00    +0.000 C 
BRANCH  23  29
ATOM     24  C   UNL     1      -4.235  15.318  24.125  0.00  0.00    +0.000 C 
ATOM     25  N   UNL     1      -4.918  14.298  23.373  0.00  0.00    +0.000 N 
ATOM     26  C   UNL     1      -6.044  14.518  22.636  0.00  0.00    +0.000 A 
ATOM     27  N   UNL     1      -6.409  13.408  22.043  0.00  0.00    +0.000 NA
ATOM     28  N   UNL     1      -5.510  12.434  22.407  0.00  0.00    +0.000 NA
ATOM     29  C   UNL     1      -4.613  12.964  23.220  0.00  0.00    +0.000 A 
ENDBRANCH  23  29
ENDBRANCH  21  23
ENDBRANCH  20  22
ENDBRANCH   1  20
TORSDOF 6
ENDMDL
MODEL 9
REMARK VINA RESULT:      -7.8      7.154      9.428
REMARK  Name = 
REMARK  7 active torsions:
REMARK  status: ('A' for Active; 'I' for Inactive)
REMARK    1  A    between atoms: C_1  and  N_2
REMARK    2  A    between atoms: C_6  and  C_7
REMARK    3  A    between atoms: C_7  and  C_8
REMARK    4  A    between atoms: C_9  and  C_10
REMARK    5  A    between atoms: C_10  and  C_11
REMARK    6  A    between atoms: C_13  and  N_14
REMARK    7  A    between atoms: C_21  and  C_22
REMARK                            x       y       z     vdW  Elec       q    Type
REMARK                         _______ _______ _______ _____ _____    ______ ____
ROOT
ATOM      1  C   UNL     1       0.429   9.260  21.883  0.00  0.00    +0.000 A 
ATOM      2  C   UNL     1       1.109   8.095  21.601  0.00  0.00    +0.000 A 
ATOM      3  C   UNL     1       1.509   8.173  20.244  0.00  0.00    +0.000 A 
ATOM      4  C   UNL     1       1.026   9.382  19.787  0.00  0.00    +0.000 A 
ATOM      5  O   UNL     1       0.375  10.049  20.773  0.00  0.00    +0.000 OA
ENDROOT
BRANCH   3   6
ATOM      6  N   UNL     1       2.228   7.251  19.498  0.00  0.00    +0.000 N 
ATOM      7  C   UNL     1       2.317   5.832  19.796  0.00  0.00    +0.000 C 
ATOM      8  C   UNL     1       3.193   5.304  18.705  0.00  0.00    +0.000 A 
ATOM      9  C   UNL     1       3.571   6.354  17.867  0.00  0.00    +0.000 A 
ATOM     10  C   UNL     1       4.397   6.182  16.773  0.00  0.00    +0.000 A 
ATOM     11  C   UNL     1       4.859   4.894  16.517  0.00  0.00    +0.000 A 
ATOM     12  C   UNL     1       4.479   3.819  17.345  0.00  0.00    +0.000 A 
ATOM     13  C   UNL     1       3.631   4.007  18.456  0.00  0.00    +0.000 A 
ATOM     14  C   UNL     1       2.953   7.592  18.356  0.00  0.00    +0.000 C 
ATOM     15  O   UNL     1       3.104   8.663  17.799  0.00  0.00    +0.000 OA
BRANCH  13  16
ATOM     16  C   UNL     1       3.231   2.832  19.310  0.00  0.00    +0.000 C 
ATOM     17  F   UNL     1       1.881   2.682  19.430  0.00  0.00    +0.000 F 
ATOM     18  F   UNL     1       3.691   1.652  18.816  0.00  0.00    +0.000 F 
ATOM     19  F   UNL     1       3.707   2.924  20.580  0.00  0.00    +0.000 F 
ENDBRANCH  13  16
ENDBRANCH   3   6
BRANCH   1  20
ATOM     20  C   UNL     1      -0.229   9.769  23.104  0.00  0.00    +0.000 C 
BRANCH  20  22
ATOM     21  C   UNL     1      -1.829  12.007  22.467  0.00  0.00    +0.000 C 
ATOM     22  C   UNL     1      -1.091  10.973  22.761  0.00  0.00    +0.000 C 
BRANCH  21  23
ATOM     23  C   UNL     1      -2.691  13.211  22.124  0.00  0.00    +0.000 C 
BRANCH  23  29
ATOM     24  C   UNL     1      -4.824  12.736  19.768  0.00  0.00    +0.000 C 
ATOM     25  N   UNL     1      -5.033  12.657  21.190  0.00  0.00    +0.000 N 
ATOM     26  C   UNL     1      -6.228  12.346  21.770  0.00  0.00    +0.000 A 
ATOM     27  N   UNL     1      -6.093  12.322  23.073  0.00  0.00    +0.000 NA
ATOM     28  N   UNL     1      -4.785  12.635  23.357  0.00  0.00    +0.000 NA
ATOM     29  C   UNL     1      -4.143  12.850  22.222  0.00  0.00    +0.000 A 
ENDBRANCH  23  29
ENDBRANCH  21  23
ENDBRANCH  20  22
ENDBRANCH   1  20
TORSDOF 6
ENDMDL
