MODEL 1
REMARK VINA RESULT:      -9.1      0.000      0.000
REMARK  Name = 
REMARK  5 active torsions:
REMARK  status: ('A' for Active; 'I' for Inactive)
REMARK    1  A    between atoms: C_1  and  N_2
REMARK    2  A    between atoms: N_7  and  C_8
REMARK    3  A    between atoms: C_8  and  C_9
REMARK    4  A    between atoms: C_13  and  N_14
REMARK    5  A    between atoms: C_17  and  C_18
REMARK                            x       y       z     vdW  Elec       q    Type
REMARK                         _______ _______ _______ _____ _____    ______ ____
ROOT
ATOM      1  C   UNL     1       4.454   5.038  17.256  0.00  0.00    +0.000 A 
ATOM      2  C   UNL     1       3.663   3.875  17.250  0.00  0.00    +0.000 A 
ATOM      3  C   UNL     1       2.401   3.842  17.841  0.00  0.00    +0.000 A 
ATOM      4  C   UNL     1       1.880   4.984  18.450  0.00  0.00    +0.000 A 
ATOM      5  C   UNL     1       2.598   6.181  18.456  0.00  0.00    +0.000 A 
ATOM      6  C   UNL     1       3.862   6.183  17.839  0.00  0.00    +0.000 A 
ENDROOT
BRANCH   5   7
ATOM      7  N   UNL     1       2.101   7.357  19.085  0.00  0.00    +0.000 N 
ATOM      8  C   UNL     1       1.741   7.383  20.480  0.00  0.00    +0.000 C 
ATOM      9  C   UNL     1       1.208   8.759  20.634  0.00  0.00    +0.000 C 
ATOM     10  C   UNL     1       1.268   9.466  19.495  0.00  0.00    +0.000 C 
ATOM     11  C   UNL     1       1.862   8.593  18.478  0.00  0.00    +0.000 C 
ATOM     12  O   UNL     1       2.073   8.950  17.333  0.00  0.00    +0.000 OA
BRANCH  10  13
ATOM     13  C   UNL     1       0.819  10.834  19.202  0.00  0.00    +0.000 C 
ATOM     14  F   UNL     1       1.781  11.691  18.786  0.00  0.00    +0.000 F 
ATOM     15  F   UNL     1      -0.137  10.832  18.230  0.00  0.00    +0.000 F 
ATOM     16  F   UNL     1       0.238  11.403  20.293  0.00  0.00    +0.000 F 
ENDBRANCH  10  13
ENDBRANCH   5   7
BRANCH   1  17
ATOM     17  C   UNL     1       5.950   5.062  16.682  0.00  0.00    +0.000 C 
ATOM     18  C   UNL     1       6.796   6.375  16.813  0.00  0.00    +0.000 C 
ATOM     19  C   UNL     1       7.524   5.766  18.017  0.00  0.00    +0.000 C 
ATOM     20  C   UNL     1       7.055   4.379  17.564  0.00  0.00    +0.000 C 
BRANCH  17  27
ATOM     21  C   UNL     1       5.906   3.340  12.573  0.00  0.00    +0.000 C 
ATOM     22  N   UNL     1       6.803   4.330  13.103  0.00  0.00    +0.000 N 
ATOM     23  C   UNL     1       7.832   4.899  12.417  0.00  0.00    +0.000 A 
ATOM     24  N   UNL     1       8.474   5.734  13.200  0.00  0.00    +0.000 NA
ATOM     25  N   UNL     1       7.853   5.705  14.429  0.00  0.00    +0.000 NA
ATOM     26  C   UNL     1       6.845   4.857  14.374  0.00  0.00    +0.000 A 
ATOM     27  N   UNL     1       5.981   4.485  15.350  0.00  0.00    +0.000 N 
ATOM     28  H   UNL     1       5.099   4.062  15.091  0.00  0.00    +0.000 HD
ENDBRANCH  17  27
ENDBRANCH   1  17
TORSDOF 4
ENDMDL
MODEL 2
REMARK VINA RESULT:      -9.1      2.824      4.580
REMARK  Name = 
REMARK  5 active torsions:
REMARK  status: ('A' for Active; 'I' for Inactive)
REMARK    1  A    between atoms: C_1  and  N_2
REMARK    2  A    between atoms: N_7  and  C_8
REMARK    3  A    between atoms: C_8  and  C_9
REMARK    4  A    between atoms: C_13  and  N_14
REMARK    5  A    between atoms: C_17  and  C_18
REMARK                            x       y       z     vdW  Elec       q    Type
REMARK                         _______ _______ _______ _____ _____    ______ ____
ROOT
ATOM      1  C   UNL     1       2.371   6.749  18.906  0.00  0.00    +0.000 A 
ATOM      2  C   UNL     1       2.620   7.529  17.762  0.00  0.00    +0.000 A 
ATOM      3  C   UNL     1       2.240   8.869  17.689  0.00  0.00    +0.000 A 
ATOM      4  C   UNL     1       1.605   9.478  18.771  0.00  0.00    +0.000 A 
ATOM      5  C   UNL     1       1.363   8.771  19.949  0.00  0.00    +0.000 A 
ATOM      6  C   UNL     1       1.772   7.425  19.995  0.00  0.00    +0.000 A 
ENDROOT
BRANCH   5   7
ATOM      7  N   UNL     1       0.701   9.361  21.063  0.00  0.00    +0.000 N 
ATOM      8  C   UNL     1       0.784   8.797  22.387  0.00  0.00    +0.000 C 
ATOM      9  C   UNL     1      -0.119   9.687  23.156  0.00  0.00    +0.000 C 
ATOM     10  C   UNL     1      -0.646  10.663  22.403  0.00  0.00    +0.000 C 
ATOM     11  C   UNL     1      -0.118  10.492  21.046  0.00  0.00    +0.000 C 
ATOM     12  O   UNL     1      -0.391  11.240  20.123  0.00  0.00    +0.000 OA
BRANCH  10  13
ATOM     13  C   UNL     1      -1.605  11.721  22.752  0.00  0.00    +0.000 C 
ATOM     14  F   UNL     1      -2.399  12.151  21.743  0.00  0.00    +0.000 F 
ATOM     15  F   UNL     1      -2.441  11.307  23.746  0.00  0.00    +0.000 F 
ATOM     16  F   UNL     1      -0.967  12.819  23.238  0.00  0.00    +0.000 F 
ENDBRANCH  10  13
ENDBRANCH   5   7
BRANCH   1  17
ATOM     17  C   UNL     1       2.698   5.182  18.964  0.00  0.00    +0.000 C 
ATOM     18  C   UNL     1       2.726   4.460  20.355  0.00  0.00    +0.000 C 
ATOM     19  C   UNL     1       1.321   3.912  20.081  0.00  0.00    +0.000 C 
ATOM     20  C   UNL     1       1.529   4.202  18.590  0.00  0.00    +0.000 C 
BRANCH  17  27
ATOM     21  C   UNL     1       6.193   4.369  16.323  0.00  0.00    +0.000 C 
ATOM     22  N   UNL     1       6.207   4.807  17.692  0.00  0.00    +0.000 N 
ATOM     23  C   UNL     1       7.329   5.027  18.429  0.00  0.00    +0.000 A 
ATOM     24  N   UNL     1       6.992   5.385  19.646  0.00  0.00    +0.000 NA
ATOM     25  N   UNL     1       5.616   5.392  19.706  0.00  0.00    +0.000 NA
ATOM     26  C   UNL     1       5.140   5.042  18.528  0.00  0.00    +0.000 A 
ATOM     27  N   UNL     1       3.852   4.884  18.135  0.00  0.00    +0.000 N 
ATOM     28  H   UNL     1       3.634   4.901  17.147  0.00  0.00    +0.000 HD
ENDBRANCH  17  27
ENDBRANCH   1  17
TORSDOF 4
ENDMDL
MODEL 3
REMARK VINA RESULT:      -9.0      1.670      3.146
REMARK  Name = 
REMARK  5 active torsions:
REMARK  status: ('A' for Active; 'I' for Inactive)
REMARK    1  A    between atoms: C_1  and  N_2
REMARK    2  A    between atoms: N_7  and  C_8
REMARK    3  A    between atoms: C_8  and  C_9
REMARK    4  A    between atoms: C_13  and  N_14
REMARK    5  A    between atoms: C_17  and  C_18
REMARK                            x       y       z     vdW  Elec       q    Type
REMARK                         _______ _______ _______ _____ _____    ______ ____
ROOT
ATOM      1  C   UNL     1       4.302   4.991  16.795  0.00  0.00    +0.000 A 
ATOM      2  C   UNL     1       3.616   3.770  16.927  0.00  0.00    +0.000 A 
ATOM      3  C   UNL     1       2.483   3.646  17.729  0.00  0.00    +0.000 A 
ATOM      4  C   UNL     1       1.989   4.751  18.422  0.00  0.00    +0.000 A 
ATOM      5  C   UNL     1       2.599   6.001  18.303  0.00  0.00    +0.000 A 
ATOM      6  C   UNL     1       3.733   6.094  17.474  0.00  0.00    +0.000 A 
ENDROOT
BRANCH   5   7
ATOM      7  N   UNL     1       2.129   7.143  19.011  0.00  0.00    +0.000 N 
ATOM      8  C   UNL     1       1.813   7.093  20.416  0.00  0.00    +0.000 C 
ATOM      9  C   UNL     1       1.293   8.461  20.662  0.00  0.00    +0.000 C 
ATOM     10  C   UNL     1       1.321   9.228  19.562  0.00  0.00    +0.000 C 
ATOM     11  C   UNL     1       1.877   8.410  18.480  0.00  0.00    +0.000 C 
ATOM     12  O   UNL     1       2.054   8.829  17.350  0.00  0.00    +0.000 OA
BRANCH  10  13
ATOM     13  C   UNL     1       0.870  10.612  19.358  0.00  0.00    +0.000 C 
ATOM     14  F   UNL     1       1.802  11.469  18.878  0.00  0.00    +0.000 F 
ATOM     15  F   UNL     1      -0.176  10.657  18.485  0.00  0.00    +0.000 F 
ATOM     16  F   UNL     1       0.408  11.152  20.518  0.00  0.00    +0.000 F 
ENDBRANCH  10  13
ENDBRANCH   5   7
BRANCH   1  17
ATOM     17  C   UNL     1       5.668   5.123  15.968  0.00  0.00    +0.000 C 
ATOM     18  C   UNL     1       6.442   3.822  15.562  0.00  0.00    +0.000 C 
ATOM     19  C   UNL     1       5.857   3.934  14.150  0.00  0.00    +0.000 C 
ATOM     20  C   UNL     1       5.536   5.406  14.429  0.00  0.00    +0.000 C 
BRANCH  17  27
ATOM     21  C   UNL     1       8.155   8.325  17.814  0.00  0.00    +0.000 C 
ATOM     22  N   UNL     1       7.900   7.005  18.323  0.00  0.00    +0.000 N 
ATOM     23  C   UNL     1       8.417   6.499  19.476  0.00  0.00    +0.000 A 
ATOM     24  N   UNL     1       8.017   5.259  19.630  0.00  0.00    +0.000 NA
ATOM     25  N   UNL     1       7.224   4.945  18.548  0.00  0.00    +0.000 NA
ATOM     26  C   UNL     1       7.154   5.997  17.756  0.00  0.00    +0.000 A 
ATOM     27  N   UNL     1       6.516   6.136  16.568  0.00  0.00    +0.000 N 
ATOM     28  H   UNL     1       6.308   7.067  16.228  0.00  0.00    +0.000 HD
ENDBRANCH  17  27
ENDBRANCH   1  17
TORSDOF 4
ENDMDL
MODEL 4
REMARK VINA RESULT:      -8.9      2.142      3.628
REMARK  Name = 
REMARK  5 active torsions:
REMARK  status: ('A' for Active; 'I' for Inactive)
REMARK    1  A    between atoms: C_1  and  N_2
REMARK    2  A    between atoms: N_7  and  C_8
REMARK    3  A    between atoms: C_8  and  C_9
REMARK    4  A    between atoms: C_13  and  N_14
REMARK    5  A    between atoms: C_17  and  C_18
REMARK                            x       y       z     vdW  Elec       q    Type
REMARK                         _______ _______ _______ _____ _____    ______ ____
ROOT
ATOM      1  C   UNL     1       4.357   4.982  16.743  0.00  0.00    +0.000 A 
ATOM      2  C   UNL     1       3.714   3.746  16.931  0.00  0.00    +0.000 A 
ATOM      3  C   UNL     1       2.569   3.625  17.717  0.00  0.00    +0.000 A 
ATOM      4  C   UNL     1       2.020   4.749  18.335  0.00  0.00    +0.000 A 
ATOM      5  C   UNL     1       2.587   6.011  18.157  0.00  0.00    +0.000 A 
ATOM      6  C   UNL     1       3.734   6.100  17.346  0.00  0.00    +0.000 A 
ENDROOT
BRANCH   5   7
ATOM      7  N   UNL     1       2.061   7.173  18.789  0.00  0.00    +0.000 N 
ATOM      8  C   UNL     1       1.890   8.417  18.080  0.00  0.00    +0.000 C 
ATOM      9  C   UNL     1       1.414   9.319  19.157  0.00  0.00    +0.000 C 
ATOM     10  C   UNL     1       1.291   8.695  20.337  0.00  0.00    +0.000 C 
ATOM     11  C   UNL     1       1.681   7.298  20.128  0.00  0.00    +0.000 C 
ATOM     12  O   UNL     1       1.657   6.458  21.010  0.00  0.00    +0.000 OA
BRANCH  10  13
ATOM     13  C   UNL     1       0.893   9.218  21.652  0.00  0.00    +0.000 C 
ATOM     14  F   UNL     1       1.813   9.090  22.638  0.00  0.00    +0.000 F 
ATOM     15  F   UNL     1       0.598  10.547  21.575  0.00  0.00    +0.000 F 
ATOM     16  F   UNL     1      -0.240   8.611  22.098  0.00  0.00    +0.000 F 
ENDBRANCH  10  13
ENDBRANCH   5   7
BRANCH   1  17
ATOM     17  C   UNL     1       5.735   5.119  15.936  0.00  0.00    +0.000 C 
ATOM     18  C   UNL     1       6.529   3.820  15.558  0.00  0.00    +0.000 C 
ATOM     19  C   UNL     1       5.965   3.910  14.135  0.00  0.00    +0.000 C 
ATOM     20  C   UNL     1       5.626   5.382  14.392  0.00  0.00    +0.000 C 
BRANCH  17  27
ATOM     21  C   UNL     1       8.161   8.367  17.783  0.00  0.00    +0.000 C 
ATOM     22  N   UNL     1       7.909   7.052  18.305  0.00  0.00    +0.000 N 
ATOM     23  C   UNL     1       8.409   6.566  19.473  0.00  0.00    +0.000 A 
ATOM     24  N   UNL     1       8.016   5.325  19.638  0.00  0.00    +0.000 NA
ATOM     25  N   UNL     1       7.246   4.989  18.546  0.00  0.00    +0.000 NA
ATOM     26  C   UNL     1       7.181   6.030  17.739  0.00  0.00    +0.000 A 
ATOM     27  N   UNL     1       6.564   6.147  16.537  0.00  0.00    +0.000 N 
ATOM     28  H   UNL     1       6.354   7.071  16.181  0.00  0.00    +0.000 HD
ENDBRANCH  17  27
ENDBRANCH   1  17
TORSDOF 4
ENDMDL
MODEL 5
REMARK VINA RESULT:      -8.9      1.343      1.787
REMARK  Name = 
REMARK  5 active torsions:
REMARK  status: ('A' for Active; 'I' for Inactive)
REMARK    1  A    between atoms: C_1  and  N_2
REMARK    2  A    between atoms: N_7  and  C_8
REMARK    3  A    between atoms: C_8  and  C_9
REMARK    4  A    between atoms: C_13  and  N_14
REMARK    5  A    between atoms: C_17  and  C_18
REMARK                            x       y       z     vdW  Elec       q    Type
REMARK                         _______ _______ _______ _____ _____    ______ ____
ROOT
ATOM      1  C   UNL     1       4.494   4.980  17.218  0.00  0.00    +0.000 A 
ATOM      2  C   UNL     1       3.743   3.791  17.256  0.00  0.00    +0.000 A 
ATOM      3  C   UNL     1       2.479   3.739  17.840  0.00  0.00    +0.000 A 
ATOM      4  C   UNL     1       1.915   4.886  18.398  0.00  0.00    +0.000 A 
ATOM      5  C   UNL     1       2.590   6.106  18.359  0.00  0.00    +0.000 A 
ATOM      6  C   UNL     1       3.859   6.127  17.750  0.00  0.00    +0.000 A 
ENDROOT
BRANCH   5   7
ATOM      7  N   UNL     1       2.049   7.290  18.936  0.00  0.00    +0.000 N 
ATOM      8  C   UNL     1       1.951   8.524  18.198  0.00  0.00    +0.000 C 
ATOM      9  C   UNL     1       1.426   9.455  19.226  0.00  0.00    +0.000 C 
ATOM     10  C   UNL     1       1.213   8.854  20.406  0.00  0.00    +0.000 C 
ATOM     11  C   UNL     1       1.587   7.446  20.245  0.00  0.00    +0.000 C 
ATOM     12  O   UNL     1       1.488   6.622  21.138  0.00  0.00    +0.000 OA
BRANCH  10  13
ATOM     13  C   UNL     1       0.743   9.409  21.683  0.00  0.00    +0.000 C 
ATOM     14  F   UNL     1       0.445  10.730  21.676  0.00  0.00    +0.000 F 
ATOM     15  F   UNL     1      -0.383   8.766  22.105  0.00  0.00    +0.000 F 
ATOM     16  F   UNL     1       1.665   9.225  22.666  0.00  0.00    +0.000 F 
ENDBRANCH  10  13
ENDBRANCH   5   7
BRANCH   1  17
ATOM     17  C   UNL     1       5.993   5.032  16.653  0.00  0.00    +0.000 C 
ATOM     18  C   UNL     1       6.817   6.358  16.800  0.00  0.00    +0.000 C 
ATOM     19  C   UNL     1       7.547   5.752  18.003  0.00  0.00    +0.000 C 
ATOM     20  C   UNL     1       7.103   4.361  17.538  0.00  0.00    +0.000 C 
BRANCH  17  27
ATOM     21  C   UNL     1       6.001   3.340  12.532  0.00  0.00    +0.000 C 
ATOM     22  N   UNL     1       6.876   4.343  13.074  0.00  0.00    +0.000 N 
ATOM     23  C   UNL     1       7.897   4.936  12.397  0.00  0.00    +0.000 A 
ATOM     24  N   UNL     1       8.520   5.777  13.189  0.00  0.00    +0.000 NA
ATOM     25  N   UNL     1       7.894   5.728  14.415  0.00  0.00    +0.000 NA
ATOM     26  C   UNL     1       6.902   4.861  14.348  0.00  0.00    +0.000 A 
ATOM     27  N   UNL     1       6.041   4.466  15.318  0.00  0.00    +0.000 N 
ATOM     28  H   UNL     1       5.168   4.029  15.051  0.00  0.00    +0.000 HD
ENDBRANCH  17  27
ENDBRANCH   1  17
TORSDOF 4
ENDMDL
MODEL 6
REMARK VINA RESULT:      -8.7      2.825      4.837
REMARK  Name = 
REMARK  5 active torsions:
REMARK  status: ('A' for Active; 'I' for Inactive)
REMARK    1  A    between atoms: C_1  and  N_2
REMARK    2  A    between atoms: N_7  and  C_8
REMARK    3  A    between atoms: C_8  and  C_9
REMARK    4  A    between atoms: C_13  and  N_14
REMARK    5  A    between atoms: C_17  and  C_18
REMARK                            x       y       z     vdW  Elec       q    Type
REMARK                         _______ _______ _______ _____ _____    ______ ____
ROOT
ATOM      1  C   UNL     1       2.249   7.174  19.416  0.00  0.00    +0.000 A 
ATOM      2  C   UNL     1       2.367   7.791  18.157  0.00  0.00    +0.000 A 
ATOM      3  C   UNL     1       1.815   9.045  17.898  0.00  0.00    +0.000 A 
ATOM      4  C   UNL     1       1.131   9.732  18.901  0.00  0.00    +0.000 A 
ATOM      5  C   UNL     1       1.012   9.193  20.183  0.00  0.00    +0.000 A 
ATOM      6  C   UNL     1       1.593   7.932  20.414  0.00  0.00    +0.000 A 
ENDROOT
BRANCH   5   7
ATOM      7  N   UNL     1       0.305   9.862  21.222  0.00  0.00    +0.000 N 
ATOM      8  C   UNL     1      -0.091   9.187  22.433  0.00  0.00    +0.000 C 
ATOM      9  C   UNL     1      -0.854  10.246  23.137  0.00  0.00    +0.000 C 
ATOM     10  C   UNL     1      -0.886  11.401  22.455  0.00  0.00    +0.000 C 
ATOM     11  C   UNL     1      -0.125  11.191  21.220  0.00  0.00    +0.000 C 
ATOM     12  O   UNL     1       0.054  12.064  20.388  0.00  0.00    +0.000 OA
BRANCH  10  13
ATOM     13  C   UNL     1      -1.554  12.672  22.768  0.00  0.00    +0.000 C 
ATOM     14  F   UNL     1      -2.194  13.269  21.735  0.00  0.00    +0.000 F 
ATOM     15  F   UNL     1      -2.485  12.500  23.748  0.00  0.00    +0.000 F 
ATOM     16  F   UNL     1      -0.668  13.583  23.254  0.00  0.00    +0.000 F 
ENDBRANCH  10  13
ENDBRANCH   5   7
BRANCH   1  17
ATOM     17  C   UNL     1       2.779   5.689  19.696  0.00  0.00    +0.000 C 
ATOM     18  C   UNL     1       2.226   4.904  20.936  0.00  0.00    +0.000 C 
ATOM     19  C   UNL     1       1.282   4.133  20.006  0.00  0.00    +0.000 C 
ATOM     20  C   UNL     1       2.162   4.542  18.819  0.00  0.00    +0.000 C 
BRANCH  17  27
ATOM     21  C   UNL     1       7.222   5.463  19.466  0.00  0.00    +0.000 C 
ATOM     22  N   UNL     1       6.271   5.169  18.429  0.00  0.00    +0.000 N 
ATOM     23  C   UNL     1       6.590   4.786  17.163  0.00  0.00    +0.000 A 
ATOM     24  N   UNL     1       5.492   4.632  16.460  0.00  0.00    +0.000 NA
ATOM     25  N   UNL     1       4.430   4.928  17.287  0.00  0.00    +0.000 NA
ATOM     26  C   UNL     1       4.898   5.254  18.476  0.00  0.00    +0.000 A 
ATOM     27  N   UNL     1       4.225   5.647  19.585  0.00  0.00    +0.000 N 
ATOM     28  H   UNL     1       4.681   5.579  20.486  0.00  0.00    +0.000 HD
ENDBRANCH  17  27
ENDBRANCH   1  17
TORSDOF 4
ENDMDL
MODEL 7
REMARK VINA RESULT:      -8.5      2.419      3.796
REMARK  Name = 
REMARK  5 active torsions:
REMARK  status: ('A' for Active; 'I' for Inactive)
REMARK    1  A    between atoms: C_1  and  N_2
REMARK    2  A    between atoms: N_7  and  C_8
REMARK    3  A    between atoms: C_8  and  C_9
REMARK    4  A    between atoms: C_13  and  N_14
REMARK    5  A    between atoms: C_17  and  C_18
REMARK                            x       y       z     vdW  Elec       q    Type
REMARK                         _______ _______ _______ _____ _____    ______ ____
ROOT
ATOM      1  C   UNL     1       2.835   4.889  19.100  0.00  0.00    +0.000 A 
ATOM      2  C   UNL     1       2.382   4.531  20.383  0.00  0.00    +0.000 A 
ATOM      3  C   UNL     1       1.749   5.447  21.221  0.00  0.00    +0.000 A 
ATOM      4  C   UNL     1       1.535   6.758  20.795  0.00  0.00    +0.000 A 
ATOM      5  C   UNL     1       1.924   7.167  19.518  0.00  0.00    +0.000 A 
ATOM      6  C   UNL     1       2.549   6.213  18.693  0.00  0.00    +0.000 A 
ENDROOT
BRANCH   5   7
ATOM      7  N   UNL     1       1.736   8.502  19.061  0.00  0.00    +0.000 N 
ATOM      8  C   UNL     1       2.360   8.992  17.858  0.00  0.00    +0.000 C 
ATOM      9  C   UNL     1       1.948  10.417  17.859  0.00  0.00    +0.000 C 
ATOM     10  C   UNL     1       1.165  10.728  18.902  0.00  0.00    +0.000 C 
ATOM     11  C   UNL     1       0.991   9.503  19.689  0.00  0.00    +0.000 C 
ATOM     12  O   UNL     1       0.308   9.448  20.697  0.00  0.00    +0.000 OA
BRANCH  10  13
ATOM     13  C   UNL     1       0.577  12.015  19.299  0.00  0.00    +0.000 C 
ATOM     14  F   UNL     1       0.931  12.469  20.524  0.00  0.00    +0.000 F 
ATOM     15  F   UNL     1       0.916  12.995  18.415  0.00  0.00    +0.000 F 
ATOM     16  F   UNL     1      -0.782  11.957  19.285  0.00  0.00    +0.000 F 
ENDBRANCH  10  13
ENDBRANCH   5   7
BRANCH   1  17
ATOM     17  C   UNL     1       3.664   3.881  18.171  0.00  0.00    +0.000 C 
ATOM     18  C   UNL     1       3.944   2.426  18.684  0.00  0.00    +0.000 C 
ATOM     19  C   UNL     1       2.797   1.913  17.806  0.00  0.00    +0.000 C 
ATOM     20  C   UNL     1       2.881   3.206  16.988  0.00  0.00    +0.000 C 
BRANCH  17  27
ATOM     21  C   UNL     1       7.195   6.029  16.508  0.00  0.00    +0.000 C 
ATOM     22  N   UNL     1       6.966   5.635  17.871  0.00  0.00    +0.000 N 
ATOM     23  C   UNL     1       7.833   5.841  18.899  0.00  0.00    +0.000 A 
ATOM     24  N   UNL     1       7.337   5.331  20.002  0.00  0.00    +0.000 NA
ATOM     25  N   UNL     1       6.118   4.772  19.684  0.00  0.00    +0.000 NA
ATOM     26  C   UNL     1       5.893   4.953  18.398  0.00  0.00    +0.000 A 
ATOM     27  N   UNL     1       4.842   4.545  17.645  0.00  0.00    +0.000 N 
ATOM     28  H   UNL     1       4.667   5.001  16.758  0.00  0.00    +0.000 HD
ENDBRANCH  17  27
ENDBRANCH   1  17
TORSDOF 4
ENDMDL
MODEL 8
REMARK VINA RESULT:      -8.3      1.364      1.664
REMARK  Name = 
REMARK  5 active torsions:
REMARK  status: ('A' for Active; 'I' for Inactive)
REMARK    1  A    between atoms: C_1  and  N_2
REMARK    2  A    between atoms: N_7  and  C_8
REMARK    3  A    between atoms: C_8  and  C_9
REMARK    4  A    between atoms: C_13  and  N_14
REMARK    5  A    between atoms: C_17  and  C_18
REMARK                            x       y       z     vdW  Elec       q    Type
REMARK                         _______ _______ _______ _____ _____    ______ ____
ROOT
ATOM      1  C   UNL     1       4.646   5.462  18.196  0.00  0.00    +0.000 A 
ATOM      2  C   UNL     1       4.182   4.383  18.970  0.00  0.00    +0.000 A 
ATOM      3  C   UNL     1       3.024   4.476  19.741  0.00  0.00    +0.000 A 
ATOM      4  C   UNL     1       2.281   5.655  19.753  0.00  0.00    +0.000 A 
ATOM      5  C   UNL     1       2.665   6.750  18.976  0.00  0.00    +0.000 A 
ATOM      6  C   UNL     1       3.831   6.618  18.199  0.00  0.00    +0.000 A 
ENDROOT
BRANCH   5   7
ATOM      7  N   UNL     1       1.937   7.974  18.981  0.00  0.00    +0.000 N 
ATOM      8  C   UNL     1       1.726   8.741  17.780  0.00  0.00    +0.000 C 
ATOM      9  C   UNL     1       1.019   9.936  18.301  0.00  0.00    +0.000 C 
ATOM     10  C   UNL     1       0.812   9.878  19.625  0.00  0.00    +0.000 C 
ATOM     11  C   UNL     1       1.376   8.608  20.092  0.00  0.00    +0.000 C 
ATOM     12  O   UNL     1       1.330   8.244  21.254  0.00  0.00    +0.000 OA
BRANCH  10  13
ATOM     13  C   UNL     1       0.192  10.852  20.533  0.00  0.00    +0.000 C 
ATOM     14  F   UNL     1      -0.418  11.904  19.938  0.00  0.00    +0.000 F 
ATOM     15  F   UNL     1      -0.751  10.255  21.315  0.00  0.00    +0.000 F 
ATOM     16  F   UNL     1       1.110  11.373  21.392  0.00  0.00    +0.000 F 
ENDBRANCH  10  13
ENDBRANCH   5   7
BRANCH   1  17
ATOM     17  C   UNL     1       6.033   5.410  17.395  0.00  0.00    +0.000 C 
ATOM     18  C   UNL     1       6.927   6.696  17.335  0.00  0.00    +0.000 C 
ATOM     19  C   UNL     1       7.817   6.108  18.436  0.00  0.00    +0.000 C 
ATOM     20  C   UNL     1       7.243   4.723  18.122  0.00  0.00    +0.000 C 
BRANCH  17  27
ATOM     21  C   UNL     1       5.298   3.550  13.413  0.00  0.00    +0.000 C 
ATOM     22  N   UNL     1       6.377   4.421  13.793  0.00  0.00    +0.000 N 
ATOM     23  C   UNL     1       7.393   4.808  12.974  0.00  0.00    +0.000 A 
ATOM     24  N   UNL     1       8.227   5.572  13.639  0.00  0.00    +0.000 NA
ATOM     25  N   UNL     1       7.747   5.682  14.926  0.00  0.00    +0.000 NA
ATOM     26  C   UNL     1       6.631   4.986  15.021  0.00  0.00    +0.000 A 
ATOM     27  N   UNL     1       5.837   4.783  16.101  0.00  0.00    +0.000 N 
ATOM     28  H   UNL     1       4.881   4.481  15.957  0.00  0.00    +0.000 HD
ENDBRANCH  17  27
ENDBRANCH   1  17
TORSDOF 4
ENDMDL
MODEL 9
REMARK VINA RESULT:      -8.3      1.697      3.059
REMARK  Name = 
REMARK  5 active torsions:
REMARK  status: ('A' for Active; 'I' for Inactive)
REMARK    1  A    between atoms: C_1  and  N_2
REMARK    2  A    between atoms: N_7  and  C_8
REMARK    3  A    between atoms: C_8  and  C_9
REMARK    4  A    between atoms: C_13  and  N_14
REMARK    5  A    between atoms: C_17  and  C_18
REMARK                            x       y       z     vdW  Elec       q    Type
REMARK                         _______ _______ _______ _____ _____    ______ ____
ROOT
ATOM      1  C   UNL     1       4.043   4.824  17.126  0.00  0.00    +0.000 A 
ATOM      2  C   UNL     1       3.136   3.749  17.084  0.00  0.00    +0.000 A 
ATOM      3  C   UNL     1       1.876   3.829  17.675  0.00  0.00    +0.000 A 
ATOM      4  C   UNL     1       1.475   4.998  18.321  0.00  0.00    +0.000 A 
ATOM      5  C   UNL     1       2.313   6.114  18.364  0.00  0.00    +0.000 A 
ATOM      6  C   UNL     1       3.572   6.005  17.746  0.00  0.00    +0.000 A 
ENDROOT
BRANCH   5   7
ATOM      7  N   UNL     1       1.939   7.315  19.031  0.00  0.00    +0.000 N 
ATOM      8  C   UNL     1       1.627   7.341  20.438  0.00  0.00    +0.000 C 
ATOM      9  C   UNL     1       1.220   8.754  20.634  0.00  0.00    +0.000 C 
ATOM     10  C   UNL     1       1.304   9.477  19.508  0.00  0.00    +0.000 C 
ATOM     11  C   UNL     1       1.788   8.579  18.455  0.00  0.00    +0.000 C 
ATOM     12  O   UNL     1       1.993   8.941  17.310  0.00  0.00    +0.000 OA
BRANCH  10  13
ATOM     13  C   UNL     1       0.965  10.884  19.255  0.00  0.00    +0.000 C 
ATOM     14  F   UNL     1       0.589  11.602  20.340  0.00  0.00    +0.000 F 
ATOM     15  F   UNL     1       2.023  11.546  18.706  0.00  0.00    +0.000 F 
ATOM     16  F   UNL     1      -0.047  10.989  18.351  0.00  0.00    +0.000 F 
ENDBRANCH  10  13
ENDBRANCH   5   7
BRANCH   1  17
ATOM     17  C   UNL     1       5.535   4.710  16.551  0.00  0.00    +0.000 C 
ATOM     18  C   UNL     1       5.945   3.431  15.743  0.00  0.00    +0.000 C 
ATOM     19  C   UNL     1       5.759   4.215  14.439  0.00  0.00    +0.000 C 
ATOM     20  C   UNL     1       5.850   5.517  15.241  0.00  0.00    +0.000 C 
BRANCH  17  27
ATOM     21  C   UNL     1       8.565   5.728  19.654  0.00  0.00    +0.000 C 
ATOM     22  N   UNL     1       8.028   6.586  18.633  0.00  0.00    +0.000 N 
ATOM     23  C   UNL     1       8.354   7.896  18.463  0.00  0.00    +0.000 A 
ATOM     24  N   UNL     1       7.662   8.396  17.467  0.00  0.00    +0.000 NA
ATOM     25  N   UNL     1       6.859   7.388  16.978  0.00  0.00    +0.000 NA
ATOM     26  C   UNL     1       7.078   6.295  17.681  0.00  0.00    +0.000 A 
ATOM     27  N   UNL     1       6.492   5.076  17.578  0.00  0.00    +0.000 N 
ATOM     28  H   UNL     1       6.959   4.272  17.977  0.00  0.00    +0.000 HD
ENDBRANCH  17  27
ENDBRANCH   1  17
TORSDOF 4
ENDMDL
