MODEL 1
REMARK VINA RESULT:      -8.3      0.000      0.000
REMARK  Name = 
REMARK  5 active torsions:
REMARK  status: ('A' for Active; 'I' for Inactive)
REMARK    1  A    between atoms: S_2  and  N_4
REMARK    2  A    between atoms: S_2  and  C_17
REMARK    3  A    between atoms: N_4  and  C_5
REMARK    4  A    between atoms: C_10  and  C_11
REMARK    5  A    between atoms: C_11  and  N_12
REMARK                            x       y       z     vdW  Elec       q    Type
REMARK                         _______ _______ _______ _____ _____    ______ ____
ROOT
ATOM      1  N   UNL     1       3.525   5.312  17.915  0.00  0.00    +0.000 N 
ATOM      2  H   UNL     1       3.408   5.237  16.900  0.00  0.00    +0.000 HD
ENDROOT
BRANCH   1   3
ATOM      3  C   UNL     1       2.472   4.660  18.625  0.00  0.00    +0.000 A 
ATOM      4  C   UNL     1       1.791   3.593  18.000  0.00  0.00    +0.000 A 
ATOM      5  C   UNL     1       0.806   2.882  18.679  0.00  0.00    +0.000 A 
ATOM      6  C   UNL     1       0.502   3.203  19.998  0.00  0.00    +0.000 A 
ATOM      7  C   UNL     1       1.135   4.274  20.618  0.00  0.00    +0.000 A 
ATOM      8  C   UNL     1       2.099   5.043  19.934  0.00  0.00    +0.000 A 
BRANCH   8   9
ATOM      9  C   UNL     1       2.655   6.283  20.580  0.00  0.00    +0.000 C 
BRANCH   9  10
ATOM     10  N   UNL     1       2.003   7.476  20.074  0.00  0.00    +0.000 N 
ATOM     11  C   UNL     1       1.163   8.310  20.755  0.00  0.00    +0.000 A 
ATOM     12  N   UNL     1       0.795   9.299  19.977  0.00  0.00    +0.000 NA
ATOM     13  C   UNL     1       1.448   9.030  18.810  0.00  0.00    +0.000 A 
ATOM     14  N   UNL     1       2.222   7.942  18.823  0.00  0.00    +0.000 NA
ENDBRANCH   9  10
ENDBRANCH   8   9
ENDBRANCH   1   3
BRANCH   1  16
ATOM     15  O   UNL     1       5.815   5.781  19.015  0.00  0.00    +0.000 OA
ATOM     16  S   UNL     1       5.103   4.743  18.300  0.00  0.00    +0.000 S 
ATOM     17  O   UNL     1       4.950   3.401  18.817  0.00  0.00    +0.000 OA
BRANCH  16  18
ATOM     18  C   UNL     1       5.829   4.607  16.683  0.00  0.00    +0.000 A 
ATOM     19  C   UNL     1       7.161   4.983  16.556  0.00  0.00    +0.000 A 
ATOM     20  C   UNL     1       7.697   5.130  15.286  0.00  0.00    +0.000 A 
ATOM     21  C   UNL     1       6.965   4.761  14.153  0.00  0.00    +0.000 A 
ATOM     22  C   UNL     1       7.518   4.961  12.888  0.00  0.00    +0.000 A 
ATOM     23  C   UNL     1       7.130   4.151  11.834  0.00  0.00    +0.000 A 
ATOM     24  C   UNL     1       5.981   3.381  11.968  0.00  0.00    +0.000 A 
ATOM     25  C   UNL     1       5.204   3.479  13.137  0.00  0.00    +0.000 A 
ATOM     26  C   UNL     1       5.710   4.139  14.283  0.00  0.00    +0.000 A 
ATOM     27  C   UNL     1       5.091   4.187  15.559  0.00  0.00    +0.000 A 
ENDBRANCH  16  18
ENDBRANCH   1  16
TORSDOF 5
ENDMDL
MODEL 2
REMARK VINA RESULT:      -8.2      2.475      7.779
REMARK  Name = 
REMARK  5 active torsions:
REMARK  status: ('A' for Active; 'I' for Inactive)
REMARK    1  A    between atoms: S_2  and  N_4
REMARK    2  A    between atoms: S_2  and  C_17
REMARK    3  A    between atoms: N_4  and  C_5
REMARK    4  A    between atoms: C_10  and  C_11
REMARK    5  A    between atoms: C_11  and  N_12
REMARK                            x       y       z     vdW  Elec       q    Type
REMARK                         _______ _______ _______ _____ _____    ______ ____
ROOT
ATOM      1  N   UNL     1       3.238   6.139  19.916  0.00  0.00    +0.000 N 
ATOM      2  H   UNL     1       2.700   6.424  20.740  0.00  0.00    +0.000 HD
ENDROOT
BRANCH   1   3
ATOM      3  C   UNL     1       3.198   4.726  19.712  0.00  0.00    +0.000 A 
ATOM      4  C   UNL     1       1.999   4.035  19.993  0.00  0.00    +0.000 A 
ATOM      5  C   UNL     1       1.889   2.670  19.742  0.00  0.00    +0.000 A 
ATOM      6  C   UNL     1       2.959   1.979  19.184  0.00  0.00    +0.000 A 
ATOM      7  C   UNL     1       4.159   2.634  18.934  0.00  0.00    +0.000 A 
ATOM      8  C   UNL     1       4.313   4.005  19.228  0.00  0.00    +0.000 A 
BRANCH   8   9
ATOM      9  C   UNL     1       5.666   4.648  19.086  0.00  0.00    +0.000 C 
BRANCH   9  10
ATOM     10  N   UNL     1       6.062   4.736  17.694  0.00  0.00    +0.000 N 
ATOM     11  C   UNL     1       7.315   4.561  17.180  0.00  0.00    +0.000 A 
ATOM     12  N   UNL     1       7.279   4.688  15.875  0.00  0.00    +0.000 NA
ATOM     13  C   UNL     1       5.962   4.939  15.628  0.00  0.00    +0.000 A 
ATOM     14  N   UNL     1       5.168   4.952  16.702  0.00  0.00    +0.000 NA
ENDBRANCH   9  10
ENDBRANCH   8   9
ENDBRANCH   1   3
BRANCH   1  16
ATOM     15  O   UNL     1       3.806   7.733  17.964  0.00  0.00    +0.000 OA
ATOM     16  S   UNL     1       2.678   7.069  18.581  0.00  0.00    +0.000 S 
ATOM     17  O   UNL     1       1.763   6.228  17.840  0.00  0.00    +0.000 OA
BRANCH  16  18
ATOM     18  C   UNL     1       1.706   8.309  19.404  0.00  0.00    +0.000 A 
ATOM     19  C   UNL     1       1.303   9.402  18.644  0.00  0.00    +0.000 A 
ATOM     20  C   UNL     1       0.762  10.503  19.289  0.00  0.00    +0.000 A 
ATOM     21  C   UNL     1       0.482  10.464  20.659  0.00  0.00    +0.000 A 
ATOM     22  C   UNL     1      -0.023  11.605  21.285  0.00  0.00    +0.000 A 
ATOM     23  C   UNL     1      -0.807  11.474  22.419  0.00  0.00    +0.000 A 
ATOM     24  C   UNL     1      -0.813  10.259  23.094  0.00  0.00    +0.000 A 
ATOM     25  C   UNL     1       0.017   9.209  22.655  0.00  0.00    +0.000 A 
ATOM     26  C   UNL     1       0.649   9.274  21.390  0.00  0.00    +0.000 A 
ATOM     27  C   UNL     1       1.390   8.232  20.774  0.00  0.00    +0.000 A 
ENDBRANCH  16  18
ENDBRANCH   1  16
TORSDOF 5
ENDMDL
MODEL 3
REMARK VINA RESULT:      -8.2      2.467      7.605
REMARK  Name = 
REMARK  5 active torsions:
REMARK  status: ('A' for Active; 'I' for Inactive)
REMARK    1  A    between atoms: S_2  and  N_4
REMARK    2  A    between atoms: S_2  and  C_17
REMARK    3  A    between atoms: N_4  and  C_5
REMARK    4  A    between atoms: C_10  and  C_11
REMARK    5  A    between atoms: C_11  and  N_12
REMARK                            x       y       z     vdW  Elec       q    Type
REMARK                         _______ _______ _______ _____ _____    ______ ____
ROOT
ATOM      1  N   UNL     1       3.312   6.097  19.895  0.00  0.00    +0.000 N 
ATOM      2  H   UNL     1       3.078   6.623  20.742  0.00  0.00    +0.000 HD
ENDROOT
BRANCH   1   3
ATOM      3  C   UNL     1       2.820   4.758  19.942  0.00  0.00    +0.000 A 
ATOM      4  C   UNL     1       1.500   4.536  20.392  0.00  0.00    +0.000 A 
ATOM      5  C   UNL     1       0.953   3.256  20.389  0.00  0.00    +0.000 A 
ATOM      6  C   UNL     1       1.700   2.183  19.914  0.00  0.00    +0.000 A 
ATOM      7  C   UNL     1       3.013   2.376  19.502  0.00  0.00    +0.000 A 
ATOM      8  C   UNL     1       3.608   3.653  19.544  0.00  0.00    +0.000 A 
BRANCH   8   9
ATOM      9  C   UNL     1       5.072   3.802  19.234  0.00  0.00    +0.000 C 
BRANCH   9  10
ATOM     10  N   UNL     1       5.284   4.104  17.831  0.00  0.00    +0.000 N 
ATOM     11  C   UNL     1       4.396   3.938  16.808  0.00  0.00    +0.000 A 
ATOM     12  N   UNL     1       4.932   4.350  15.685  0.00  0.00    +0.000 NA
ATOM     13  C   UNL     1       6.169   4.773  16.073  0.00  0.00    +0.000 A 
ATOM     14  N   UNL     1       6.427   4.671  17.380  0.00  0.00    +0.000 NA
ENDBRANCH   9  10
ENDBRANCH   8   9
ENDBRANCH   1   3
BRANCH   1  16
ATOM     15  O   UNL     1       3.893   7.659  17.920  0.00  0.00    +0.000 OA
ATOM     16  S   UNL     1       2.760   7.012  18.546  0.00  0.00    +0.000 S 
ATOM     17  O   UNL     1       1.840   6.167  17.815  0.00  0.00    +0.000 OA
BRANCH  16  18
ATOM     18  C   UNL     1       1.796   8.271  19.349  0.00  0.00    +0.000 A 
ATOM     19  C   UNL     1       1.414   9.362  18.577  0.00  0.00    +0.000 A 
ATOM     20  C   UNL     1       0.880  10.475  19.208  0.00  0.00    +0.000 A 
ATOM     21  C   UNL     1       0.586  10.450  20.575  0.00  0.00    +0.000 A 
ATOM     22  C   UNL     1       0.090  11.602  21.187  0.00  0.00    +0.000 A 
ATOM     23  C   UNL     1      -0.708  11.490  22.314  0.00  0.00    +0.000 A 
ATOM     24  C   UNL     1      -0.735  10.280  22.999  0.00  0.00    +0.000 A 
ATOM     25  C   UNL     1       0.086   9.217  22.577  0.00  0.00    +0.000 A 
ATOM     26  C   UNL     1       0.731   9.264  21.317  0.00  0.00    +0.000 A 
ATOM     27  C   UNL     1       1.465   8.209  20.717  0.00  0.00    +0.000 A 
ENDBRANCH  16  18
ENDBRANCH   1  16
TORSDOF 5
ENDMDL
MODEL 4
REMARK VINA RESULT:      -8.1      1.590      3.188
REMARK  Name = 
REMARK  5 active torsions:
REMARK  status: ('A' for Active; 'I' for Inactive)
REMARK    1  A    between atoms: S_2  and  N_4
REMARK    2  A    between atoms: S_2  and  C_17
REMARK    3  A    between atoms: N_4  and  C_5
REMARK    4  A    between atoms: C_10  and  C_11
REMARK    5  A    between atoms: C_11  and  N_12
REMARK                            x       y       z     vdW  Elec       q    Type
REMARK                         _______ _______ _______ _____ _____    ______ ____
ROOT
ATOM      1  N   UNL     1       3.475   5.016  18.101  0.00  0.00    +0.000 N 
ATOM      2  H   UNL     1       3.006   4.132  18.318  0.00  0.00    +0.000 HD
ENDROOT
BRANCH   1   3
ATOM      3  C   UNL     1       2.854   6.126  18.749  0.00  0.00    +0.000 A 
ATOM      4  C   UNL     1       2.859   7.380  18.099  0.00  0.00    +0.000 A 
ATOM      5  C   UNL     1       2.205   8.474  18.659  0.00  0.00    +0.000 A 
ATOM      6  C   UNL     1       1.514   8.331  19.858  0.00  0.00    +0.000 A 
ATOM      7  C   UNL     1       1.529   7.115  20.530  0.00  0.00    +0.000 A 
ATOM      8  C   UNL     1       2.227   6.006  20.011  0.00  0.00    +0.000 A 
BRANCH   8   9
ATOM      9  C   UNL     1       2.348   4.752  20.833  0.00  0.00    +0.000 C 
BRANCH   9  10
ATOM     10  N   UNL     1       1.801   3.608  20.129  0.00  0.00    +0.000 N 
ATOM     11  C   UNL     1       0.539   3.475  19.625  0.00  0.00    +0.000 A 
ATOM     12  N   UNL     1       0.421   2.313  19.029  0.00  0.00    +0.000 NA
ATOM     13  C   UNL     1       1.656   1.760  19.189  0.00  0.00    +0.000 A 
ATOM     14  N   UNL     1       2.548   2.520  19.831  0.00  0.00    +0.000 NA
ENDBRANCH   9  10
ENDBRANCH   8   9
ENDBRANCH   1   3
BRANCH   1  16
ATOM     15  O   UNL     1       5.650   6.054  19.033  0.00  0.00    +0.000 OA
ATOM     16  S   UNL     1       5.145   4.821  18.466  0.00  0.00    +0.000 S 
ATOM     17  O   UNL     1       5.283   3.541  19.127  0.00  0.00    +0.000 OA
BRANCH  16  18
ATOM     18  C   UNL     1       5.840   4.653  16.838  0.00  0.00    +0.000 A 
ATOM     19  C   UNL     1       7.179   4.995  16.686  0.00  0.00    +0.000 A 
ATOM     20  C   UNL     1       7.697   5.116  15.405  0.00  0.00    +0.000 A 
ATOM     21  C   UNL     1       6.937   4.755  14.288  0.00  0.00    +0.000 A 
ATOM     22  C   UNL     1       7.474   4.930  13.012  0.00  0.00    +0.000 A 
ATOM     23  C   UNL     1       7.048   4.121  11.972  0.00  0.00    +0.000 A 
ATOM     24  C   UNL     1       5.882   3.380  12.133  0.00  0.00    +0.000 A 
ATOM     25  C   UNL     1       5.128   3.508  13.314  0.00  0.00    +0.000 A 
ATOM     26  C   UNL     1       5.669   4.166  14.445  0.00  0.00    +0.000 A 
ATOM     27  C   UNL     1       5.074   4.240  15.731  0.00  0.00    +0.000 A 
ENDBRANCH  16  18
ENDBRANCH   1  16
TORSDOF 5
ENDMDL
MODEL 5
REMARK VINA RESULT:      -8.1      2.748      7.543
REMARK  Name = 
REMARK  5 active torsions:
REMARK  status: ('A' for Active; 'I' for Inactive)
REMARK    1  A    between atoms: S_2  and  N_4
REMARK    2  A    between atoms: S_2  and  C_17
REMARK    3  A    between atoms: N_4  and  C_5
REMARK    4  A    between atoms: C_10  and  C_11
REMARK    5  A    between atoms: C_11  and  N_12
REMARK                            x       y       z     vdW  Elec       q    Type
REMARK                         _______ _______ _______ _____ _____    ______ ____
ROOT
ATOM      1  N   UNL     1       1.756   5.756  18.138  0.00  0.00    +0.000 N 
ATOM      2  H   UNL     1       1.880   5.611  17.132  0.00  0.00    +0.000 HD
ENDROOT
BRANCH   1   3
ATOM      3  C   UNL     1       1.795   4.528  18.865  0.00  0.00    +0.000 A 
ATOM      4  C   UNL     1       1.171   4.469  20.131  0.00  0.00    +0.000 A 
ATOM      5  C   UNL     1       1.122   3.275  20.845  0.00  0.00    +0.000 A 
ATOM      6  C   UNL     1       1.668   2.117  20.300  0.00  0.00    +0.000 A 
ATOM      7  C   UNL     1       2.319   2.164  19.073  0.00  0.00    +0.000 A 
ATOM      8  C   UNL     1       2.428   3.371  18.354  0.00  0.00    +0.000 A 
BRANCH   8   9
ATOM      9  C   UNL     1       3.266   3.420  17.105  0.00  0.00    +0.000 C 
BRANCH   9  10
ATOM     10  N   UNL     1       4.577   3.979  17.374  0.00  0.00    +0.000 N 
ATOM     11  C   UNL     1       5.332   3.810  18.498  0.00  0.00    +0.000 A 
ATOM     12  N   UNL     1       6.472   4.443  18.365  0.00  0.00    +0.000 NA
ATOM     13  C   UNL     1       6.374   4.991  17.121  0.00  0.00    +0.000 A 
ATOM     14  N   UNL     1       5.248   4.716  16.459  0.00  0.00    +0.000 NA
ENDBRANCH   9  10
ENDBRANCH   8   9
ENDBRANCH   1   3
BRANCH   1  16
ATOM     15  O   UNL     1       3.750   6.338  19.676  0.00  0.00    +0.000 OA
ATOM     16  S   UNL     1       2.919   6.920  18.643  0.00  0.00    +0.000 S 
ATOM     17  O   UNL     1       3.465   7.514  17.442  0.00  0.00    +0.000 OA
BRANCH  16  18
ATOM     18  C   UNL     1       1.880   8.141  19.410  0.00  0.00    +0.000 A 
ATOM     19  C   UNL     1       1.417   9.173  18.602  0.00  0.00    +0.000 A 
ATOM     20  C   UNL     1       0.815  10.271  19.198  0.00  0.00    +0.000 A 
ATOM     21  C   UNL     1       0.537  10.279  20.568  0.00  0.00    +0.000 A 
ATOM     22  C   UNL     1      -0.031  11.417  21.143  0.00  0.00    +0.000 A 
ATOM     23  C   UNL     1      -0.807  11.295  22.283  0.00  0.00    +0.000 A 
ATOM     24  C   UNL     1      -0.746  10.113  23.013  0.00  0.00    +0.000 A 
ATOM     25  C   UNL     1       0.141   9.093  22.621  0.00  0.00    +0.000 A 
ATOM     26  C   UNL     1       0.769   9.135  21.353  0.00  0.00    +0.000 A 
ATOM     27  C   UNL     1       1.568   8.109  20.783  0.00  0.00    +0.000 A 
ENDBRANCH  16  18
ENDBRANCH   1  16
TORSDOF 5
ENDMDL
MODEL 6
REMARK VINA RESULT:      -8.0      2.312      7.585
REMARK  Name = 
REMARK  5 active torsions:
REMARK  status: ('A' for Active; 'I' for Inactive)
REMARK    1  A    between atoms: S_2  and  N_4
REMARK    2  A    between atoms: S_2  and  C_17
REMARK    3  A    between atoms: N_4  and  C_5
REMARK    4  A    between atoms: C_10  and  C_11
REMARK    5  A    between atoms: C_11  and  N_12
REMARK                            x       y       z     vdW  Elec       q    Type
REMARK                         _______ _______ _______ _____ _____    ______ ____
ROOT
ATOM      1  N   UNL     1       2.128   5.603  17.864  0.00  0.00    +0.000 N 
ATOM      2  H   UNL     1       2.031   5.726  16.852  0.00  0.00    +0.000 HD
ENDROOT
BRANCH   1   3
ATOM      3  C   UNL     1       2.493   4.266  18.209  0.00  0.00    +0.000 A 
ATOM      4  C   UNL     1       1.909   3.677  19.352  0.00  0.00    +0.000 A 
ATOM      5  C   UNL     1       2.180   2.353  19.687  0.00  0.00    +0.000 A 
ATOM      6  C   UNL     1       3.013   1.589  18.878  0.00  0.00    +0.000 A 
ATOM      7  C   UNL     1       3.627   2.162  17.770  0.00  0.00    +0.000 A 
ATOM      8  C   UNL     1       3.410   3.515  17.438  0.00  0.00    +0.000 A 
BRANCH   8   9
ATOM      9  C   UNL     1       4.202   4.143  16.325  0.00  0.00    +0.000 C 
BRANCH   9  10
ATOM     10  N   UNL     1       5.598   4.291  16.692  0.00  0.00    +0.000 N 
ATOM     11  C   UNL     1       6.671   4.344  15.851  0.00  0.00    +0.000 A 
ATOM     12  N   UNL     1       7.770   4.514  16.546  0.00  0.00    +0.000 NA
ATOM     13  C   UNL     1       7.315   4.566  17.830  0.00  0.00    +0.000 A 
ATOM     14  N   UNL     1       5.992   4.463  17.975  0.00  0.00    +0.000 NA
ENDBRANCH   9  10
ENDBRANCH   8   9
ENDBRANCH   1   3
BRANCH   1  16
ATOM     15  O   UNL     1       4.011   6.254  19.509  0.00  0.00    +0.000 OA
ATOM     16  S   UNL     1       3.215   6.808  18.434  0.00  0.00    +0.000 S 
ATOM     17  O   UNL     1       3.801   7.429  17.266  0.00  0.00    +0.000 OA
BRANCH  16  18
ATOM     18  C   UNL     1       2.089   7.984  19.148  0.00  0.00    +0.000 A 
ATOM     19  C   UNL     1       1.554   8.943  18.295  0.00  0.00    +0.000 A 
ATOM     20  C   UNL     1       0.873  10.020  18.842  0.00  0.00    +0.000 A 
ATOM     21  C   UNL     1       0.593  10.070  20.211  0.00  0.00    +0.000 A 
ATOM     22  C   UNL     1      -0.056  11.188  20.735  0.00  0.00    +0.000 A 
ATOM     23  C   UNL     1      -0.823  11.062  21.880  0.00  0.00    +0.000 A 
ATOM     24  C   UNL     1      -0.677   9.922  22.663  0.00  0.00    +0.000 A 
ATOM     25  C   UNL     1       0.282   8.951  22.315  0.00  0.00    +0.000 A 
ATOM     26  C   UNL     1       0.907   8.981  21.045  0.00  0.00    +0.000 A 
ATOM     27  C   UNL     1       1.778   7.992  20.521  0.00  0.00    +0.000 A 
ENDBRANCH  16  18
ENDBRANCH   1  16
TORSDOF 5
ENDMDL
MODEL 7
REMARK VINA RESULT:      -7.8      2.740      6.980
REMARK  Name = 
REMARK  5 active torsions:
REMARK  status: ('A' for Active; 'I' for Inactive)
REMARK    1  A    between atoms: S_2  and  N_4
REMARK    2  A    between atoms: S_2  and  C_17
REMARK    3  A    between atoms: N_4  and  C_5
REMARK    4  A    between atoms: C_10  and  C_11
REMARK    5  A    between atoms: C_11  and  N_12
REMARK                            x       y       z     vdW  Elec       q    Type
REMARK                         _______ _______ _______ _____ _____    ______ ____
ROOT
ATOM      1  N   UNL     1       5.047   3.552  17.242  0.00  0.00    +0.000 N 
ATOM      2  H   UNL     1       4.604   3.743  16.338  0.00  0.00    +0.000 HD
ENDROOT
BRANCH   1   3
ATOM      3  C   UNL     1       5.904   4.616  17.655  0.00  0.00    +0.000 A 
ATOM      4  C   UNL     1       6.474   4.565  18.946  0.00  0.00    +0.000 A 
ATOM      5  C   UNL     1       7.371   5.542  19.367  0.00  0.00    +0.000 A 
ATOM      6  C   UNL     1       7.736   6.568  18.502  0.00  0.00    +0.000 A 
ATOM      7  C   UNL     1       7.158   6.656  17.241  0.00  0.00    +0.000 A 
ATOM      8  C   UNL     1       6.207   5.708  16.810  0.00  0.00    +0.000 A 
BRANCH   8   9
ATOM      9  C   UNL     1       5.492   5.915  15.503  0.00  0.00    +0.000 C 
BRANCH   9  10
ATOM     10  N   UNL     1       6.107   5.143  14.440  0.00  0.00    +0.000 N 
ATOM     11  C   UNL     1       5.565   4.086  13.768  0.00  0.00    +0.000 A 
ATOM     12  N   UNL     1       6.406   3.664  12.855  0.00  0.00    +0.000 NA
ATOM     13  C   UNL     1       7.466   4.508  13.001  0.00  0.00    +0.000 A 
ATOM     14  N   UNL     1       7.325   5.450  13.938  0.00  0.00    +0.000 NA
ENDBRANCH   9  10
ENDBRANCH   8   9
ENDBRANCH   1   3
BRANCH   1  16
ATOM     15  O   UNL     1       2.716   2.516  17.654  0.00  0.00    +0.000 OA
ATOM     16  S   UNL     1       3.798   3.167  18.361  0.00  0.00    +0.000 S 
ATOM     17  O   UNL     1       4.438   2.584  19.520  0.00  0.00    +0.000 OA
BRANCH  16  18
ATOM     18  C   UNL     1       3.237   4.788  18.828  0.00  0.00    +0.000 A 
ATOM     19  C   UNL     1       3.092   5.038  20.188  0.00  0.00    +0.000 A 
ATOM     20  C   UNL     1       2.431   6.188  20.591  0.00  0.00    +0.000 A 
ATOM     21  C   UNL     1       2.049   7.158  19.659  0.00  0.00    +0.000 A 
ATOM     22  C   UNL     1       1.347   8.283  20.093  0.00  0.00    +0.000 A 
ATOM     23  C   UNL     1       1.440   9.467  19.380  0.00  0.00    +0.000 A 
ATOM     24  C   UNL     1       1.957   9.433  18.089  0.00  0.00    +0.000 A 
ATOM     25  C   UNL     1       2.317   8.202  17.510  0.00  0.00    +0.000 A 
ATOM     26  C   UNL     1       2.418   7.036  18.307  0.00  0.00    +0.000 A 
ATOM     27  C   UNL     1       2.903   5.773  17.878  0.00  0.00    +0.000 A 
ENDBRANCH  16  18
ENDBRANCH   1  16
TORSDOF 5
ENDMDL
MODEL 8
REMARK VINA RESULT:      -7.7      3.191      7.609
REMARK  Name = 
REMARK  5 active torsions:
REMARK  status: ('A' for Active; 'I' for Inactive)
REMARK    1  A    between atoms: S_2  and  N_4
REMARK    2  A    between atoms: S_2  and  C_17
REMARK    3  A    between atoms: N_4  and  C_5
REMARK    4  A    between atoms: C_10  and  C_11
REMARK    5  A    between atoms: C_11  and  N_12
REMARK                            x       y       z     vdW  Elec       q    Type
REMARK                         _______ _______ _______ _____ _____    ______ ____
ROOT
ATOM      1  N   UNL     1       3.596   6.332  19.608  0.00  0.00    +0.000 N 
ATOM      2  H   UNL     1       3.449   6.901  20.447  0.00  0.00    +0.000 HD
ENDROOT
BRANCH   1   3
ATOM      3  C   UNL     1       3.319   4.951  19.840  0.00  0.00    +0.000 A 
ATOM      4  C   UNL     1       2.541   4.595  20.963  0.00  0.00    +0.000 A 
ATOM      5  C   UNL     1       2.185   3.269  21.191  0.00  0.00    +0.000 A 
ATOM      6  C   UNL     1       2.576   2.281  20.293  0.00  0.00    +0.000 A 
ATOM      7  C   UNL     1       3.374   2.607  19.203  0.00  0.00    +0.000 A 
ATOM      8  C   UNL     1       3.790   3.935  18.977  0.00  0.00    +0.000 A 
BRANCH   8   9
ATOM      9  C   UNL     1       4.773   4.229  17.877  0.00  0.00    +0.000 C 
BRANCH   9  10
ATOM     10  N   UNL     1       5.926   4.950  18.381  0.00  0.00    +0.000 N 
ATOM     11  C   UNL     1       6.643   5.914  17.734  0.00  0.00    +0.000 A 
ATOM     12  N   UNL     1       7.596   6.358  18.519  0.00  0.00    +0.000 NA
ATOM     13  C   UNL     1       7.419   5.630  19.657  0.00  0.00    +0.000 A 
ATOM     14  N   UNL     1       6.394   4.773  19.638  0.00  0.00    +0.000 NA
ENDBRANCH   9  10
ENDBRANCH   8   9
ENDBRANCH   1   3
BRANCH   1  16
ATOM     15  O   UNL     1       3.577   7.739  17.441  0.00  0.00    +0.000 OA
ATOM     16  S   UNL     1       2.679   7.038  18.334  0.00  0.00    +0.000 S 
ATOM     17  O   UNL     1       1.751   6.028  17.876  0.00  0.00    +0.000 OA
BRANCH  16  18
ATOM     18  C   UNL     1       1.737   8.259  19.218  0.00  0.00    +0.000 A 
ATOM     19  C   UNL     1       1.284   9.354  18.492  0.00  0.00    +0.000 A 
ATOM     20  C   UNL     1       0.764  10.443  19.175  0.00  0.00    +0.000 A 
ATOM     21  C   UNL     1       0.554  10.386  20.557  0.00  0.00    +0.000 A 
ATOM     22  C   UNL     1       0.069  11.514  21.220  0.00  0.00    +0.000 A 
ATOM     23  C   UNL     1      -0.656  11.363  22.390  0.00  0.00    +0.000 A 
ATOM     24  C   UNL     1      -0.614  10.141  23.052  0.00  0.00    +0.000 A 
ATOM     25  C   UNL     1       0.204   9.105  22.560  0.00  0.00    +0.000 A 
ATOM     26  C   UNL     1       0.770   9.191  21.266  0.00  0.00    +0.000 A 
ATOM     27  C   UNL     1       1.491   8.164  20.602  0.00  0.00    +0.000 A 
ENDBRANCH  16  18
ENDBRANCH   1  16
TORSDOF 5
ENDMDL
MODEL 9
REMARK VINA RESULT:      -7.7      2.447      7.339
REMARK  Name = 
REMARK  5 active torsions:
REMARK  status: ('A' for Active; 'I' for Inactive)
REMARK    1  A    between atoms: S_2  and  N_4
REMARK    2  A    between atoms: S_2  and  C_17
REMARK    3  A    between atoms: N_4  and  C_5
REMARK    4  A    between atoms: C_10  and  C_11
REMARK    5  A    between atoms: C_11  and  N_12
REMARK                            x       y       z     vdW  Elec       q    Type
REMARK                         _______ _______ _______ _____ _____    ______ ____
ROOT
ATOM      1  N   UNL     1       3.238   5.939  19.854  0.00  0.00    +0.000 N 
ATOM      2  H   UNL     1       2.898   6.437  20.681  0.00  0.00    +0.000 HD
ENDROOT
BRANCH   1   3
ATOM      3  C   UNL     1       2.773   4.589  19.812  0.00  0.00    +0.000 A 
ATOM      4  C   UNL     1       1.437   4.321  20.180  0.00  0.00    +0.000 A 
ATOM      5  C   UNL     1       0.918   3.032  20.088  0.00  0.00    +0.000 A 
ATOM      6  C   UNL     1       1.712   1.998  19.603  0.00  0.00    +0.000 A 
ATOM      7  C   UNL     1       3.040   2.235  19.270  0.00  0.00    +0.000 A 
ATOM      8  C   UNL     1       3.604   3.520  19.404  0.00  0.00    +0.000 A 
BRANCH   8   9
ATOM      9  C   UNL     1       5.079   3.712  19.180  0.00  0.00    +0.000 C 
BRANCH   9  10
ATOM     10  N   UNL     1       5.350   4.165  17.829  0.00  0.00    +0.000 N 
ATOM     11  C   UNL     1       6.486   4.770  17.373  0.00  0.00    +0.000 A 
ATOM     12  N   UNL     1       6.376   5.008  16.088  0.00  0.00    +0.000 NA
ATOM     13  C   UNL     1       5.139   4.519  15.791  0.00  0.00    +0.000 A 
ATOM     14  N   UNL     1       4.478   3.967  16.813  0.00  0.00    +0.000 NA
ENDBRANCH   9  10
ENDBRANCH   8   9
ENDBRANCH   1   3
BRANCH   1  16
ATOM     15  O   UNL     1       4.030   7.431  17.899  0.00  0.00    +0.000 OA
ATOM     16  S   UNL     1       2.822   6.879  18.474  0.00  0.00    +0.000 S 
ATOM     17  O   UNL     1       1.875   6.099  17.706  0.00  0.00    +0.000 OA
BRANCH  16  18
ATOM     18  C   UNL     1       1.920   8.216  19.222  0.00  0.00    +0.000 A 
ATOM     19  C   UNL     1       1.598   8.084  20.568  0.00  0.00    +0.000 A 
ATOM     20  C   UNL     1       0.693   8.972  21.130  0.00  0.00    +0.000 A 
ATOM     21  C   UNL     1       0.228  10.074  20.405  0.00  0.00    +0.000 A 
ATOM     22  C   UNL     1      -0.714  10.924  20.986  0.00  0.00    +0.000 A 
ATOM     23  C   UNL     1      -0.778  12.250  20.589  0.00  0.00    +0.000 A 
ATOM     24  C   UNL     1      -0.141  12.629  19.413  0.00  0.00    +0.000 A 
ATOM     25  C   UNL     1       0.502  11.660  18.620  0.00  0.00    +0.000 A 
ATOM     26  C   UNL     1       0.744  10.361  19.128  0.00  0.00    +0.000 A 
ATOM     27  C   UNL     1       1.500   9.343  18.490  0.00  0.00    +0.000 A 
ENDBRANCH  16  18
ENDBRANCH   1  16
TORSDOF 5
ENDMDL
