MODEL 1
REMARK VINA RESULT:      -9.1      0.000      0.000
REMARK  Name = 
REMARK  3 active torsions:
REMARK  status: ('A' for Active; 'I' for Inactive)
REMARK    1  A    between atoms: C_11  and  C_12
REMARK    2  A    between atoms: C_12  and  N_13
REMARK    3  A    between atoms: C_16  and  C_17
REMARK                            x       y       z     vdW  Elec       q    Type
REMARK                         _______ _______ _______ _____ _____    ______ ____
ROOT
ATOM      1  C   UNL     1       5.631   6.471  17.217  0.00  0.00    +0.000 C 
ENDROOT
BRANCH   1  12
ATOM      2  O   UNL     1       7.019   4.479  18.691  0.00  0.00    +0.000 OA
ATOM      3  C   UNL     1       5.803   4.406  18.743  0.00  0.00    +0.000 A 
ATOM      4  N   UNL     1       5.141   3.429  19.441  0.00  0.00    +0.000 N 
ATOM      5  C   UNL     1       3.757   3.474  19.626  0.00  0.00    +0.000 A 
ATOM      6  C   UNL     1       3.136   2.510  20.420  0.00  0.00    +0.000 A 
ATOM      7  C   UNL     1       1.764   2.595  20.654  0.00  0.00    +0.000 A 
ATOM      8  C   UNL     1       1.025   3.639  20.097  0.00  0.00    +0.000 A 
ATOM      9  C   UNL     1       1.655   4.594  19.292  0.00  0.00    +0.000 A 
ATOM     10  C   UNL     1       3.027   4.521  19.041  0.00  0.00    +0.000 A 
ATOM     11  N   UNL     1       3.633   5.498  18.223  0.00  0.00    +0.000 NA
ATOM     12  C   UNL     1       4.927   5.446  18.056  0.00  0.00    +0.000 A 
ATOM     13  H   UNL     1       5.704   2.727  19.898  0.00  0.00    +0.000 HD
ENDBRANCH   1  12
BRANCH   1  14
ATOM     14  N   UNL     1       6.151   5.926  15.981  0.00  0.00    +0.000 N 
ATOM     15  N   UNL     1       7.467   5.957  15.703  0.00  0.00    +0.000 NA
ATOM     16  N   UNL     1       7.602   5.208  14.618  0.00  0.00    +0.000 NA
ATOM     17  C   UNL     1       6.352   4.733  14.295  0.00  0.00    +0.000 A 
ATOM     18  N   UNL     1       5.414   5.139  15.170  0.00  0.00    +0.000 NA
BRANCH  17  19
ATOM     19  C   UNL     1       6.104   3.867  13.146  0.00  0.00    +0.000 A 
ATOM     20  C   UNL     1       7.129   3.078  12.598  0.00  0.00    +0.000 A 
ATOM     21  C   UNL     1       6.889   2.256  11.490  0.00  0.00    +0.000 A 
ATOM     22  C   UNL     1       5.620   2.216  10.917  0.00  0.00    +0.000 A 
ATOM     23  C   UNL     1       4.596   2.991  11.456  0.00  0.00    +0.000 A 
ATOM     24 CL   UNL     1       3.028   2.941  10.745  0.00  0.00    +0.000 Cl
ATOM     25  C   UNL     1       4.829   3.809  12.563  0.00  0.00    +0.000 A 
ENDBRANCH  17  19
ENDBRANCH   1  14
TORSDOF 3
ENDMDL
MODEL 2
REMARK VINA RESULT:      -8.9      4.845      7.092
REMARK  Name = 
REMARK  3 active torsions:
REMARK  status: ('A' for Active; 'I' for Inactive)
REMARK    1  A    between atoms: C_11  and  C_12
REMARK    2  A    between atoms: C_12  and  N_13
REMARK    3  A    between atoms: C_16  and  C_17
REMARK                            x       y       z     vdW  Elec       q    Type
REMARK                         _______ _______ _______ _____ _____    ______ ____
ROOT
ATOM      1  C   UNL     1       7.632   5.461  18.489  0.00  0.00    +0.000 C 
ENDROOT
BRANCH   1  12
ATOM      2  O   UNL     1       6.694   4.143  16.155  0.00  0.00    +0.000 OA
ATOM      3  C   UNL     1       5.831   4.432  16.967  0.00  0.00    +0.000 A 
ATOM      4  N   UNL     1       4.500   4.163  16.772  0.00  0.00    +0.000 N 
ATOM      5  C   UNL     1       3.562   4.345  17.791  0.00  0.00    +0.000 A 
ATOM      6  C   UNL     1       2.235   3.973  17.579  0.00  0.00    +0.000 A 
ATOM      7  C   UNL     1       1.314   4.097  18.620  0.00  0.00    +0.000 A 
ATOM      8  C   UNL     1       1.725   4.588  19.859  0.00  0.00    +0.000 A 
ATOM      9  C   UNL     1       3.056   4.971  20.057  0.00  0.00    +0.000 A 
ATOM     10  C   UNL     1       3.990   4.860  19.025  0.00  0.00    +0.000 A 
ATOM     11  N   UNL     1       5.325   5.256  19.255  0.00  0.00    +0.000 NA
ATOM     12  C   UNL     1       6.193   5.083  18.296  0.00  0.00    +0.000 A 
ATOM     13  H   UNL     1       4.240   3.737  15.895  0.00  0.00    +0.000 HD
ENDBRANCH   1  12
BRANCH   1  14
ATOM     14  N   UNL     1       7.896   6.849  18.171  0.00  0.00    +0.000 N 
ATOM     15  N   UNL     1       7.196   7.493  17.221  0.00  0.00    +0.000 NA
ATOM     16  N   UNL     1       7.552   8.764  17.340  0.00  0.00    +0.000 NA
ATOM     17  C   UNL     1       8.447   8.838  18.383  0.00  0.00    +0.000 A 
ATOM     18  N   UNL     1       8.654   7.640  18.959  0.00  0.00    +0.000 NA
BRANCH  17  19
ATOM     19  C   UNL     1       9.066  10.090  18.811  0.00  0.00    +0.000 A 
ATOM     20  C   UNL     1       9.207  10.400  20.174  0.00  0.00    +0.000 A 
ATOM     21  C   UNL     1       9.792  11.605  20.579  0.00  0.00    +0.000 A 
ATOM     22  C   UNL     1      10.243  12.515  19.624  0.00  0.00    +0.000 A 
ATOM     23  C   UNL     1      10.112  12.214  18.271  0.00  0.00    +0.000 A 
ATOM     24 CL   UNL     1      10.668  13.340  17.092  0.00  0.00    +0.000 Cl
ATOM     25  C   UNL     1       9.532  11.011  17.861  0.00  0.00    +0.000 A 
ENDBRANCH  17  19
ENDBRANCH   1  14
TORSDOF 3
ENDMDL
MODEL 3
REMARK VINA RESULT:      -8.9      1.074      1.456
REMARK  Name = 
REMARK  3 active torsions:
REMARK  status: ('A' for Active; 'I' for Inactive)
REMARK    1  A    between atoms: C_11  and  C_12
REMARK    2  A    between atoms: C_12  and  N_13
REMARK    3  A    between atoms: C_16  and  C_17
REMARK                            x       y       z     vdW  Elec       q    Type
REMARK                         _______ _______ _______ _____ _____    ______ ____
ROOT
ATOM      1  C   UNL     1       5.697   6.551  17.521  0.00  0.00    +0.000 C 
ENDROOT
BRANCH   1  12
ATOM      2  O   UNL     1       6.990   4.293  18.659  0.00  0.00    +0.000 OA
ATOM      3  C   UNL     1       5.785   4.340  18.835  0.00  0.00    +0.000 A 
ATOM      4  N   UNL     1       5.089   3.373  19.514  0.00  0.00    +0.000 N 
ATOM      5  C   UNL     1       3.744   3.542  19.851  0.00  0.00    +0.000 A 
ATOM      6  C   UNL     1       3.100   2.574  20.621  0.00  0.00    +0.000 A 
ATOM      7  C   UNL     1       1.775   2.776  21.008  0.00  0.00    +0.000 A 
ATOM      8  C   UNL     1       1.107   3.939  20.627  0.00  0.00    +0.000 A 
ATOM      9  C   UNL     1       1.758   4.899  19.843  0.00  0.00    +0.000 A 
ATOM     10  C   UNL     1       3.082   4.710  19.441  0.00  0.00    +0.000 A 
ATOM     11  N   UNL     1       3.710   5.695  18.649  0.00  0.00    +0.000 NA
ATOM     12  C   UNL     1       4.967   5.527  18.339  0.00  0.00    +0.000 A 
ATOM     13  H   UNL     1       5.612   2.576  19.846  0.00  0.00    +0.000 HD
ENDBRANCH   1  12
BRANCH   1  14
ATOM     14  N   UNL     1       6.133   6.040  16.238  0.00  0.00    +0.000 N 
ATOM     15  N   UNL     1       7.430   6.060  15.884  0.00  0.00    +0.000 NA
ATOM     16  N   UNL     1       7.487   5.346  14.768  0.00  0.00    +0.000 NA
ATOM     17  C   UNL     1       6.211   4.902  14.505  0.00  0.00    +0.000 A 
ATOM     18  N   UNL     1       5.335   5.294  15.447  0.00  0.00    +0.000 NA
BRANCH  17  19
ATOM     19  C   UNL     1       5.880   4.080  13.344  0.00  0.00    +0.000 A 
ATOM     20  C   UNL     1       4.566   4.021  12.849  0.00  0.00    +0.000 A 
ATOM     21  C   UNL     1       4.252   3.224  11.742  0.00  0.00    +0.000 A 
ATOM     22  C   UNL     1       5.248   2.477  11.117  0.00  0.00    +0.000 A 
ATOM     23  C   UNL     1       6.555   2.534  11.598  0.00  0.00    +0.000 A 
ATOM     24 CL   UNL     1       7.785   1.609  10.825  0.00  0.00    +0.000 Cl
ATOM     25  C   UNL     1       6.874   3.329  12.700  0.00  0.00    +0.000 A 
ENDBRANCH  17  19
ENDBRANCH   1  14
TORSDOF 3
ENDMDL
MODEL 4
REMARK VINA RESULT:      -8.7      5.032      7.135
REMARK  Name = 
REMARK  3 active torsions:
REMARK  status: ('A' for Active; 'I' for Inactive)
REMARK    1  A    between atoms: C_11  and  C_12
REMARK    2  A    between atoms: C_12  and  N_13
REMARK    3  A    between atoms: C_16  and  C_17
REMARK                            x       y       z     vdW  Elec       q    Type
REMARK                         _______ _______ _______ _____ _____    ______ ____
ROOT
ATOM      1  C   UNL     1       7.589   5.740  18.757  0.00  0.00    +0.000 C 
ENDROOT
BRANCH   1  12
ATOM      2  O   UNL     1       6.967   4.216  16.442  0.00  0.00    +0.000 OA
ATOM      3  C   UNL     1       6.019   4.461  17.168  0.00  0.00    +0.000 A 
ATOM      4  N   UNL     1       4.739   4.054  16.892  0.00  0.00    +0.000 N 
ATOM      5  C   UNL     1       3.710   4.196  17.825  0.00  0.00    +0.000 A 
ATOM      6  C   UNL     1       2.444   3.686  17.538  0.00  0.00    +0.000 A 
ATOM      7  C   UNL     1       1.436   3.773  18.498  0.00  0.00    +0.000 A 
ATOM      8  C   UNL     1       1.699   4.367  19.732  0.00  0.00    +0.000 A 
ATOM      9  C   UNL     1       2.968   4.887  20.006  0.00  0.00    +0.000 A 
ATOM     10  C   UNL     1       3.988   4.814  19.055  0.00  0.00    +0.000 A 
ATOM     11  N   UNL     1       5.257   5.351  19.360  0.00  0.00    +0.000 NA
ATOM     12  C   UNL     1       6.212   5.213  18.480  0.00  0.00    +0.000 A 
ATOM     13  H   UNL     1       4.590   3.559  16.024  0.00  0.00    +0.000 HD
ENDBRANCH   1  12
BRANCH   1  14
ATOM     14  N   UNL     1       7.804   7.065  18.215  0.00  0.00    +0.000 N 
ATOM     15  N   UNL     1       7.049   7.538  17.208  0.00  0.00    +0.000 NA
ATOM     16  N   UNL     1       7.377   8.819  17.111  0.00  0.00    +0.000 NA
ATOM     17  C   UNL     1       8.311   9.073  18.088  0.00  0.00    +0.000 A 
ATOM     18  N   UNL     1       8.572   7.985  18.835  0.00  0.00    +0.000 NA
BRANCH  17  19
ATOM     19  C   UNL     1       8.914  10.388  18.288  0.00  0.00    +0.000 A 
ATOM     20  C   UNL     1       8.334  11.543  17.735  0.00  0.00    +0.000 A 
ATOM     21  C   UNL     1       8.920  12.800  17.921  0.00  0.00    +0.000 A 
ATOM     22  C   UNL     1      10.095  12.917  18.662  0.00  0.00    +0.000 A 
ATOM     23  C   UNL     1      10.674  11.778  19.218  0.00  0.00    +0.000 A 
ATOM     24 CL   UNL     1      12.126  11.924  20.132  0.00  0.00    +0.000 Cl
ATOM     25  C   UNL     1      10.091  10.522  19.038  0.00  0.00    +0.000 A 
ENDBRANCH  17  19
ENDBRANCH   1  14
TORSDOF 3
ENDMDL
MODEL 5
REMARK VINA RESULT:      -8.7      3.752      7.842
REMARK  Name = 
REMARK  3 active torsions:
REMARK  status: ('A' for Active; 'I' for Inactive)
REMARK    1  A    between atoms: C_11  and  C_12
REMARK    2  A    between atoms: C_12  and  N_13
REMARK    3  A    between atoms: C_16  and  C_17
REMARK                            x       y       z     vdW  Elec       q    Type
REMARK                         _______ _______ _______ _____ _____    ______ ____
ROOT
ATOM      1  C   UNL     1       5.433   4.268  18.029  0.00  0.00    +0.000 C 
ENDROOT
BRANCH   1  12
ATOM      2  O   UNL     1       7.694   5.917  17.545  0.00  0.00    +0.000 OA
ATOM      3  C   UNL     1       7.185   5.434  16.548  0.00  0.00    +0.000 A 
ATOM      4  N   UNL     1       7.646   5.676  15.280  0.00  0.00    +0.000 N 
ATOM      5  C   UNL     1       7.155   4.973  14.177  0.00  0.00    +0.000 A 
ATOM      6  C   UNL     1       7.717   5.185  12.919  0.00  0.00    +0.000 A 
ATOM      7  C   UNL     1       7.267   4.436  11.831  0.00  0.00    +0.000 A 
ATOM      8  C   UNL     1       6.263   3.484  12.010  0.00  0.00    +0.000 A 
ATOM      9  C   UNL     1       5.697   3.288  13.274  0.00  0.00    +0.000 A 
ATOM     10  C   UNL     1       6.131   4.033  14.372  0.00  0.00    +0.000 A 
ATOM     11  N   UNL     1       5.538   3.814  15.634  0.00  0.00    +0.000 NA
ATOM     12  C   UNL     1       6.005   4.476  16.657  0.00  0.00    +0.000 A 
ATOM     13  H   UNL     1       8.424   6.313  15.186  0.00  0.00    +0.000 HD
ENDBRANCH   1  12
BRANCH   1  14
ATOM     14  N   UNL     1       4.170   4.950  18.222  0.00  0.00    +0.000 N 
ATOM     15  N   UNL     1       3.032   4.266  18.429  0.00  0.00    +0.000 NA
ATOM     16  N   UNL     1       2.138   5.187  18.762  0.00  0.00    +0.000 NA
ATOM     17  C   UNL     1       2.788   6.400  18.763  0.00  0.00    +0.000 A 
ATOM     18  N   UNL     1       4.093   6.275  18.464  0.00  0.00    +0.000 NA
BRANCH  17  19
ATOM     19  C   UNL     1       2.119   7.658  19.082  0.00  0.00    +0.000 A 
ATOM     20  C   UNL     1       1.913   8.639  18.098  0.00  0.00    +0.000 A 
ATOM     21  C   UNL     1       1.279   9.848  18.410  0.00  0.00    +0.000 A 
ATOM     22  C   UNL     1       0.846  10.089  19.713  0.00  0.00    +0.000 A 
ATOM     23  C   UNL     1       1.042   9.120  20.694  0.00  0.00    +0.000 A 
ATOM     24 CL   UNL     1       0.506   9.420  22.303  0.00  0.00    +0.000 Cl
ATOM     25  C   UNL     1       1.670   7.912  20.386  0.00  0.00    +0.000 A 
ENDBRANCH  17  19
ENDBRANCH   1  14
TORSDOF 3
ENDMDL
MODEL 6
REMARK VINA RESULT:      -8.6      5.057      8.337
REMARK  Name = 
REMARK  3 active torsions:
REMARK  status: ('A' for Active; 'I' for Inactive)
REMARK    1  A    between atoms: C_11  and  C_12
REMARK    2  A    between atoms: C_12  and  N_13
REMARK    3  A    between atoms: C_16  and  C_17
REMARK                            x       y       z     vdW  Elec       q    Type
REMARK                         _______ _______ _______ _____ _____    ______ ____
ROOT
ATOM      1  C   UNL     1       7.346   5.982  18.080  0.00  0.00    +0.000 C 
ENDROOT
BRANCH   1  12
ATOM      2  O   UNL     1       4.849   4.647  17.857  0.00  0.00    +0.000 OA
ATOM      3  C   UNL     1       5.542   4.616  16.854  0.00  0.00    +0.000 A 
ATOM      4  N   UNL     1       5.166   3.973  15.703  0.00  0.00    +0.000 N 
ATOM      5  C   UNL     1       5.897   4.104  14.520  0.00  0.00    +0.000 A 
ATOM      6  C   UNL     1       5.428   3.506  13.351  0.00  0.00    +0.000 A 
ATOM      7  C   UNL     1       6.128   3.691  12.158  0.00  0.00    +0.000 A 
ATOM      8  C   UNL     1       7.285   4.470  12.143  0.00  0.00    +0.000 A 
ATOM      9  C   UNL     1       7.755   5.055  13.325  0.00  0.00    +0.000 A 
ATOM     10  C   UNL     1       7.071   4.874  14.529  0.00  0.00    +0.000 A 
ATOM     11  N   UNL     1       7.571   5.475  15.704  0.00  0.00    +0.000 NA
ATOM     12  C   UNL     1       6.879   5.346  16.804  0.00  0.00    +0.000 A 
ATOM     13  H   UNL     1       4.285   3.479  15.718  0.00  0.00    +0.000 HD
ENDBRANCH   1  12
BRANCH   1  14
ATOM     14  N   UNL     1       7.731   7.368  17.910  0.00  0.00    +0.000 N 
ATOM     15  N   UNL     1       7.023   8.196  17.121  0.00  0.00    +0.000 NA
ATOM     16  N   UNL     1       7.525   9.400  17.359  0.00  0.00    +0.000 NA
ATOM     17  C   UNL     1       8.510   9.249  18.308  0.00  0.00    +0.000 A 
ATOM     18  N   UNL     1       8.635   7.971  18.709  0.00  0.00    +0.000 NA
BRANCH  17  19
ATOM     19  C   UNL     1       9.295  10.368  18.822  0.00  0.00    +0.000 A 
ATOM     20  C   UNL     1       9.386  10.616  20.202  0.00  0.00    +0.000 A 
ATOM     21  C   UNL     1      10.133  11.695  20.690  0.00  0.00    +0.000 A 
ATOM     22  C   UNL     1      10.796  12.539  19.802  0.00  0.00    +0.000 A 
ATOM     23  C   UNL     1      10.715  12.299  18.432  0.00  0.00    +0.000 A 
ATOM     24 CL   UNL     1      11.534  13.344  17.336  0.00  0.00    +0.000 Cl
ATOM     25  C   UNL     1       9.975  11.222  17.941  0.00  0.00    +0.000 A 
ENDBRANCH  17  19
ENDBRANCH   1  14
TORSDOF 3
ENDMDL
MODEL 7
REMARK VINA RESULT:      -8.5      0.976      1.657
REMARK  Name = 
REMARK  3 active torsions:
REMARK  status: ('A' for Active; 'I' for Inactive)
REMARK    1  A    between atoms: C_11  and  C_12
REMARK    2  A    between atoms: C_12  and  N_13
REMARK    3  A    between atoms: C_16  and  C_17
REMARK                            x       y       z     vdW  Elec       q    Type
REMARK                         _______ _______ _______ _____ _____    ______ ____
ROOT
ATOM      1  C   UNL     1       6.794   4.996  17.791  0.00  0.00    +0.000 C 
ENDROOT
BRANCH   1  12
ATOM      2  O   UNL     1       4.773   6.952  17.397  0.00  0.00    +0.000 OA
ATOM      3  C   UNL     1       4.467   6.037  18.142  0.00  0.00    +0.000 A 
ATOM      4  N   UNL     1       3.249   5.955  18.766  0.00  0.00    +0.000 N 
ATOM      5  C   UNL     1       2.864   4.811  19.470  0.00  0.00    +0.000 A 
ATOM      6  C   UNL     1       1.581   4.734  20.011  0.00  0.00    +0.000 A 
ATOM      7  C   UNL     1       1.179   3.566  20.659  0.00  0.00    +0.000 A 
ATOM      8  C   UNL     1       2.058   2.488  20.760  0.00  0.00    +0.000 A 
ATOM      9  C   UNL     1       3.348   2.579  20.225  0.00  0.00    +0.000 A 
ATOM     10  C   UNL     1       3.769   3.743  19.579  0.00  0.00    +0.000 A 
ATOM     11  N   UNL     1       5.077   3.806  19.052  0.00  0.00    +0.000 NA
ATOM     12  C   UNL     1       5.426   4.880  18.396  0.00  0.00    +0.000 A 
ATOM     13  H   UNL     1       2.601   6.714  18.615  0.00  0.00    +0.000 HD
ENDBRANCH   1  12
BRANCH   1  14
ATOM     14  N   UNL     1       6.771   5.002  16.343  0.00  0.00    +0.000 N 
ATOM     15  N   UNL     1       7.538   5.851  15.637  0.00  0.00    +0.000 NA
ATOM     16  N   UNL     1       7.420   5.448  14.380  0.00  0.00    +0.000 NA
ATOM     17  C   UNL     1       6.594   4.347  14.382  0.00  0.00    +0.000 A 
ATOM     18  N   UNL     1       6.198   4.014  15.624  0.00  0.00    +0.000 NA
BRANCH  17  19
ATOM     19  C   UNL     1       6.227   3.627  13.167  0.00  0.00    +0.000 A 
ATOM     20  C   UNL     1       7.162   2.830  12.485  0.00  0.00    +0.000 A 
ATOM     21  C   UNL     1       6.809   2.149  11.315  0.00  0.00    +0.000 A 
ATOM     22  C   UNL     1       5.513   2.257  10.812  0.00  0.00    +0.000 A 
ATOM     23  C   UNL     1       4.578   3.041  11.483  0.00  0.00    +0.000 A 
ATOM     24 CL   UNL     1       2.978   3.175  10.860  0.00  0.00    +0.000 Cl
ATOM     25  C   UNL     1       4.925   3.720  12.653  0.00  0.00    +0.000 A 
ENDBRANCH  17  19
ENDBRANCH   1  14
TORSDOF 3
ENDMDL
MODEL 8
REMARK VINA RESULT:      -8.5      5.033      7.170
REMARK  Name = 
REMARK  3 active torsions:
REMARK  status: ('A' for Active; 'I' for Inactive)
REMARK    1  A    between atoms: C_11  and  C_12
REMARK    2  A    between atoms: C_12  and  N_13
REMARK    3  A    between atoms: C_16  and  C_17
REMARK                            x       y       z     vdW  Elec       q    Type
REMARK                         _______ _______ _______ _____ _____    ______ ____
ROOT
ATOM      1  C   UNL     1       7.907   6.046  19.041  0.00  0.00    +0.000 C 
ENDROOT
BRANCH   1  12
ATOM      2  O   UNL     1       7.902   4.192  16.889  0.00  0.00    +0.000 OA
ATOM      3  C   UNL     1       6.804   4.445  17.355  0.00  0.00    +0.000 A 
ATOM      4  N   UNL     1       5.642   3.897  16.875  0.00  0.00    +0.000 N 
ATOM      5  C   UNL     1       4.425   4.067  17.539  0.00  0.00    +0.000 A 
ATOM      6  C   UNL     1       3.286   3.417  17.067  0.00  0.00    +0.000 A 
ATOM      7  C   UNL     1       2.086   3.539  17.768  0.00  0.00    +0.000 A 
ATOM      8  C   UNL     1       2.035   4.305  18.932  0.00  0.00    +0.000 A 
ATOM      9  C   UNL     1       3.181   4.964  19.392  0.00  0.00    +0.000 A 
ATOM     10  C   UNL     1       4.388   4.858  18.699  0.00  0.00    +0.000 A 
ATOM     11  N   UNL     1       5.526   5.537  19.185  0.00  0.00    +0.000 NA
ATOM     12  C   UNL     1       6.658   5.371  18.557  0.00  0.00    +0.000 A 
ATOM     13  H   UNL     1       5.718   3.285  16.076  0.00  0.00    +0.000 HD
ENDBRANCH   1  12
BRANCH   1  14
ATOM     14  N   UNL     1       8.111   7.349  18.442  0.00  0.00    +0.000 N 
ATOM     15  N   UNL     1       7.425   7.731  17.351  0.00  0.00    +0.000 NA
ATOM     16  N   UNL     1       7.705   9.019  17.207  0.00  0.00    +0.000 NA
ATOM     17  C   UNL     1       8.542   9.369  18.242  0.00  0.00    +0.000 A 
ATOM     18  N   UNL     1       8.784   8.336  19.069  0.00  0.00    +0.000 NA
BRANCH  17  19
ATOM     19  C   UNL     1       9.069  10.720  18.414  0.00  0.00    +0.000 A 
ATOM     20  C   UNL     1      10.326  10.938  19.003  0.00  0.00    +0.000 A 
ATOM     21  C   UNL     1      10.823  12.235  19.174  0.00  0.00    +0.000 A 
ATOM     22  C   UNL     1      10.068  13.330  18.758  0.00  0.00    +0.000 A 
ATOM     23  C   UNL     1       8.823  13.123  18.169  0.00  0.00    +0.000 A 
ATOM     24 CL   UNL     1       7.890  14.477  17.657  0.00  0.00    +0.000 Cl
ATOM     25  C   UNL     1       8.324  11.831  17.993  0.00  0.00    +0.000 A 
ENDBRANCH  17  19
ENDBRANCH   1  14
TORSDOF 3
ENDMDL
MODEL 9
REMARK VINA RESULT:      -8.4      2.819      3.844
REMARK  Name = 
REMARK  3 active torsions:
REMARK  status: ('A' for Active; 'I' for Inactive)
REMARK    1  A    between atoms: C_11  and  C_12
REMARK    2  A    between atoms: C_12  and  N_13
REMARK    3  A    between atoms: C_16  and  C_17
REMARK                            x       y       z     vdW  Elec       q    Type
REMARK                         _______ _______ _______ _____ _____    ______ ____
ROOT
ATOM      1  C   UNL     1       3.748   4.179  18.792  0.00  0.00    +0.000 C 
ENDROOT
BRANCH   1  12
ATOM      2  O   UNL     1       2.579   4.625  21.342  0.00  0.00    +0.000 OA
ATOM      3  C   UNL     1       2.409   5.521  20.533  0.00  0.00    +0.000 A 
ATOM      4  N   UNL     1       1.692   6.655  20.812  0.00  0.00    +0.000 N 
ATOM      5  C   UNL     1       1.663   7.737  19.929  0.00  0.00    +0.000 A 
ATOM      6  C   UNL     1       0.998   8.907  20.293  0.00  0.00    +0.000 A 
ATOM      7  C   UNL     1       1.024  10.007  19.436  0.00  0.00    +0.000 A 
ATOM      8  C   UNL     1       1.714   9.930  18.226  0.00  0.00    +0.000 A 
ATOM      9  C   UNL     1       2.368   8.748  17.863  0.00  0.00    +0.000 A 
ATOM     10  C   UNL     1       2.346   7.635  18.706  0.00  0.00    +0.000 A 
ATOM     11  N   UNL     1       3.013   6.455  18.311  0.00  0.00    +0.000 NA
ATOM     12  C   UNL     1       3.034   5.451  19.144  0.00  0.00    +0.000 A 
ATOM     13  H   UNL     1       1.265   6.718  21.725  0.00  0.00    +0.000 HD
ENDBRANCH   1  12
BRANCH   1  14
ATOM     14  N   UNL     1       4.824   4.382  17.844  0.00  0.00    +0.000 N 
ATOM     15  N   UNL     1       6.105   4.445  18.247  0.00  0.00    +0.000 NA
ATOM     16  N   UNL     1       6.814   4.430  17.127  0.00  0.00    +0.000 NA
ATOM     17  C   UNL     1       5.921   4.336  16.084  0.00  0.00    +0.000 A 
ATOM     18  N   UNL     1       4.648   4.261  16.512  0.00  0.00    +0.000 NA
BRANCH  17  19
ATOM     19  C   UNL     1       6.336   4.296  14.684  0.00  0.00    +0.000 A 
ATOM     20  C   UNL     1       7.369   5.122  14.211  0.00  0.00    +0.000 A 
ATOM     21  C   UNL     1       7.758   5.088  12.866  0.00  0.00    +0.000 A 
ATOM     22  C   UNL     1       7.115   4.226  11.979  0.00  0.00    +0.000 A 
ATOM     23  C   UNL     1       6.093   3.399  12.441  0.00  0.00    +0.000 A 
ATOM     24 CL   UNL     1       5.300   2.336  11.343  0.00  0.00    +0.000 Cl
ATOM     25  C   UNL     1       5.705   3.428  13.781  0.00  0.00    +0.000 A 
ENDBRANCH  17  19
ENDBRANCH   1  14
TORSDOF 3
ENDMDL
