MODEL 1
REMARK VINA RESULT:      -8.9      0.000      0.000
REMARK  Name = 
REMARK  6 active torsions:
REMARK  status: ('A' for Active; 'I' for Inactive)
REMARK    1  A    between atoms: C_1  and  C_2
REMARK    2  A    between atoms: C_4  and  C_5
REMARK    3  A    between atoms: C_7  and  N_8
REMARK    4  A    between atoms: C_10  and  C_11
REMARK    5  A    between atoms: N_13  and  C_14
REMARK    6  A    between atoms: C_26  and  C_27
REMARK                            x       y       z     vdW  Elec       q    Type
REMARK                         _______ _______ _______ _____ _____    ______ ____
ROOT
ATOM      1  C   UNL     1       1.469   8.744  19.578  0.00  0.00    +0.000 C 
ATOM      2  O   UNL     1       1.779   8.419  20.720  0.00  0.00    +0.000 OA
ATOM      3  N   UNL     1       2.031   8.236  18.411  0.00  0.00    +0.000 N 
ATOM      4  H   UNL     1       1.779   8.730  17.561  0.00  0.00    +0.000 HD
ENDROOT
BRANCH   3   5
ATOM      5  C   UNL     1       3.051   7.255  18.364  0.00  0.00    +0.000 A 
ATOM      6  C   UNL     1       3.094   6.199  19.286  0.00  0.00    +0.000 A 
ATOM      7  C   UNL     1       4.169   5.312  19.323  0.00  0.00    +0.000 A 
ATOM      8  C   UNL     1       5.203   5.455  18.412  0.00  0.00    +0.000 A 
ATOM      9  C   UNL     1       5.143   6.446  17.429  0.00  0.00    +0.000 A 
ATOM     10  C   UNL     1       4.063   7.344  17.401  0.00  0.00    +0.000 A 
ATOM     11  O   UNL     1       6.139   6.645  16.509  0.00  0.00    +0.000 OA
ATOM     12  C   UNL     1       7.093   5.591  16.427  0.00  0.00    +0.000 C 
ATOM     13  C   UNL     1       7.353   4.699  17.638  0.00  0.00    +0.000 C 
ATOM     14  O   UNL     1       8.370   4.025  17.784  0.00  0.00    +0.000 OA
ATOM     15  N   UNL     1       6.320   4.630  18.528  0.00  0.00    +0.000 N 
ATOM     16  H   UNL     1       6.422   3.999  19.311  0.00  0.00    +0.000 HD
ENDBRANCH   3   5
BRANCH   1  19
ATOM     17  N   UNL     1      -1.267  10.877  18.713  0.00  0.00    +0.000 N 
ATOM     18  N   UNL     1      -0.721   9.625  18.787  0.00  0.00    +0.000 NA
ATOM     19  C   UNL     1       0.472   9.805  19.380  0.00  0.00    +0.000 A 
ATOM     20  C   UNL     1       0.635  11.148  19.794  0.00  0.00    +0.000 A 
ATOM     21  C   UNL     1      -0.499  11.814  19.390  0.00  0.00    +0.000 A 
ATOM     22  C   UNL     1      -0.898  13.215  19.688  0.00  0.00    +0.000 C 
BRANCH  17  29
ATOM     23  C   UNL     1      -3.817  10.344  14.503  0.00  0.00    +0.000 C 
ATOM     24  C   UNL     1      -3.739  10.833  15.919  0.00  0.00    +0.000 A 
ATOM     25  C   UNL     1      -4.839  11.423  16.549  0.00  0.00    +0.000 A 
ATOM     26  C   UNL     1      -4.767  11.830  17.888  0.00  0.00    +0.000 A 
ATOM     27  C   UNL     1      -5.940  12.480  18.559  0.00  0.00    +0.000 C 
ATOM     28  C   UNL     1      -3.577  11.634  18.604  0.00  0.00    +0.000 A 
ATOM     29  C   UNL     1      -2.459  11.075  17.972  0.00  0.00    +0.000 A 
ATOM     30  C   UNL     1      -2.547  10.673  16.635  0.00  0.00    +0.000 A 
ENDBRANCH  17  29
ENDBRANCH   1  19
TORSDOF 3
ENDMDL
MODEL 2
REMARK VINA RESULT:      -8.9      4.660     10.438
REMARK  Name = 
REMARK  6 active torsions:
REMARK  status: ('A' for Active; 'I' for Inactive)
REMARK    1  A    between atoms: C_1  and  C_2
REMARK    2  A    between atoms: C_4  and  C_5
REMARK    3  A    between atoms: C_7  and  N_8
REMARK    4  A    between atoms: C_10  and  C_11
REMARK    5  A    between atoms: N_13  and  C_14
REMARK    6  A    between atoms: C_26  and  C_27
REMARK                            x       y       z     vdW  Elec       q    Type
REMARK                         _______ _______ _______ _____ _____    ______ ____
ROOT
ATOM      1  C   UNL     1      -0.012  10.293  22.310  0.00  0.00    +0.000 C 
ATOM      2  O   UNL     1       0.156   9.980  23.485  0.00  0.00    +0.000 OA
ATOM      3  N   UNL     1      -0.789  11.356  21.860  0.00  0.00    +0.000 N 
ATOM      4  H   UNL     1      -0.955  11.374  20.859  0.00  0.00    +0.000 HD
ENDROOT
BRANCH   3   5
ATOM      5  C   UNL     1      -1.506  12.246  22.695  0.00  0.00    +0.000 A 
ATOM      6  C   UNL     1      -2.742  11.889  23.255  0.00  0.00    +0.000 A 
ATOM      7  C   UNL     1      -3.510  12.811  23.965  0.00  0.00    +0.000 A 
ATOM      8  C   UNL     1      -3.031  14.097  24.152  0.00  0.00    +0.000 A 
ATOM      9  C   UNL     1      -1.765  14.453  23.679  0.00  0.00    +0.000 A 
ATOM     10  C   UNL     1      -1.000  13.524  22.954  0.00  0.00    +0.000 A 
ATOM     11  O   UNL     1      -1.243  15.712  23.822  0.00  0.00    +0.000 OA
ATOM     12  C   UNL     1      -1.940  16.545  24.742  0.00  0.00    +0.000 C 
ATOM     13  C   UNL     1      -3.423  16.309  25.016  0.00  0.00    +0.000 C 
ATOM     14  O   UNL     1      -4.172  17.158  25.492  0.00  0.00    +0.000 OA
ATOM     15  N   UNL     1      -3.853  15.037  24.771  0.00  0.00    +0.000 N 
ATOM     16  H   UNL     1      -4.813  14.818  25.001  0.00  0.00    +0.000 HD
ENDBRANCH   3   5
BRANCH   1  19
ATOM     17  N   UNL     1       1.511   7.822  20.222  0.00  0.00    +0.000 N 
ATOM     18  N   UNL     1       0.879   8.159  21.388  0.00  0.00    +0.000 NA
ATOM     19  C   UNL     1       0.584   9.464  21.254  0.00  0.00    +0.000 A 
ATOM     20  C   UNL     1       0.916   9.929  19.960  0.00  0.00    +0.000 A 
ATOM     21  C   UNL     1       1.477   8.859  19.301  0.00  0.00    +0.000 A 
ATOM     22  C   UNL     1       1.879   8.768  17.872  0.00  0.00    +0.000 C 
BRANCH  17  29
ATOM     23  C   UNL     1       5.319   5.036  18.721  0.00  0.00    +0.000 C 
ATOM     24  C   UNL     1       3.973   5.151  19.375  0.00  0.00    +0.000 A 
ATOM     25  C   UNL     1       3.335   4.036  19.930  0.00  0.00    +0.000 A 
ATOM     26  C   UNL     1       2.101   4.167  20.581  0.00  0.00    +0.000 A 
ATOM     27  C   UNL     1       1.406   2.970  21.160  0.00  0.00    +0.000 C 
ATOM     28  C   UNL     1       1.507   5.433  20.684  0.00  0.00    +0.000 A 
ATOM     29  C   UNL     1       2.122   6.548  20.103  0.00  0.00    +0.000 A 
ATOM     30  C   UNL     1       3.354   6.403  19.456  0.00  0.00    +0.000 A 
ENDBRANCH  17  29
ENDBRANCH   1  19
TORSDOF 3
ENDMDL
MODEL 3
REMARK VINA RESULT:      -8.9      0.097      1.635
REMARK  Name = 
REMARK  6 active torsions:
REMARK  status: ('A' for Active; 'I' for Inactive)
REMARK    1  A    between atoms: C_1  and  C_2
REMARK    2  A    between atoms: C_4  and  C_5
REMARK    3  A    between atoms: C_7  and  N_8
REMARK    4  A    between atoms: C_10  and  C_11
REMARK    5  A    between atoms: N_13  and  C_14
REMARK    6  A    between atoms: C_26  and  C_27
REMARK                            x       y       z     vdW  Elec       q    Type
REMARK                         _______ _______ _______ _____ _____    ______ ____
ROOT
ATOM      1  C   UNL     1       1.476   8.674  19.640  0.00  0.00    +0.000 C 
ATOM      2  O   UNL     1       1.753   8.305  20.777  0.00  0.00    +0.000 OA
ATOM      3  N   UNL     1       2.075   8.212  18.472  0.00  0.00    +0.000 N 
ATOM      4  H   UNL     1       1.847   8.739  17.634  0.00  0.00    +0.000 HD
ENDROOT
BRANCH   3   5
ATOM      5  C   UNL     1       3.100   7.237  18.417  0.00  0.00    +0.000 A 
ATOM      6  C   UNL     1       3.185   6.211  19.369  0.00  0.00    +0.000 A 
ATOM      7  C   UNL     1       4.267   5.333  19.395  0.00  0.00    +0.000 A 
ATOM      8  C   UNL     1       5.266   5.453  18.442  0.00  0.00    +0.000 A 
ATOM      9  C   UNL     1       5.162   6.413  17.431  0.00  0.00    +0.000 A 
ATOM     10  C   UNL     1       4.075   7.302  17.416  0.00  0.00    +0.000 A 
ATOM     11  O   UNL     1       6.122   6.589  16.469  0.00  0.00    +0.000 OA
ATOM     12  C   UNL     1       7.081   5.539  16.386  0.00  0.00    +0.000 C 
ATOM     13  C   UNL     1       7.391   4.687  17.613  0.00  0.00    +0.000 C 
ATOM     14  O   UNL     1       8.418   4.025  17.742  0.00  0.00    +0.000 OA
ATOM     15  N   UNL     1       6.392   4.639  18.542  0.00  0.00    +0.000 N 
ATOM     16  H   UNL     1       6.528   4.034  19.340  0.00  0.00    +0.000 HD
ENDBRANCH   3   5
BRANCH   1  19
ATOM     17  N   UNL     1      -1.257  10.820  18.800  0.00  0.00    +0.000 N 
ATOM     18  N   UNL     1      -0.714   9.566  18.862  0.00  0.00    +0.000 NA
ATOM     19  C   UNL     1       0.481   9.739  19.453  0.00  0.00    +0.000 A 
ATOM     20  C   UNL     1       0.649  11.078  19.877  0.00  0.00    +0.000 A 
ATOM     21  C   UNL     1      -0.485  11.750  19.482  0.00  0.00    +0.000 A 
ATOM     22  C   UNL     1      -0.879  13.150  19.792  0.00  0.00    +0.000 C 
BRANCH  17  29
ATOM     23  C   UNL     1      -5.848  12.655  18.542  0.00  0.00    +0.000 C 
ATOM     24  C   UNL     1      -4.710  11.912  17.906  0.00  0.00    +0.000 A 
ATOM     25  C   UNL     1      -4.775  11.476  16.578  0.00  0.00    +0.000 A 
ATOM     26  C   UNL     1      -3.685  10.828  15.982  0.00  0.00    +0.000 A 
ATOM     27  C   UNL     1      -3.760  10.343  14.564  0.00  0.00    +0.000 C 
ATOM     28  C   UNL     1      -2.514  10.625  16.725  0.00  0.00    +0.000 A 
ATOM     29  C   UNL     1      -2.451  11.027  18.065  0.00  0.00    +0.000 A 
ATOM     30  C   UNL     1      -3.547  11.674  18.647  0.00  0.00    +0.000 A 
ENDBRANCH  17  29
ENDBRANCH   1  19
TORSDOF 3
ENDMDL
MODEL 4
REMARK VINA RESULT:      -8.8      4.672     10.518
REMARK  Name = 
REMARK  6 active torsions:
REMARK  status: ('A' for Active; 'I' for Inactive)
REMARK    1  A    between atoms: C_1  and  C_2
REMARK    2  A    between atoms: C_4  and  C_5
REMARK    3  A    between atoms: C_7  and  N_8
REMARK    4  A    between atoms: C_10  and  C_11
REMARK    5  A    between atoms: N_13  and  C_14
REMARK    6  A    between atoms: C_26  and  C_27
REMARK                            x       y       z     vdW  Elec       q    Type
REMARK                         _______ _______ _______ _____ _____    ______ ____
ROOT
ATOM      1  C   UNL     1      -0.041  10.302  22.347  0.00  0.00    +0.000 C 
ATOM      2  O   UNL     1       0.121   9.990  23.523  0.00  0.00    +0.000 OA
ATOM      3  N   UNL     1      -0.811  11.367  21.891  0.00  0.00    +0.000 N 
ATOM      4  H   UNL     1      -0.973  11.384  20.889  0.00  0.00    +0.000 HD
ENDROOT
BRANCH   3   5
ATOM      5  C   UNL     1      -1.529  12.262  22.722  0.00  0.00    +0.000 A 
ATOM      6  C   UNL     1      -2.758  11.902  23.294  0.00  0.00    +0.000 A 
ATOM      7  C   UNL     1      -3.527  12.826  24.000  0.00  0.00    +0.000 A 
ATOM      8  C   UNL     1      -3.056  14.118  24.169  0.00  0.00    +0.000 A 
ATOM      9  C   UNL     1      -1.797  14.478  23.681  0.00  0.00    +0.000 A 
ATOM     10  C   UNL     1      -1.030  13.547  22.962  0.00  0.00    +0.000 A 
ATOM     11  O   UNL     1      -1.283  15.742  23.806  0.00  0.00    +0.000 OA
ATOM     12  C   UNL     1      -1.980  16.581  24.722  0.00  0.00    +0.000 C 
ATOM     13  C   UNL     1      -3.459  16.337  25.009  0.00  0.00    +0.000 C 
ATOM     14  O   UNL     1      -4.211  17.186  25.482  0.00  0.00    +0.000 OA
ATOM     15  N   UNL     1      -3.880  15.059  24.783  0.00  0.00    +0.000 N 
ATOM     16  H   UNL     1      -4.837  14.836  25.023  0.00  0.00    +0.000 HD
ENDBRANCH   3   5
BRANCH   1  19
ATOM     17  N   UNL     1       1.491   7.825  20.272  0.00  0.00    +0.000 N 
ATOM     18  N   UNL     1       0.860   8.166  21.437  0.00  0.00    +0.000 NA
ATOM     19  C   UNL     1       0.557   9.469  21.294  0.00  0.00    +0.000 A 
ATOM     20  C   UNL     1       0.883   9.927  19.996  0.00  0.00    +0.000 A 
ATOM     21  C   UNL     1       1.448   8.855  19.343  0.00  0.00    +0.000 A 
ATOM     22  C   UNL     1       1.847   8.757  17.914  0.00  0.00    +0.000 C 
BRANCH  17  29
ATOM     23  C   UNL     1       1.399   2.946  21.108  0.00  0.00    +0.000 C 
ATOM     24  C   UNL     1       2.096   4.155  20.558  0.00  0.00    +0.000 A 
ATOM     25  C   UNL     1       3.313   4.048  19.876  0.00  0.00    +0.000 A 
ATOM     26  C   UNL     1       3.928   5.180  19.324  0.00  0.00    +0.000 A 
ATOM     27  C   UNL     1       5.242   5.070  18.609  0.00  0.00    +0.000 C 
ATOM     28  C   UNL     1       3.308   6.431  19.450  0.00  0.00    +0.000 A 
ATOM     29  C   UNL     1       2.108   6.554  20.160  0.00  0.00    +0.000 A 
ATOM     30  C   UNL     1       1.505   5.415  20.706  0.00  0.00    +0.000 A 
ENDBRANCH  17  29
ENDBRANCH   1  19
TORSDOF 3
ENDMDL
MODEL 5
REMARK VINA RESULT:      -8.7      1.914      2.515
REMARK  Name = 
REMARK  6 active torsions:
REMARK  status: ('A' for Active; 'I' for Inactive)
REMARK    1  A    between atoms: C_1  and  C_2
REMARK    2  A    between atoms: C_4  and  C_5
REMARK    3  A    between atoms: C_7  and  N_8
REMARK    4  A    between atoms: C_10  and  C_11
REMARK    5  A    between atoms: N_13  and  C_14
REMARK    6  A    between atoms: C_26  and  C_27
REMARK                            x       y       z     vdW  Elec       q    Type
REMARK                         _______ _______ _______ _____ _____    ______ ____
ROOT
ATOM      1  C   UNL     1       1.412   8.739  19.922  0.00  0.00    +0.000 C 
ATOM      2  O   UNL     1       1.771   8.733  21.095  0.00  0.00    +0.000 OA
ATOM      3  N   UNL     1       1.783   7.807  18.957  0.00  0.00    +0.000 N 
ATOM      4  H   UNL     1       1.533   8.051  18.004  0.00  0.00    +0.000 HD
ENDROOT
BRANCH   3   5
ATOM      5  C   UNL     1       2.636   6.700  19.186  0.00  0.00    +0.000 A 
ATOM      6  C   UNL     1       3.911   6.627  18.606  0.00  0.00    +0.000 A 
ATOM      7  C   UNL     1       4.695   5.481  18.721  0.00  0.00    +0.000 A 
ATOM      8  C   UNL     1       4.222   4.401  19.449  0.00  0.00    +0.000 A 
ATOM      9  C   UNL     1       2.992   4.480  20.107  0.00  0.00    +0.000 A 
ATOM     10  C   UNL     1       2.200   5.634  19.980  0.00  0.00    +0.000 A 
ATOM     11  O   UNL     1       2.465   3.443  20.831  0.00  0.00    +0.000 OA
ATOM     12  C   UNL     1       3.382   2.392  21.119  0.00  0.00    +0.000 C 
ATOM     13  C   UNL     1       4.572   2.140  20.196  0.00  0.00    +0.000 C 
ATOM     14  O   UNL     1       5.189   1.079  20.153  0.00  0.00    +0.000 OA
ATOM     15  N   UNL     1       4.968   3.224  19.468  0.00  0.00    +0.000 N 
ATOM     16  H   UNL     1       5.794   3.122  18.893  0.00  0.00    +0.000 HD
ENDBRANCH   3   5
BRANCH   1  19
ATOM     17  N   UNL     1      -1.045  10.938  18.539  0.00  0.00    +0.000 N 
ATOM     18  N   UNL     1      -0.692   9.698  18.998  0.00  0.00    +0.000 NA
ATOM     19  C   UNL     1       0.572   9.842  19.434  0.00  0.00    +0.000 A 
ATOM     20  C   UNL     1       0.982  11.194  19.367  0.00  0.00    +0.000 A 
ATOM     21  C   UNL     1      -0.075  11.888  18.825  0.00  0.00    +0.000 A 
ATOM     22  C   UNL     1      -0.221  13.359  18.659  0.00  0.00    +0.000 C 
BRANCH  17  29
ATOM     23  C   UNL     1      -3.755  10.221  14.458  0.00  0.00    +0.000 C 
ATOM     24  C   UNL     1      -3.624  10.768  15.849  0.00  0.00    +0.000 A 
ATOM     25  C   UNL     1      -4.703  11.377  16.497  0.00  0.00    +0.000 A 
ATOM     26  C   UNL     1      -4.581  11.839  17.815  0.00  0.00    +0.000 A 
ATOM     27  C   UNL     1      -5.732  12.509  18.505  0.00  0.00    +0.000 C 
ATOM     28  C   UNL     1      -3.364  11.678  18.491  0.00  0.00    +0.000 A 
ATOM     29  C   UNL     1      -2.267  11.100  17.839  0.00  0.00    +0.000 A 
ATOM     30  C   UNL     1      -2.404  10.643  16.523  0.00  0.00    +0.000 A 
ENDBRANCH  17  29
ENDBRANCH   1  19
TORSDOF 3
ENDMDL
MODEL 6
REMARK VINA RESULT:      -8.7      1.913      3.000
REMARK  Name = 
REMARK  6 active torsions:
REMARK  status: ('A' for Active; 'I' for Inactive)
REMARK    1  A    between atoms: C_1  and  C_2
REMARK    2  A    between atoms: C_4  and  C_5
REMARK    3  A    between atoms: C_7  and  N_8
REMARK    4  A    between atoms: C_10  and  C_11
REMARK    5  A    between atoms: N_13  and  C_14
REMARK    6  A    between atoms: C_26  and  C_27
REMARK                            x       y       z     vdW  Elec       q    Type
REMARK                         _______ _______ _______ _____ _____    ______ ____
ROOT
ATOM      1  C   UNL     1       1.399   8.694  19.914  0.00  0.00    +0.000 C 
ATOM      2  O   UNL     1       1.737   8.675  21.093  0.00  0.00    +0.000 OA
ATOM      3  N   UNL     1       1.792   7.777  18.944  0.00  0.00    +0.000 N 
ATOM      4  H   UNL     1       1.558   8.032  17.990  0.00  0.00    +0.000 HD
ENDROOT
BRANCH   3   5
ATOM      5  C   UNL     1       2.647   6.672  19.173  0.00  0.00    +0.000 A 
ATOM      6  C   UNL     1       3.917   6.595  18.584  0.00  0.00    +0.000 A 
ATOM      7  C   UNL     1       4.703   5.450  18.701  0.00  0.00    +0.000 A 
ATOM      8  C   UNL     1       4.236   4.375  19.441  0.00  0.00    +0.000 A 
ATOM      9  C   UNL     1       3.011   4.458  20.107  0.00  0.00    +0.000 A 
ATOM     10  C   UNL     1       2.218   5.611  19.978  0.00  0.00    +0.000 A 
ATOM     11  O   UNL     1       2.490   3.426  20.843  0.00  0.00    +0.000 OA
ATOM     12  C   UNL     1       3.410   2.377  21.131  0.00  0.00    +0.000 C 
ATOM     13  C   UNL     1       4.592   2.119  20.200  0.00  0.00    +0.000 C 
ATOM     14  O   UNL     1       5.209   1.057  20.160  0.00  0.00    +0.000 OA
ATOM     15  N   UNL     1       4.982   3.199  19.462  0.00  0.00    +0.000 N 
ATOM     16  H   UNL     1       5.803   3.092  18.881  0.00  0.00    +0.000 HD
ENDBRANCH   3   5
BRANCH   1  19
ATOM     17  N   UNL     1      -1.069  10.900  18.562  0.00  0.00    +0.000 N 
ATOM     18  N   UNL     1      -0.722   9.668  19.045  0.00  0.00    +0.000 NA
ATOM     19  C   UNL     1       0.561   9.799  19.425  0.00  0.00    +0.000 A 
ATOM     20  C   UNL     1       0.994  11.140  19.300  0.00  0.00    +0.000 A 
ATOM     21  C   UNL     1      -0.070  11.838  18.779  0.00  0.00    +0.000 A 
ATOM     22  C   UNL     1      -0.194  13.306  18.573  0.00  0.00    +0.000 C 
BRANCH  17  29
ATOM     23  C   UNL     1      -5.728  12.577  18.605  0.00  0.00    +0.000 C 
ATOM     24  C   UNL     1      -4.609  11.873  17.895  0.00  0.00    +0.000 A 
ATOM     25  C   UNL     1      -4.745  11.434  16.574  0.00  0.00    +0.000 A 
ATOM     26  C   UNL     1      -3.674  10.822  15.907  0.00  0.00    +0.000 A 
ATOM     27  C   UNL     1      -3.824  10.334  14.497  0.00  0.00    +0.000 C 
ATOM     28  C   UNL     1      -2.451  10.660  16.573  0.00  0.00    +0.000 A 
ATOM     29  C   UNL     1      -2.315  11.065  17.906  0.00  0.00    +0.000 A 
ATOM     30  C   UNL     1      -3.393  11.674  18.559  0.00  0.00    +0.000 A 
ENDBRANCH  17  29
ENDBRANCH   1  19
TORSDOF 3
ENDMDL
MODEL 7
REMARK VINA RESULT:      -8.4      3.681      5.222
REMARK  Name = 
REMARK  6 active torsions:
REMARK  status: ('A' for Active; 'I' for Inactive)
REMARK    1  A    between atoms: C_1  and  C_2
REMARK    2  A    between atoms: C_4  and  C_5
REMARK    3  A    between atoms: C_7  and  N_8
REMARK    4  A    between atoms: C_10  and  C_11
REMARK    5  A    between atoms: N_13  and  C_14
REMARK    6  A    between atoms: C_26  and  C_27
REMARK                            x       y       z     vdW  Elec       q    Type
REMARK                         _______ _______ _______ _____ _____    ______ ____
ROOT
ATOM      1  C   UNL     1       1.106   9.473  21.352  0.00  0.00    +0.000 C 
ATOM      2  O   UNL     1       1.733   9.085  22.333  0.00  0.00    +0.000 OA
ATOM      3  N   UNL     1       1.081   8.847  20.109  0.00  0.00    +0.000 N 
ATOM      4  H   UNL     1       0.649   9.386  19.364  0.00  0.00    +0.000 HD
ENDROOT
BRANCH   3   5
ATOM      5  C   UNL     1       1.778   7.658  19.786  0.00  0.00    +0.000 A 
ATOM      6  C   UNL     1       2.584   7.570  18.641  0.00  0.00    +0.000 A 
ATOM      7  C   UNL     1       3.162   6.363  18.252  0.00  0.00    +0.000 A 
ATOM      8  C   UNL     1       2.965   5.232  19.026  0.00  0.00    +0.000 A 
ATOM      9  C   UNL     1       2.237   5.311  20.216  0.00  0.00    +0.000 A 
ATOM     10  C   UNL     1       1.648   6.528  20.600  0.00  0.00    +0.000 A 
ATOM     11  O   UNL     1       1.997   4.226  21.018  0.00  0.00    +0.000 OA
ATOM     12  C   UNL     1       2.787   3.079  20.718  0.00  0.00    +0.000 C 
ATOM     13  C   UNL     1       3.327   2.869  19.306  0.00  0.00    +0.000 C 
ATOM     14  O   UNL     1       3.695   1.780  18.871  0.00  0.00    +0.000 OA
ATOM     15  N   UNL     1       3.458   4.011  18.570  0.00  0.00    +0.000 N 
ATOM     16  H   UNL     1       3.874   3.927  17.653  0.00  0.00    +0.000 HD
ENDBRANCH   3   5
BRANCH   1  19
ATOM     17  N   UNL     1      -0.886  12.332  22.152  0.00  0.00    +0.000 N 
ATOM     18  N   UNL     1      -0.207  11.214  22.553  0.00  0.00    +0.000 NA
ATOM     19  C   UNL     1       0.357  10.735  21.430  0.00  0.00    +0.000 A 
ATOM     20  C   UNL     1       0.141  11.610  20.340  0.00  0.00    +0.000 A 
ATOM     21  C   UNL     1      -0.627  12.643  20.825  0.00  0.00    +0.000 A 
ATOM     22  C   UNL     1      -1.027  13.895  20.129  0.00  0.00    +0.000 C 
BRANCH  17  29
ATOM     23  C   UNL     1      -5.200  12.504  24.575  0.00  0.00    +0.000 C 
ATOM     24  C   UNL     1      -3.860  13.105  24.267  0.00  0.00    +0.000 A 
ATOM     25  C   UNL     1      -3.415  14.264  24.912  0.00  0.00    +0.000 A 
ATOM     26  C   UNL     1      -2.141  14.785  24.651  0.00  0.00    +0.000 A 
ATOM     27  C   UNL     1      -1.669  16.039  25.327  0.00  0.00    +0.000 C 
ATOM     28  C   UNL     1      -1.302  14.129  23.740  0.00  0.00    +0.000 A 
ATOM     29  C   UNL     1      -1.751  12.987  23.065  0.00  0.00    +0.000 A 
ATOM     30  C   UNL     1      -3.025  12.478  23.335  0.00  0.00    +0.000 A 
ENDBRANCH  17  29
ENDBRANCH   1  19
TORSDOF 3
ENDMDL
MODEL 8
REMARK VINA RESULT:      -8.4      2.765      3.888
REMARK  Name = 
REMARK  6 active torsions:
REMARK  status: ('A' for Active; 'I' for Inactive)
REMARK    1  A    between atoms: C_1  and  C_2
REMARK    2  A    between atoms: C_4  and  C_5
REMARK    3  A    between atoms: C_7  and  N_8
REMARK    4  A    between atoms: C_10  and  C_11
REMARK    5  A    between atoms: N_13  and  C_14
REMARK    6  A    between atoms: C_26  and  C_27
REMARK                            x       y       z     vdW  Elec       q    Type
REMARK                         _______ _______ _______ _____ _____    ______ ____
ROOT
ATOM      1  C   UNL     1       1.519   9.453  18.597  0.00  0.00    +0.000 C 
ATOM      2  O   UNL     1       1.824   9.415  17.409  0.00  0.00    +0.000 OA
ATOM      3  N   UNL     1       1.734   8.434  19.520  0.00  0.00    +0.000 N 
ATOM      4  H   UNL     1       1.275   8.561  20.416  0.00  0.00    +0.000 HD
ENDROOT
BRANCH   3   5
ATOM      5  C   UNL     1       2.346   7.191  19.227  0.00  0.00    +0.000 A 
ATOM      6  C   UNL     1       3.123   7.012  18.073  0.00  0.00    +0.000 A 
ATOM      7  C   UNL     1       3.612   5.757  17.715  0.00  0.00    +0.000 A 
ATOM      8  C   UNL     1       3.355   4.667  18.531  0.00  0.00    +0.000 A 
ATOM      9  C   UNL     1       2.656   4.834  19.729  0.00  0.00    +0.000 A 
ATOM     10  C   UNL     1       2.156   6.099  20.080  0.00  0.00    +0.000 A 
ATOM     11  O   UNL     1       2.360   3.794  20.571  0.00  0.00    +0.000 OA
ATOM     12  C   UNL     1       3.066   2.588  20.298  0.00  0.00    +0.000 C 
ATOM     13  C   UNL     1       3.565   2.296  18.885  0.00  0.00    +0.000 C 
ATOM     14  O   UNL     1       3.852   1.172  18.482  0.00  0.00    +0.000 OA
ATOM     15  N   UNL     1       3.759   3.402  18.109  0.00  0.00    +0.000 N 
ATOM     16  H   UNL     1       4.151   3.261  17.188  0.00  0.00    +0.000 HD
ENDBRANCH   3   5
BRANCH   1  19
ATOM     17  N   UNL     1      -0.700  11.872  20.013  0.00  0.00    +0.000 N 
ATOM     18  N   UNL     1      -0.327  10.567  19.842  0.00  0.00    +0.000 NA
ATOM     19  C   UNL     1       0.804  10.627  19.118  0.00  0.00    +0.000 A 
ATOM     20  C   UNL     1       1.218  11.966  18.932  0.00  0.00    +0.000 A 
ATOM     21  C   UNL     1       0.264  12.750  19.539  0.00  0.00    +0.000 A 
ATOM     22  C   UNL     1       0.281  14.222  19.750  0.00  0.00    +0.000 C 
BRANCH  17  29
ATOM     23  C   UNL     1      -3.463  12.767  24.023  0.00  0.00    +0.000 C 
ATOM     24  C   UNL     1      -3.349  12.605  22.536  0.00  0.00    +0.000 A 
ATOM     25  C   UNL     1      -4.449  12.804  21.695  0.00  0.00    +0.000 A 
ATOM     26  C   UNL     1      -4.316  12.698  20.304  0.00  0.00    +0.000 A 
ATOM     27  C   UNL     1      -5.498  12.892  19.401  0.00  0.00    +0.000 C 
ATOM     28  C   UNL     1      -3.062  12.399  19.752  0.00  0.00    +0.000 A 
ATOM     29  C   UNL     1      -1.963  12.166  20.588  0.00  0.00    +0.000 A 
ATOM     30  C   UNL     1      -2.111  12.275  21.975  0.00  0.00    +0.000 A 
ENDBRANCH  17  29
ENDBRANCH   1  19
TORSDOF 3
ENDMDL
MODEL 9
REMARK VINA RESULT:      -8.4      7.336     10.417
REMARK  Name = 
REMARK  6 active torsions:
REMARK  status: ('A' for Active; 'I' for Inactive)
REMARK    1  A    between atoms: C_1  and  C_2
REMARK    2  A    between atoms: C_4  and  C_5
REMARK    3  A    between atoms: C_7  and  N_8
REMARK    4  A    between atoms: C_10  and  C_11
REMARK    5  A    between atoms: N_13  and  C_14
REMARK    6  A    between atoms: C_26  and  C_27
REMARK                            x       y       z     vdW  Elec       q    Type
REMARK                         _______ _______ _______ _____ _____    ______ ____
ROOT
ATOM      1  C   UNL     1       8.567   9.962  18.187  0.00  0.00    +0.000 C 
ATOM      2  O   UNL     1       7.891  10.768  17.555  0.00  0.00    +0.000 OA
ATOM      3  N   UNL     1       9.719  10.261  18.908  0.00  0.00    +0.000 N 
ATOM      4  H   UNL     1      10.245   9.456  19.232  0.00  0.00    +0.000 HD
ENDROOT
BRANCH   3   5
ATOM      5  C   UNL     1      10.289  11.552  19.025  0.00  0.00    +0.000 A 
ATOM      6  C   UNL     1      10.319  12.230  20.253  0.00  0.00    +0.000 A 
ATOM      7  C   UNL     1      10.757  13.550  20.342  0.00  0.00    +0.000 A 
ATOM      8  C   UNL     1      11.203  14.199  19.202  0.00  0.00    +0.000 A 
ATOM      9  C   UNL     1      11.262  13.519  17.983  0.00  0.00    +0.000 A 
ATOM     10  C   UNL     1      10.810  12.192  17.896  0.00  0.00    +0.000 A 
ATOM     11  O   UNL     1      11.681  14.110  16.819  0.00  0.00    +0.000 OA
ATOM     12  C   UNL     1      12.333  15.365  16.990  0.00  0.00    +0.000 C 
ATOM     13  C   UNL     1      12.016  16.233  18.205  0.00  0.00    +0.000 C 
ATOM     14  O   UNL     1      12.239  17.440  18.258  0.00  0.00    +0.000 OA
ATOM     15  N   UNL     1      11.537  15.549  19.285  0.00  0.00    +0.000 N 
ATOM     16  H   UNL     1      11.376  16.075  20.133  0.00  0.00    +0.000 HD
ENDBRANCH   3   5
BRANCH   1  19
ATOM     17  N   UNL     1       7.306   6.671  17.584  0.00  0.00    +0.000 N 
ATOM     18  N   UNL     1       7.518   7.953  17.156  0.00  0.00    +0.000 NA
ATOM     19  C   UNL     1       8.204   8.538  18.153  0.00  0.00    +0.000 A 
ATOM     20  C   UNL     1       8.535   7.601  19.160  0.00  0.00    +0.000 A 
ATOM     21  C   UNL     1       7.983   6.404  18.765  0.00  0.00    +0.000 A 
ATOM     22  C   UNL     1       8.144   5.067  19.395  0.00  0.00    +0.000 C 
BRANCH  17  29
ATOM     23  C   UNL     1       6.402   4.035  13.492  0.00  0.00    +0.000 C 
ATOM     24  C   UNL     1       5.970   4.520  14.844  0.00  0.00    +0.000 A 
ATOM     25  C   UNL     1       4.767   4.099  15.420  0.00  0.00    +0.000 A 
ATOM     26  C   UNL     1       4.400   4.521  16.705  0.00  0.00    +0.000 A 
ATOM     27  C   UNL     1       3.101   4.086  17.316  0.00  0.00    +0.000 C 
ATOM     28  C   UNL     1       5.257   5.367  17.423  0.00  0.00    +0.000 A 
ATOM     29  C   UNL     1       6.448   5.821  16.842  0.00  0.00    +0.000 A 
ATOM     30  C   UNL     1       6.801   5.391  15.558  0.00  0.00    +0.000 A 
ENDBRANCH  17  29
ENDBRANCH   1  19
TORSDOF 3
ENDMDL
