MODEL 1
REMARK VINA RESULT:      -8.8      0.000      0.000
REMARK  Name = 
REMARK  3 active torsions:
REMARK  status: ('A' for Active; 'I' for Inactive)
REMARK    1  A    between atoms: C_2  and  C_3
REMARK    2  A    between atoms: C_3  and  C_4
REMARK    3  A    between atoms: N_13  and  C_14
REMARK                            x       y       z     vdW  Elec       q    Type
REMARK                         _______ _______ _______ _____ _____    ______ ____
ROOT
ATOM      1  O   UNL     1       4.691   5.213  19.094  0.00  0.00    +0.000 OA
ATOM      2  C   UNL     1       4.097   5.139  18.021  0.00  0.00    +0.000 C 
ATOM      3  N   UNL     1       3.011   5.918  17.642  0.00  0.00    +0.000 N 
ATOM      4  H   UNL     1       2.481   5.589  16.842  0.00  0.00    +0.000 HD
ENDROOT
BRANCH   3   5
ATOM      5  C   UNL     1       2.494   7.031  18.344  0.00  0.00    +0.000 A 
ATOM      6  C   UNL     1       2.123   8.233  17.693  0.00  0.00    +0.000 A 
ATOM      7  C   UNL     1       1.583   9.321  18.392  0.00  0.00    +0.000 A 
ATOM      8  C   UNL     1       1.423   9.166  19.743  0.00  0.00    +0.000 A 
ATOM      9  N   UNL     1       0.919  10.056  20.683  0.00  0.00    +0.000 N 
ATOM     10  C   UNL     1       0.955   9.444  21.942  0.00  0.00    +0.000 A 
ATOM     11  O   UNL     1       0.586   9.929  22.997  0.00  0.00    +0.000 OA
ATOM     12  N   UNL     1       1.494   8.161  21.752  0.00  0.00    +0.000 N 
ATOM     13  C   UNL     1       1.781   7.991  20.400  0.00  0.00    +0.000 A 
ATOM     14  C   UNL     1       2.311   6.906  19.733  0.00  0.00    +0.000 A 
ATOM     15  H   UNL     1       0.576  10.988  20.516  0.00  0.00    +0.000 HD
ATOM     16  H   UNL     1       1.635   7.504  22.499  0.00  0.00    +0.000 HD
ENDBRANCH   3   5
BRANCH   2  17
ATOM     17  C   UNL     1       4.575   4.170  16.951  0.00  0.00    +0.000 C 
BRANCH  17  18
ATOM     18  C   UNL     1       5.702   4.690  16.121  0.00  0.00    +0.000 A 
ATOM     19  C   UNL     1       6.707   5.537  16.550  0.00  0.00    +0.000 A 
ATOM     20  N   UNL     1       7.564   5.754  15.505  0.00  0.00    +0.000 N 
ATOM     21  C   UNL     1       7.136   5.072  14.391  0.00  0.00    +0.000 A 
ATOM     22  C   UNL     1       7.688   5.012  13.105  0.00  0.00    +0.000 A 
ATOM     23  C   UNL     1       7.039   4.216  12.157  0.00  0.00    +0.000 A 
ATOM     24  C   UNL     1       5.891   3.500  12.489  0.00  0.00    +0.000 A 
ATOM     25  C   UNL     1       5.356   3.568  13.780  0.00  0.00    +0.000 A 
ATOM     26  C   UNL     1       5.980   4.378  14.750  0.00  0.00    +0.000 A 
ATOM     27  H   UNL     1       8.400   6.321  15.542  0.00  0.00    +0.000 HD
ENDBRANCH  17  18
ENDBRANCH   2  17
TORSDOF 3
ENDMDL
MODEL 2
REMARK VINA RESULT:      -8.4      1.268      1.862
REMARK  Name = 
REMARK  3 active torsions:
REMARK  status: ('A' for Active; 'I' for Inactive)
REMARK    1  A    between atoms: C_2  and  C_3
REMARK    2  A    between atoms: C_3  and  C_4
REMARK    3  A    between atoms: N_13  and  C_14
REMARK                            x       y       z     vdW  Elec       q    Type
REMARK                         _______ _______ _______ _____ _____    ______ ____
ROOT
ATOM      1  O   UNL     1       5.010   5.427  19.052  0.00  0.00    +0.000 OA
ATOM      2  C   UNL     1       4.316   5.166  18.072  0.00  0.00    +0.000 C 
ATOM      3  N   UNL     1       3.101   5.762  17.759  0.00  0.00    +0.000 N 
ATOM      4  H   UNL     1       2.535   5.287  17.065  0.00  0.00    +0.000 HD
ENDROOT
BRANCH   3   5
ATOM      5  C   UNL     1       2.521   6.874  18.412  0.00  0.00    +0.000 A 
ATOM      6  C   UNL     1       2.169   6.848  19.784  0.00  0.00    +0.000 A 
ATOM      7  C   UNL     1       1.622   7.964  20.432  0.00  0.00    +0.000 A 
ATOM      8  C   UNL     1       1.449   9.091  19.675  0.00  0.00    +0.000 A 
ATOM      9  N   UNL     1       0.941  10.332  20.037  0.00  0.00    +0.000 N 
ATOM     10  C   UNL     1       0.960  11.169  18.914  0.00  0.00    +0.000 A 
ATOM     11  O   UNL     1       0.593  12.329  18.866  0.00  0.00    +0.000 OA
ATOM     12  N   UNL     1       1.491  10.412  17.857  0.00  0.00    +0.000 N 
ATOM     13  C   UNL     1       1.791   9.136  18.325  0.00  0.00    +0.000 A 
ATOM     14  C   UNL     1       2.333   8.051  17.667  0.00  0.00    +0.000 A 
ATOM     15  H   UNL     1       0.609  10.612  20.946  0.00  0.00    +0.000 HD
ATOM     16  H   UNL     1       1.614  10.772  16.926  0.00  0.00    +0.000 HD
ENDBRANCH   3   5
BRANCH   2  17
ATOM     17  C   UNL     1       4.797   4.151  17.047  0.00  0.00    +0.000 C 
BRANCH  17  18
ATOM     18  C   UNL     1       5.844   4.675  16.120  0.00  0.00    +0.000 A 
ATOM     19  C   UNL     1       6.861   5.551  16.452  0.00  0.00    +0.000 A 
ATOM     20  N   UNL     1       7.630   5.760  15.339  0.00  0.00    +0.000 N 
ATOM     21  C   UNL     1       7.132   5.045  14.276  0.00  0.00    +0.000 A 
ATOM     22  C   UNL     1       7.583   4.966  12.953  0.00  0.00    +0.000 A 
ATOM     23  C   UNL     1       6.880   4.136  12.076  0.00  0.00    +0.000 A 
ATOM     24  C   UNL     1       5.778   3.405  12.511  0.00  0.00    +0.000 A 
ATOM     25  C   UNL     1       5.342   3.492  13.838  0.00  0.00    +0.000 A 
ATOM     26  C   UNL     1       6.022   4.336  14.739  0.00  0.00    +0.000 A 
ATOM     27  H   UNL     1       8.453   6.345  15.298  0.00  0.00    +0.000 HD
ENDBRANCH  17  18
ENDBRANCH   2  17
TORSDOF 3
ENDMDL
MODEL 3
REMARK VINA RESULT:      -8.4      2.057      2.895
REMARK  Name = 
REMARK  3 active torsions:
REMARK  status: ('A' for Active; 'I' for Inactive)
REMARK    1  A    between atoms: C_2  and  C_3
REMARK    2  A    between atoms: C_3  and  C_4
REMARK    3  A    between atoms: N_13  and  C_14
REMARK                            x       y       z     vdW  Elec       q    Type
REMARK                         _______ _______ _______ _____ _____    ______ ____
ROOT
ATOM      1  O   UNL     1       1.745   4.863  18.767  0.00  0.00    +0.000 OA
ATOM      2  C   UNL     1       2.804   5.271  19.239  0.00  0.00    +0.000 C 
ATOM      3  N   UNL     1       3.047   6.563  19.687  0.00  0.00    +0.000 N 
ATOM      4  H   UNL     1       4.019   6.815  19.824  0.00  0.00    +0.000 HD
ENDROOT
BRANCH   3   5
ATOM      5  C   UNL     1       2.087   7.592  19.831  0.00  0.00    +0.000 A 
ATOM      6  C   UNL     1       1.345   7.776  21.023  0.00  0.00    +0.000 A 
ATOM      7  C   UNL     1       0.418   8.816  21.169  0.00  0.00    +0.000 A 
ATOM      8  C   UNL     1       0.266   9.658  20.099  0.00  0.00    +0.000 A 
ATOM      9  N   UNL     1      -0.564  10.762  19.953  0.00  0.00    +0.000 N 
ATOM     10  C   UNL     1      -0.369  11.303  18.676  0.00  0.00    +0.000 A 
ATOM     11  O   UNL     1      -0.925  12.279  18.206  0.00  0.00    +0.000 OA
ATOM     12  N   UNL     1       0.598  10.504  18.044  0.00  0.00    +0.000 N 
ATOM     13  C   UNL     1       0.987   9.493  18.919  0.00  0.00    +0.000 A 
ATOM     14  C   UNL     1       1.907   8.479  18.754  0.00  0.00    +0.000 A 
ATOM     15  H   UNL     1      -1.206  11.136  20.633  0.00  0.00    +0.000 HD
ATOM     16  H   UNL     1       0.926  10.668  17.108  0.00  0.00    +0.000 HD
ENDBRANCH   3   5
BRANCH   2  17
ATOM     17  C   UNL     1       3.973   4.315  19.424  0.00  0.00    +0.000 C 
BRANCH  17  18
ATOM     18  C   UNL     1       5.220   4.738  18.719  0.00  0.00    +0.000 A 
ATOM     19  C   UNL     1       6.340   5.295  19.309  0.00  0.00    +0.000 A 
ATOM     20  N   UNL     1       7.277   5.511  18.335  0.00  0.00    +0.000 N 
ATOM     21  C   UNL     1       6.792   5.114  17.112  0.00  0.00    +0.000 A 
ATOM     22  C   UNL     1       7.391   5.159  15.847  0.00  0.00    +0.000 A 
ATOM     23  C   UNL     1       6.659   4.667  14.764  0.00  0.00    +0.000 A 
ATOM     24  C   UNL     1       5.382   4.139  14.943  0.00  0.00    +0.000 A 
ATOM     25  C   UNL     1       4.800   4.098  16.215  0.00  0.00    +0.000 A 
ATOM     26  C   UNL     1       5.510   4.605  17.322  0.00  0.00    +0.000 A 
ATOM     27  H   UNL     1       8.200   5.894  18.486  0.00  0.00    +0.000 HD
ENDBRANCH  17  18
ENDBRANCH   2  17
TORSDOF 3
ENDMDL
MODEL 4
REMARK VINA RESULT:      -8.4      3.004      8.762
REMARK  Name = 
REMARK  3 active torsions:
REMARK  status: ('A' for Active; 'I' for Inactive)
REMARK    1  A    between atoms: C_2  and  C_3
REMARK    2  A    between atoms: C_3  and  C_4
REMARK    3  A    between atoms: N_13  and  C_14
REMARK                            x       y       z     vdW  Elec       q    Type
REMARK                         _______ _______ _______ _____ _____    ______ ____
ROOT
ATOM      1  O   UNL     1       2.785   9.709  18.384  0.00  0.00    +0.000 OA
ATOM      2  C   UNL     1       1.847   8.979  18.071  0.00  0.00    +0.000 C 
ATOM      3  N   UNL     1       1.918   7.605  17.880  0.00  0.00    +0.000 N 
ATOM      4  H   UNL     1       1.135   7.178  17.399  0.00  0.00    +0.000 HD
ENDROOT
BRANCH   3   5
ATOM      5  C   UNL     1       3.031   6.779  18.162  0.00  0.00    +0.000 A 
ATOM      6  C   UNL     1       3.117   6.000  19.341  0.00  0.00    +0.000 A 
ATOM      7  C   UNL     1       4.209   5.160  19.600  0.00  0.00    +0.000 A 
ATOM      8  C   UNL     1       5.193   5.121  18.648  0.00  0.00    +0.000 A 
ATOM      9  N   UNL     1       6.374   4.392  18.627  0.00  0.00    +0.000 N 
ATOM     10  C   UNL     1       7.060   4.686  17.441  0.00  0.00    +0.000 A 
ATOM     11  O   UNL     1       8.129   4.224  17.086  0.00  0.00    +0.000 OA
ATOM     12  N   UNL     1       6.272   5.612  16.739  0.00  0.00    +0.000 N 
ATOM     13  C   UNL     1       5.125   5.879  17.482  0.00  0.00    +0.000 A 
ATOM     14  C   UNL     1       4.059   6.710  17.205  0.00  0.00    +0.000 A 
ATOM     15  H   UNL     1       6.708   3.751  19.328  0.00  0.00    +0.000 HD
ATOM     16  H   UNL     1       6.532   5.998  15.848  0.00  0.00    +0.000 HD
ENDBRANCH   3   5
BRANCH   2  17
ATOM     17  C   UNL     1       0.449   9.560  17.915  0.00  0.00    +0.000 C 
BRANCH  17  18
ATOM     18  C   UNL     1       0.064  10.512  18.999  0.00  0.00    +0.000 A 
ATOM     19  C   UNL     1      -0.174  11.866  18.847  0.00  0.00    +0.000 A 
ATOM     20  N   UNL     1      -0.533  12.379  20.065  0.00  0.00    +0.000 N 
ATOM     21  C   UNL     1      -0.527  11.389  21.018  0.00  0.00    +0.000 A 
ATOM     22  C   UNL     1      -0.814  11.455  22.387  0.00  0.00    +0.000 A 
ATOM     23  C   UNL     1      -0.741  10.270  23.124  0.00  0.00    +0.000 A 
ATOM     24  C   UNL     1      -0.407   9.065  22.510  0.00  0.00    +0.000 A 
ATOM     25  C   UNL     1      -0.128   9.016  21.139  0.00  0.00    +0.000 A 
ATOM     26  C   UNL     1      -0.176  10.200  20.377  0.00  0.00    +0.000 A 
ATOM     27  H   UNL     1      -0.781  13.342  20.243  0.00  0.00    +0.000 HD
ENDBRANCH  17  18
ENDBRANCH   2  17
TORSDOF 3
ENDMDL
MODEL 5
REMARK VINA RESULT:      -8.4      4.083      8.256
REMARK  Name = 
REMARK  3 active torsions:
REMARK  status: ('A' for Active; 'I' for Inactive)
REMARK    1  A    between atoms: C_2  and  C_3
REMARK    2  A    between atoms: C_3  and  C_4
REMARK    3  A    between atoms: N_13  and  C_14
REMARK                            x       y       z     vdW  Elec       q    Type
REMARK                         _______ _______ _______ _____ _____    ______ ____
ROOT
ATOM      1  O   UNL     1       1.611   8.255  19.826  0.00  0.00    +0.000 OA
ATOM      2  C   UNL     1       2.024   8.379  18.675  0.00  0.00    +0.000 C 
ATOM      3  N   UNL     1       2.616   7.379  17.915  0.00  0.00    +0.000 N 
ATOM      4  H   UNL     1       3.116   7.682  17.087  0.00  0.00    +0.000 HD
ENDROOT
BRANCH   3   5
ATOM      5  C   UNL     1       2.709   6.010  18.259  0.00  0.00    +0.000 A 
ATOM      6  C   UNL     1       1.693   5.077  17.939  0.00  0.00    +0.000 A 
ATOM      7  C   UNL     1       1.804   3.717  18.257  0.00  0.00    +0.000 A 
ATOM      8  C   UNL     1       2.953   3.327  18.891  0.00  0.00    +0.000 A 
ATOM      9  N   UNL     1       3.342   2.065  19.322  0.00  0.00    +0.000 N 
ATOM     10  C   UNL     1       4.605   2.165  19.919  0.00  0.00    +0.000 A 
ATOM     11  O   UNL     1       5.254   1.256  20.404  0.00  0.00    +0.000 OA
ATOM     12  N   UNL     1       4.979   3.517  19.846  0.00  0.00    +0.000 N 
ATOM     13  C   UNL     1       3.964   4.230  19.213  0.00  0.00    +0.000 A 
ATOM     14  C   UNL     1       3.877   5.572  18.907  0.00  0.00    +0.000 A 
ATOM     15  H   UNL     1       2.826   1.205  19.232  0.00  0.00    +0.000 HD
ATOM     16  H   UNL     1       5.848   3.871  20.206  0.00  0.00    +0.000 HD
ENDBRANCH   3   5
BRANCH   2  17
ATOM     17  C   UNL     1       1.854   9.702  17.944  0.00  0.00    +0.000 C 
BRANCH  17  18
ATOM     18  C   UNL     1       0.800  10.585  18.525  0.00  0.00    +0.000 A 
ATOM     19  C   UNL     1       1.002  11.606  19.435  0.00  0.00    +0.000 A 
ATOM     20  N   UNL     1      -0.205  12.198  19.695  0.00  0.00    +0.000 N 
ATOM     21  C   UNL     1      -1.201  11.579  18.979  0.00  0.00    +0.000 A 
ATOM     22  C   UNL     1      -2.577  11.838  18.941  0.00  0.00    +0.000 A 
ATOM     23  C   UNL     1      -3.363  11.047  18.098  0.00  0.00    +0.000 A 
ATOM     24  C   UNL     1      -2.791  10.047  17.316  0.00  0.00    +0.000 A 
ATOM     25  C   UNL     1      -1.414   9.804  17.363  0.00  0.00    +0.000 A 
ATOM     26  C   UNL     1      -0.600  10.575  18.218  0.00  0.00    +0.000 A 
ATOM     27  H   UNL     1      -0.349  12.985  20.313  0.00  0.00    +0.000 HD
ENDBRANCH  17  18
ENDBRANCH   2  17
TORSDOF 3
ENDMDL
MODEL 6
REMARK VINA RESULT:      -8.3      1.515      1.941
REMARK  Name = 
REMARK  3 active torsions:
REMARK  status: ('A' for Active; 'I' for Inactive)
REMARK    1  A    between atoms: C_2  and  C_3
REMARK    2  A    between atoms: C_3  and  C_4
REMARK    3  A    between atoms: N_13  and  C_14
REMARK                            x       y       z     vdW  Elec       q    Type
REMARK                         _______ _______ _______ _____ _____    ______ ____
ROOT
ATOM      1  O   UNL     1       1.103   4.804  17.875  0.00  0.00    +0.000 OA
ATOM      2  C   UNL     1       2.299   4.908  18.139  0.00  0.00    +0.000 C 
ATOM      3  N   UNL     1       2.940   6.070  18.549  0.00  0.00    +0.000 N 
ATOM      4  H   UNL     1       3.952   6.064  18.500  0.00  0.00    +0.000 HD
ENDROOT
BRANCH   3   5
ATOM      5  C   UNL     1       2.317   7.295  18.886  0.00  0.00    +0.000 A 
ATOM      6  C   UNL     1       1.994   8.273  17.914  0.00  0.00    +0.000 A 
ATOM      7  C   UNL     1       1.350   9.471  18.251  0.00  0.00    +0.000 A 
ATOM      8  C   UNL     1       1.039   9.651  19.572  0.00  0.00    +0.000 A 
ATOM      9  N   UNL     1       0.408  10.720  20.195  0.00  0.00    +0.000 N 
ATOM     10  C   UNL     1       0.314  10.447  21.566  0.00  0.00    +0.000 A 
ATOM     11  O   UNL     1      -0.186  11.161  22.417  0.00  0.00    +0.000 OA
ATOM     12  N   UNL     1       0.903   9.188  21.767  0.00  0.00    +0.000 N 
ATOM     13  C   UNL     1       1.349   8.700  20.541  0.00  0.00    +0.000 A 
ATOM     14  C   UNL     1       1.979   7.512  20.233  0.00  0.00    +0.000 A 
ATOM     15  H   UNL     1       0.063  11.561  19.761  0.00  0.00    +0.000 HD
ATOM     16  H   UNL     1       0.974   8.748  22.668  0.00  0.00    +0.000 HD
ENDBRANCH   3   5
BRANCH   2  17
ATOM     17  C   UNL     1       3.199   3.683  18.086  0.00  0.00    +0.000 C 
BRANCH  17  18
ATOM     18  C   UNL     1       4.643   4.000  17.877  0.00  0.00    +0.000 A 
ATOM     19  C   UNL     1       5.611   4.078  18.861  0.00  0.00    +0.000 A 
ATOM     20  N   UNL     1       6.811   4.357  18.264  0.00  0.00    +0.000 N 
ATOM     21  C   UNL     1       6.650   4.473  16.904  0.00  0.00    +0.000 A 
ATOM     22  C   UNL     1       7.590   4.760  15.907  0.00  0.00    +0.000 A 
ATOM     23  C   UNL     1       7.141   4.803  14.585  0.00  0.00    +0.000 A 
ATOM     24  C   UNL     1       5.807   4.555  14.273  0.00  0.00    +0.000 A 
ATOM     25  C   UNL     1       4.881   4.265  15.282  0.00  0.00    +0.000 A 
ATOM     26  C   UNL     1       5.303   4.234  16.626  0.00  0.00    +0.000 A 
ATOM     27  H   UNL     1       7.695   4.452  18.745  0.00  0.00    +0.000 HD
ENDBRANCH  17  18
ENDBRANCH   2  17
TORSDOF 3
ENDMDL
MODEL 7
REMARK VINA RESULT:      -8.2      2.535      3.750
REMARK  Name = 
REMARK  3 active torsions:
REMARK  status: ('A' for Active; 'I' for Inactive)
REMARK    1  A    between atoms: C_2  and  C_3
REMARK    2  A    between atoms: C_3  and  C_4
REMARK    3  A    between atoms: N_13  and  C_14
REMARK                            x       y       z     vdW  Elec       q    Type
REMARK                         _______ _______ _______ _____ _____    ______ ____
ROOT
ATOM      1  O   UNL     1       1.120   5.068  20.319  0.00  0.00    +0.000 OA
ATOM      2  C   UNL     1       2.252   5.539  20.231  0.00  0.00    +0.000 C 
ATOM      3  N   UNL     1       2.560   6.885  20.078  0.00  0.00    +0.000 N 
ATOM      4  H   UNL     1       3.506   7.098  19.782  0.00  0.00    +0.000 HD
ENDROOT
BRANCH   3   5
ATOM      5  C   UNL     1       1.649   7.965  20.153  0.00  0.00    +0.000 A 
ATOM      6  C   UNL     1       0.912   8.254  21.327  0.00  0.00    +0.000 A 
ATOM      7  C   UNL     1       0.034   9.343  21.404  0.00  0.00    +0.000 A 
ATOM      8  C   UNL     1      -0.074  10.126  20.286  0.00  0.00    +0.000 A 
ATOM      9  N   UNL     1      -0.850  11.258  20.069  0.00  0.00    +0.000 N 
ATOM     10  C   UNL     1      -0.624  11.712  18.764  0.00  0.00    +0.000 A 
ATOM     11  O   UNL     1      -1.131  12.684  18.233  0.00  0.00    +0.000 OA
ATOM     12  N   UNL     1       0.307  10.832  18.187  0.00  0.00    +0.000 N 
ATOM     13  C   UNL     1       0.644   9.858  19.123  0.00  0.00    +0.000 A 
ATOM     14  C   UNL     1       1.516   8.794  19.025  0.00  0.00    +0.000 A 
ATOM     15  H   UNL     1      -1.476  11.701  20.721  0.00  0.00    +0.000 HD
ATOM     16  H   UNL     1       0.646  10.925  17.245  0.00  0.00    +0.000 HD
ENDBRANCH   3   5
BRANCH   2  17
ATOM     17  C   UNL     1       3.466   4.630  20.345  0.00  0.00    +0.000 C 
BRANCH  17  18
ATOM     18  C   UNL     1       3.918   4.055  19.044  0.00  0.00    +0.000 A 
ATOM     19  C   UNL     1       3.878   2.720  18.685  0.00  0.00    +0.000 A 
ATOM     20  N   UNL     1       4.348   2.605  17.404  0.00  0.00    +0.000 N 
ATOM     21  C   UNL     1       4.705   3.838  16.915  0.00  0.00    +0.000 A 
ATOM     22  C   UNL     1       5.239   4.194  15.671  0.00  0.00    +0.000 A 
ATOM     23  C   UNL     1       5.498   5.547  15.438  0.00  0.00    +0.000 A 
ATOM     24  C   UNL     1       5.219   6.507  16.409  0.00  0.00    +0.000 A 
ATOM     25  C   UNL     1       4.681   6.134  17.646  0.00  0.00    +0.000 A 
ATOM     26  C   UNL     1       4.428   4.773  17.913  0.00  0.00    +0.000 A 
ATOM     27  H   UNL     1       4.413   1.742  16.881  0.00  0.00    +0.000 HD
ENDBRANCH  17  18
ENDBRANCH   2  17
TORSDOF 3
ENDMDL
MODEL 8
REMARK VINA RESULT:      -8.2      2.224      8.562
REMARK  Name = 
REMARK  3 active torsions:
REMARK  status: ('A' for Active; 'I' for Inactive)
REMARK    1  A    between atoms: C_2  and  C_3
REMARK    2  A    between atoms: C_3  and  C_4
REMARK    3  A    between atoms: N_13  and  C_14
REMARK                            x       y       z     vdW  Elec       q    Type
REMARK                         _______ _______ _______ _____ _____    ______ ____
ROOT
ATOM      1  O   UNL     1       2.135   4.925  18.783  0.00  0.00    +0.000 OA
ATOM      2  C   UNL     1       2.637   5.680  19.613  0.00  0.00    +0.000 C 
ATOM      3  N   UNL     1       3.984   6.009  19.698  0.00  0.00    +0.000 N 
ATOM      4  H   UNL     1       4.284   6.444  20.563  0.00  0.00    +0.000 HD
ENDROOT
BRANCH   3   5
ATOM      5  C   UNL     1       4.990   5.667  18.764  0.00  0.00    +0.000 A 
ATOM      6  C   UNL     1       6.186   5.012  19.144  0.00  0.00    +0.000 A 
ATOM      7  C   UNL     1       7.165   4.650  18.210  0.00  0.00    +0.000 A 
ATOM      8  C   UNL     1       6.907   4.955  16.900  0.00  0.00    +0.000 A 
ATOM      9  N   UNL     1       7.677   4.722  15.768  0.00  0.00    +0.000 N 
ATOM     10  C   UNL     1       6.993   5.217  14.651  0.00  0.00    +0.000 A 
ATOM     11  O   UNL     1       7.368   5.180  13.493  0.00  0.00    +0.000 OA
ATOM     12  N   UNL     1       5.788   5.760  15.125  0.00  0.00    +0.000 N 
ATOM     13  C   UNL     1       5.736   5.599  16.508  0.00  0.00    +0.000 A 
ATOM     14  C   UNL     1       4.757   5.962  17.409  0.00  0.00    +0.000 A 
ATOM     15  H   UNL     1       8.577   4.273  15.726  0.00  0.00    +0.000 HD
ATOM     16  H   UNL     1       5.102   6.190  14.529  0.00  0.00    +0.000 HD
ENDBRANCH   3   5
BRANCH   2  17
ATOM     17  C   UNL     1       1.754   6.389  20.628  0.00  0.00    +0.000 C 
BRANCH  17  18
ATOM     18  C   UNL     1       1.458   7.812  20.284  0.00  0.00    +0.000 A 
ATOM     19  C   UNL     1       1.770   8.445  19.096  0.00  0.00    +0.000 A 
ATOM     20  N   UNL     1       1.304   9.731  19.157  0.00  0.00    +0.000 N 
ATOM     21  C   UNL     1       0.698   9.959  20.369  0.00  0.00    +0.000 A 
ATOM     22  C   UNL     1       0.096  11.120  20.871  0.00  0.00    +0.000 A 
ATOM     23  C   UNL     1      -0.461  11.061  22.151  0.00  0.00    +0.000 A 
ATOM     24  C   UNL     1      -0.428   9.882  22.892  0.00  0.00    +0.000 A 
ATOM     25  C   UNL     1       0.173   8.730  22.374  0.00  0.00    +0.000 A 
ATOM     26  C   UNL     1       0.760   8.768  21.093  0.00  0.00    +0.000 A 
ATOM     27  H   UNL     1       1.378  10.416  18.417  0.00  0.00    +0.000 HD
ENDBRANCH  17  18
ENDBRANCH   2  17
TORSDOF 3
ENDMDL
MODEL 9
REMARK VINA RESULT:      -8.2      1.996      2.795
REMARK  Name = 
REMARK  3 active torsions:
REMARK  status: ('A' for Active; 'I' for Inactive)
REMARK    1  A    between atoms: C_2  and  C_3
REMARK    2  A    between atoms: C_3  and  C_4
REMARK    3  A    between atoms: N_13  and  C_14
REMARK                            x       y       z     vdW  Elec       q    Type
REMARK                         _______ _______ _______ _____ _____    ______ ____
ROOT
ATOM      1  O   UNL     1       1.118   4.368  19.329  0.00  0.00    +0.000 OA
ATOM      2  C   UNL     1       2.150   4.622  18.712  0.00  0.00    +0.000 C 
ATOM      3  N   UNL     1       2.635   5.894  18.434  0.00  0.00    +0.000 N 
ATOM      4  H   UNL     1       3.356   5.953  17.723  0.00  0.00    +0.000 HD
ENDROOT
BRANCH   3   5
ATOM      5  C   UNL     1       2.124   7.113  18.937  0.00  0.00    +0.000 A 
ATOM      6  C   UNL     1       1.805   7.294  20.305  0.00  0.00    +0.000 A 
ATOM      7  C   UNL     1       1.327   8.513  20.802  0.00  0.00    +0.000 A 
ATOM      8  C   UNL     1       1.188   9.533  19.899  0.00  0.00    +0.000 A 
ATOM      9  N   UNL     1       0.747  10.835  20.094  0.00  0.00    +0.000 N 
ATOM     10  C   UNL     1       0.777  11.508  18.866  0.00  0.00    +0.000 A 
ATOM     11  O   UNL     1       0.463  12.667  18.664  0.00  0.00    +0.000 OA
ATOM     12  N   UNL     1       1.246  10.587  17.915  0.00  0.00    +0.000 N 
ATOM     13  C   UNL     1       1.498   9.374  18.550  0.00  0.00    +0.000 A 
ATOM     14  C   UNL     1       1.973   8.184  18.039  0.00  0.00    +0.000 A 
ATOM     15  H   UNL     1       0.450  11.254  20.961  0.00  0.00    +0.000 HD
ATOM     16  H   UNL     1       1.363  10.809  16.941  0.00  0.00    +0.000 HD
ENDBRANCH   3   5
BRANCH   2  17
ATOM     17  C   UNL     1       3.048   3.492  18.231  0.00  0.00    +0.000 C 
BRANCH  17  18
ATOM     18  C   UNL     1       4.483   3.877  18.085  0.00  0.00    +0.000 A 
ATOM     19  C   UNL     1       5.406   3.984  19.108  0.00  0.00    +0.000 A 
ATOM     20  N   UNL     1       6.615   4.325  18.564  0.00  0.00    +0.000 N 
ATOM     21  C   UNL     1       6.503   4.454  17.200  0.00  0.00    +0.000 A 
ATOM     22  C   UNL     1       7.468   4.798  16.246  0.00  0.00    +0.000 A 
ATOM     23  C   UNL     1       7.070   4.840  14.907  0.00  0.00    +0.000 A 
ATOM     24  C   UNL     1       5.762   4.537  14.539  0.00  0.00    +0.000 A 
ATOM     25  C   UNL     1       4.811   4.191  15.505  0.00  0.00    +0.000 A 
ATOM     26  C   UNL     1       5.181   4.159  16.865  0.00  0.00    +0.000 A 
ATOM     27  H   UNL     1       7.474   4.453  19.081  0.00  0.00    +0.000 HD
ENDBRANCH  17  18
ENDBRANCH   2  17
TORSDOF 3
ENDMDL
