MODEL 1
REMARK VINA RESULT:      -6.5      0.000      0.000
REMARK  Name = 
REMARK  7 active torsions:
REMARK  status: ('A' for Active; 'I' for Inactive)
REMARK    1  A    between atoms: C_1  and  C_2
REMARK    2  A    between atoms: C_2  and  C_3
REMARK    3  A    between atoms: C_2  and  N_24
REMARK    4  A    between atoms: N_5  and  C_6
REMARK    5  A    between atoms: C_10  and  C_11
REMARK    6  A    between atoms: N_13  and  C_14
REMARK    7  A    between atoms: C_14  and  C_15
REMARK                            x       y       z     vdW  Elec       q    Type
REMARK                         _______ _______ _______ _____ _____    ______ ____
ROOT
ATOM      1  C   UNL     1       0.799  11.475  20.088  0.00  0.00    +0.000 A 
ATOM      2  S   UNL     1       1.341  10.947  18.555  0.00  0.00    +0.000 S 
ATOM      3  C   UNL     1       1.531   9.399  19.154  0.00  0.00    +0.000 A 
ATOM      4  C   UNL     1       1.093   9.231  20.444  0.00  0.00    +0.000 A 
ATOM      5  C   UNL     1       0.595  10.452  21.011  0.00  0.00    +0.000 A 
ATOM      6  C   UNL     1       1.192   7.796  20.832  0.00  0.00    +0.000 C 
ATOM      7  C   UNL     1       2.132   7.211  19.729  0.00  0.00    +0.000 C 
ATOM      8  C   UNL     1       2.026   8.163  18.503  0.00  0.00    +0.000 C 
ENDROOT
BRANCH   1  11
ATOM      9  C   UNL     1      -0.557  13.402  19.698  0.00  0.00    +0.000 C 
ATOM     10  O   UNL     1      -1.495  12.743  19.253  0.00  0.00    +0.000 OA
ATOM     11  N   UNL     1       0.627  12.841  20.186  0.00  0.00    +0.000 N 
ATOM     12  H   UNL     1       1.068  13.307  20.974  0.00  0.00    +0.000 HD
BRANCH   9  14
ATOM     13  C   UNL     1       0.686  15.638  19.815  0.00  0.00    +0.000 C 
ATOM     14  C   UNL     1      -0.661  14.927  19.935  0.00  0.00    +0.000 C 
BRANCH  14  15
ATOM     15  N   UNL     1      -1.305  15.158  21.224  0.00  0.00    +0.000 N 
ATOM     16  C   UNL     1      -0.679  14.925  22.416  0.00  0.00    +0.000 C 
ATOM     17  O   UNL     1       0.443  14.483  22.607  0.00  0.00    +0.000 OA
ATOM     18  C   UNL     1      -1.591  15.376  23.466  0.00  0.00    +0.000 A 
ATOM     19  C   UNL     1      -1.462  15.359  24.836  0.00  0.00    +0.000 A 
ATOM     20  C   UNL     1      -2.505  15.920  25.580  0.00  0.00    +0.000 A 
ATOM     21  C   UNL     1      -3.639  16.467  24.945  0.00  0.00    +0.000 A 
ATOM     22  C   UNL     1      -3.752  16.460  23.551  0.00  0.00    +0.000 A 
ATOM     23  C   UNL     1      -2.702  15.912  22.843  0.00  0.00    +0.000 A 
ATOM     24  C   UNL     1      -2.503  15.797  21.403  0.00  0.00    +0.000 C 
ATOM     25  O   UNL     1      -3.306  16.218  20.594  0.00  0.00    +0.000 OA
ENDBRANCH  14  15
ENDBRANCH   9  14
ENDBRANCH   1  11
BRANCH   5  26
ATOM     26  C   UNL     1      -0.133  10.665  22.262  0.00  0.00    +0.000 C 
ATOM     27  O   UNL     1       0.298  10.248  23.338  0.00  0.00    +0.000 OA
ATOM     28  N   UNL     1      -1.287  11.415  22.181  0.00  0.00    +0.000 N 
ATOM     29  H   UNL     1      -1.708  11.558  21.276  0.00  0.00    +0.000 HD
BRANCH  28  30
ATOM     30  C   UNL     1      -2.064  11.696  23.369  0.00  0.00    +0.000 C 
BRANCH  30  31
ATOM     31  C   UNL     1      -3.391  12.320  23.059  0.00  0.00    +0.000 A 
ATOM     32  C   UNL     1      -4.259  12.729  24.077  0.00  0.00    +0.000 A 
ATOM     33  C   UNL     1      -5.482  13.306  23.753  0.00  0.00    +0.000 A 
ATOM     34  C   UNL     1      -5.801  13.455  22.415  0.00  0.00    +0.000 A 
ATOM     35  N   UNL     1      -4.994  13.071  21.401  0.00  0.00    +0.000 NA
ATOM     36  C   UNL     1      -3.816  12.506  21.748  0.00  0.00    +0.000 A 
ENDBRANCH  30  31
ENDBRANCH  28  30
ENDBRANCH   5  26
TORSDOF 6
ENDMDL
MODEL 2
REMARK VINA RESULT:      -6.5      0.579      1.742
REMARK  Name = 
REMARK  7 active torsions:
REMARK  status: ('A' for Active; 'I' for Inactive)
REMARK    1  A    between atoms: C_1  and  C_2
REMARK    2  A    between atoms: C_2  and  C_3
REMARK    3  A    between atoms: C_2  and  N_24
REMARK    4  A    between atoms: N_5  and  C_6
REMARK    5  A    between atoms: C_10  and  C_11
REMARK    6  A    between atoms: N_13  and  C_14
REMARK    7  A    between atoms: C_14  and  C_15
REMARK                            x       y       z     vdW  Elec       q    Type
REMARK                         _______ _______ _______ _____ _____    ______ ____
ROOT
ATOM      1  C   UNL     1       0.960  11.596  19.812  0.00  0.00    +0.000 A 
ATOM      2  S   UNL     1       1.438  11.096  18.249  0.00  0.00    +0.000 S 
ATOM      3  C   UNL     1       1.617   9.530  18.802  0.00  0.00    +0.000 A 
ATOM      4  C   UNL     1       1.219   9.338  20.102  0.00  0.00    +0.000 A 
ATOM      5  C   UNL     1       0.766  10.554  20.715  0.00  0.00    +0.000 A 
ATOM      6  C   UNL     1       1.302   7.892  20.450  0.00  0.00    +0.000 C 
ATOM      7  C   UNL     1       2.191   7.316  19.302  0.00  0.00    +0.000 C 
ATOM      8  C   UNL     1       2.064   8.301  18.104  0.00  0.00    +0.000 C 
ENDROOT
BRANCH   1  11
ATOM      9  C   UNL     1      -0.394  13.550  19.579  0.00  0.00    +0.000 C 
ATOM     10  O   UNL     1      -1.378  12.913  19.208  0.00  0.00    +0.000 OA
ATOM     11  N   UNL     1       0.819  12.962  19.949  0.00  0.00    +0.000 N 
ATOM     12  H   UNL     1       1.337  13.406  20.703  0.00  0.00    +0.000 HD
BRANCH   9  14
ATOM     13  C   UNL     1       0.903  15.756  19.676  0.00  0.00    +0.000 C 
ATOM     14  C   UNL     1      -0.451  15.071  19.852  0.00  0.00    +0.000 C 
BRANCH  14  15
ATOM     15  N   UNL     1      -1.022  15.288  21.177  0.00  0.00    +0.000 N 
ATOM     16  C   UNL     1      -2.279  15.788  21.368  0.00  0.00    +0.000 C 
ATOM     17  O   UNL     1      -3.086  16.147  20.526  0.00  0.00    +0.000 OA
ATOM     18  C   UNL     1      -2.531  15.754  22.808  0.00  0.00    +0.000 A 
ATOM     19  C   UNL     1      -3.630  16.150  23.537  0.00  0.00    +0.000 A 
ATOM     20  C   UNL     1      -3.586  15.937  24.919  0.00  0.00    +0.000 A 
ATOM     21  C   UNL     1      -2.458  15.351  25.529  0.00  0.00    +0.000 A 
ATOM     22  C   UNL     1      -1.350  14.969  24.768  0.00  0.00    +0.000 A 
ATOM     23  C   UNL     1      -1.426  15.179  23.405  0.00  0.00    +0.000 A 
ATOM     24  C   UNL     1      -0.470  14.854  22.353  0.00  0.00    +0.000 C 
ATOM     25  O   UNL     1       0.589  14.305  22.577  0.00  0.00    +0.000 OA
ENDBRANCH  14  15
ENDBRANCH   9  14
ENDBRANCH   1  11
BRANCH   5  26
ATOM     26  C   UNL     1       0.085  10.749  21.995  0.00  0.00    +0.000 C 
ATOM     27  O   UNL     1       0.570  10.342  23.052  0.00  0.00    +0.000 OA
ATOM     28  N   UNL     1      -1.089  11.473  21.963  0.00  0.00    +0.000 N 
ATOM     29  H   UNL     1      -1.550  11.606  21.076  0.00  0.00    +0.000 HD
BRANCH  28  30
ATOM     30  C   UNL     1      -1.822  11.734  23.182  0.00  0.00    +0.000 C 
BRANCH  30  31
ATOM     31  C   UNL     1      -3.218  12.215  22.926  0.00  0.00    +0.000 A 
ATOM     32  C   UNL     1      -3.655  12.530  21.635  0.00  0.00    +0.000 A 
ATOM     33  C   UNL     1      -4.958  12.972  21.434  0.00  0.00    +0.000 A 
ATOM     34  C   UNL     1      -5.786  13.090  22.536  0.00  0.00    +0.000 A 
ATOM     35  N   UNL     1      -5.404  12.801  23.800  0.00  0.00    +0.000 NA
ATOM     36  C   UNL     1      -4.130  12.381  23.964  0.00  0.00    +0.000 A 
ENDBRANCH  30  31
ENDBRANCH  28  30
ENDBRANCH   5  26
TORSDOF 6
ENDMDL
MODEL 3
REMARK VINA RESULT:      -6.2      4.347      8.344
REMARK  Name = 
REMARK  7 active torsions:
REMARK  status: ('A' for Active; 'I' for Inactive)
REMARK    1  A    between atoms: C_1  and  C_2
REMARK    2  A    between atoms: C_2  and  C_3
REMARK    3  A    between atoms: C_2  and  N_24
REMARK    4  A    between atoms: N_5  and  C_6
REMARK    5  A    between atoms: C_10  and  C_11
REMARK    6  A    between atoms: N_13  and  C_14
REMARK    7  A    between atoms: C_14  and  C_15
REMARK                            x       y       z     vdW  Elec       q    Type
REMARK                         _______ _______ _______ _____ _____    ______ ____
ROOT
ATOM      1  C   UNL     1       2.055   7.639  19.440  0.00  0.00    +0.000 A 
ATOM      2  S   UNL     1       1.202   6.998  20.775  0.00  0.00    +0.000 S 
ATOM      3  C   UNL     1       1.521   5.449  20.237  0.00  0.00    +0.000 A 
ATOM      4  C   UNL     1       2.349   5.387  19.144  0.00  0.00    +0.000 A 
ATOM      5  C   UNL     1       2.731   6.689  18.678  0.00  0.00    +0.000 A 
ATOM      6  C   UNL     1       2.667   3.966  18.827  0.00  0.00    +0.000 C 
ATOM      7  C   UNL     1       1.584   3.186  19.639  0.00  0.00    +0.000 C 
ATOM      8  C   UNL     1       1.120   4.131  20.785  0.00  0.00    +0.000 C 
ENDROOT
BRANCH   1  11
ATOM      9  C   UNL     1       1.017   9.543  18.439  0.00  0.00    +0.000 C 
ATOM     10  O   UNL     1       0.202   8.863  17.818  0.00  0.00    +0.000 OA
ATOM     11  N   UNL     1       1.964   9.011  19.319  0.00  0.00    +0.000 N 
ATOM     12  H   UNL     1       2.191   9.563  20.142  0.00  0.00    +0.000 HD
BRANCH   9  14
ATOM     13  C   UNL     1       2.341  11.729  18.596  0.00  0.00    +0.000 C 
ATOM     14  C   UNL     1       0.962  11.088  18.452  0.00  0.00    +0.000 C 
BRANCH  14  15
ATOM     15  N   UNL     1       0.032  11.515  19.493  0.00  0.00    +0.000 N 
ATOM     16  C   UNL     1      -1.207  12.020  19.218  0.00  0.00    +0.000 C 
ATOM     17  O   UNL     1      -1.716  12.221  18.127  0.00  0.00    +0.000 OA
ATOM     18  C   UNL     1      -1.874  12.223  20.503  0.00  0.00    +0.000 A 
ATOM     19  C   UNL     1      -3.124  12.719  20.797  0.00  0.00    +0.000 A 
ATOM     20  C   UNL     1      -3.498  12.741  22.145  0.00  0.00    +0.000 A 
ATOM     21  C   UNL     1      -2.621  12.283  23.151  0.00  0.00    +0.000 A 
ATOM     22  C   UNL     1      -1.352  11.796  22.826  0.00  0.00    +0.000 A 
ATOM     23  C   UNL     1      -1.015  11.774  21.487  0.00  0.00    +0.000 A 
ATOM     24  C   UNL     1       0.197  11.292  20.835  0.00  0.00    +0.000 C 
ATOM     25  O   UNL     1       1.123  10.805  21.450  0.00  0.00    +0.000 OA
ENDBRANCH  14  15
ENDBRANCH   9  14
ENDBRANCH   1  11
BRANCH   5  26
ATOM     26  C   UNL     1       3.739   7.061  17.685  0.00  0.00    +0.000 C 
ATOM     27  O   UNL     1       3.533   7.952  16.860  0.00  0.00    +0.000 OA
ATOM     28  N   UNL     1       4.952   6.410  17.768  0.00  0.00    +0.000 N 
ATOM     29  H   UNL     1       5.009   5.562  18.309  0.00  0.00    +0.000 HD
BRANCH  28  30
ATOM     30  C   UNL     1       6.017   6.726  16.841  0.00  0.00    +0.000 C 
BRANCH  30  31
ATOM     31  C   UNL     1       6.119   5.737  15.719  0.00  0.00    +0.000 A 
ATOM     32  C   UNL     1       5.255   4.641  15.632  0.00  0.00    +0.000 A 
ATOM     33  C   UNL     1       5.378   3.744  14.576  0.00  0.00    +0.000 A 
ATOM     34  C   UNL     1       6.368   3.971  13.637  0.00  0.00    +0.000 A 
ATOM     35  N   UNL     1       7.226   5.014  13.684  0.00  0.00    +0.000 NA
ATOM     36  C   UNL     1       7.086   5.864  14.727  0.00  0.00    +0.000 A 
ENDBRANCH  30  31
ENDBRANCH  28  30
ENDBRANCH   5  26
TORSDOF 6
ENDMDL
MODEL 4
REMARK VINA RESULT:      -6.2      1.168      1.309
REMARK  Name = 
REMARK  7 active torsions:
REMARK  status: ('A' for Active; 'I' for Inactive)
REMARK    1  A    between atoms: C_1  and  C_2
REMARK    2  A    between atoms: C_2  and  C_3
REMARK    3  A    between atoms: C_2  and  N_24
REMARK    4  A    between atoms: N_5  and  C_6
REMARK    5  A    between atoms: C_10  and  C_11
REMARK    6  A    between atoms: N_13  and  C_14
REMARK    7  A    between atoms: C_14  and  C_15
REMARK                            x       y       z     vdW  Elec       q    Type
REMARK                         _______ _______ _______ _____ _____    ______ ____
ROOT
ATOM      1  C   UNL     1       0.189  11.881  20.333  0.00  0.00    +0.000 A 
ATOM      2  S   UNL     1       0.818  11.404  18.817  0.00  0.00    +0.000 S 
ATOM      3  C   UNL     1       1.138   9.882  19.426  0.00  0.00    +0.000 A 
ATOM      4  C   UNL     1       0.683   9.676  20.705  0.00  0.00    +0.000 A 
ATOM      5  C   UNL     1       0.058  10.845  21.254  0.00  0.00    +0.000 A 
ATOM      6  C   UNL     1       0.907   8.257  21.101  0.00  0.00    +0.000 C 
ATOM      7  C   UNL     1       1.927   7.761  20.025  0.00  0.00    +0.000 C 
ATOM      8  C   UNL     1       1.764   8.697  18.793  0.00  0.00    +0.000 C 
ENDROOT
BRANCH   1  11
ATOM      9  C   UNL     1       0.761  14.063  21.118  0.00  0.00    +0.000 C 
ATOM     10  O   UNL     1       1.829  13.691  21.597  0.00  0.00    +0.000 OA
ATOM     11  N   UNL     1      -0.114  13.225  20.420  0.00  0.00    +0.000 N 
ATOM     12  H   UNL     1      -0.624  13.634  19.642  0.00  0.00    +0.000 HD
BRANCH   9  14
ATOM     13  C   UNL     1       1.448  16.484  21.590  0.00  0.00    +0.000 C 
ATOM     14  C   UNL     1       0.350  15.554  21.077  0.00  0.00    +0.000 C 
BRANCH  14  15
ATOM     15  N   UNL     1      -0.906  15.714  21.803  0.00  0.00    +0.000 N 
ATOM     16  C   UNL     1      -1.009  15.534  23.153  0.00  0.00    +0.000 C 
ATOM     17  O   UNL     1      -0.137  15.201  23.940  0.00  0.00    +0.000 OA
ATOM     18  C   UNL     1      -2.378  15.889  23.522  0.00  0.00    +0.000 A 
ATOM     19  C   UNL     1      -3.011  15.876  24.744  0.00  0.00    +0.000 A 
ATOM     20  C   UNL     1      -4.334  16.330  24.781  0.00  0.00    +0.000 A 
ATOM     21  C   UNL     1      -4.984  16.770  23.609  0.00  0.00    +0.000 A 
ATOM     22  C   UNL     1      -4.323  16.761  22.377  0.00  0.00    +0.000 A 
ATOM     23  C   UNL     1      -3.015  16.320  22.374  0.00  0.00    +0.000 A 
ATOM     24  C   UNL     1      -2.059  16.234  21.276  0.00  0.00    +0.000 C 
ATOM     25  O   UNL     1      -2.328  16.580  20.144  0.00  0.00    +0.000 OA
ENDBRANCH  14  15
ENDBRANCH   9  14
ENDBRANCH   1  11
BRANCH   5  26
ATOM     26  C   UNL     1      -0.720  10.990  22.484  0.00  0.00    +0.000 C 
ATOM     27  O   UNL     1      -0.363  10.461  23.538  0.00  0.00    +0.000 OA
ATOM     28  N   UNL     1      -1.830  11.804  22.417  0.00  0.00    +0.000 N 
ATOM     29  H   UNL     1      -2.198  12.046  21.510  0.00  0.00    +0.000 HD
BRANCH  28  30
ATOM     30  C   UNL     1      -2.650  12.025  23.589  0.00  0.00    +0.000 C 
BRANCH  30  31
ATOM     31  C   UNL     1      -4.008  12.562  23.253  0.00  0.00    +0.000 A 
ATOM     32  C   UNL     1      -4.994  12.714  24.233  0.00  0.00    +0.000 A 
ATOM     33  C   UNL     1      -6.244  13.217  23.886  0.00  0.00    +0.000 A 
ATOM     34  C   UNL     1      -6.469  13.550  22.562  0.00  0.00    +0.000 A 
ATOM     35  N   UNL     1      -5.547  13.415  21.583  0.00  0.00    +0.000 NA
ATOM     36  C   UNL     1      -4.345  12.917  21.951  0.00  0.00    +0.000 A 
ENDBRANCH  30  31
ENDBRANCH  28  30
ENDBRANCH   5  26
TORSDOF 6
ENDMDL
MODEL 5
REMARK VINA RESULT:      -6.0      5.264      9.326
REMARK  Name = 
REMARK  7 active torsions:
REMARK  status: ('A' for Active; 'I' for Inactive)
REMARK    1  A    between atoms: C_1  and  C_2
REMARK    2  A    between atoms: C_2  and  C_3
REMARK    3  A    between atoms: C_2  and  N_24
REMARK    4  A    between atoms: N_5  and  C_6
REMARK    5  A    between atoms: C_10  and  C_11
REMARK    6  A    between atoms: N_13  and  C_14
REMARK    7  A    between atoms: C_14  and  C_15
REMARK                            x       y       z     vdW  Elec       q    Type
REMARK                         _______ _______ _______ _____ _____    ______ ____
ROOT
ATOM      1  C   UNL     1       2.782   6.455  18.623  0.00  0.00    +0.000 A 
ATOM      2  S   UNL     1       1.790   5.943  19.917  0.00  0.00    +0.000 S 
ATOM      3  C   UNL     1       2.687   4.541  20.053  0.00  0.00    +0.000 A 
ATOM      4  C   UNL     1       3.786   4.488  19.230  0.00  0.00    +0.000 A 
ATOM      5  C   UNL     1       3.898   5.653  18.400  0.00  0.00    +0.000 A 
ATOM      6  C   UNL     1       4.579   3.261  19.520  0.00  0.00    +0.000 C 
ATOM      7  C   UNL     1       3.574   2.394  20.345  0.00  0.00    +0.000 C 
ATOM      8  C   UNL     1       2.537   3.379  20.960  0.00  0.00    +0.000 C 
ENDROOT
BRANCH   1  11
ATOM      9  C   UNL     1       1.762   8.610  18.770  0.00  0.00    +0.000 C 
ATOM     10  O   UNL     1       1.690   8.573  19.997  0.00  0.00    +0.000 OA
ATOM     11  N   UNL     1       2.340   7.602  17.994  0.00  0.00    +0.000 N 
ATOM     12  H   UNL     1       2.842   7.892  17.158  0.00  0.00    +0.000 HD
BRANCH   9  14
ATOM     13  C   UNL     1       2.511  10.894  17.887  0.00  0.00    +0.000 C 
ATOM     14  C   UNL     1       1.379   9.870  17.960  0.00  0.00    +0.000 C 
BRANCH  14  15
ATOM     15  N   UNL     1       0.151  10.430  18.515  0.00  0.00    +0.000 N 
ATOM     16  C   UNL     1       0.141  11.263  19.598  0.00  0.00    +0.000 C 
ATOM     17  O   UNL     1       1.087  11.640  20.271  0.00  0.00    +0.000 OA
ATOM     18  C   UNL     1      -1.243  11.697  19.782  0.00  0.00    +0.000 A 
ATOM     19  C   UNL     1      -1.806  12.526  20.727  0.00  0.00    +0.000 A 
ATOM     20  C   UNL     1      -3.173  12.795  20.603  0.00  0.00    +0.000 A 
ATOM     21  C   UNL     1      -3.934  12.229  19.558  0.00  0.00    +0.000 A 
ATOM     22  C   UNL     1      -3.340  11.381  18.619  0.00  0.00    +0.000 A 
ATOM     23  C   UNL     1      -1.987  11.143  18.759  0.00  0.00    +0.000 A 
ATOM     24  C   UNL     1      -1.085  10.354  17.929  0.00  0.00    +0.000 C 
ATOM     25  O   UNL     1      -1.454   9.772  16.929  0.00  0.00    +0.000 OA
ENDBRANCH  14  15
ENDBRANCH   9  14
ENDBRANCH   1  11
BRANCH   5  26
ATOM     26  C   UNL     1       5.005   6.080  17.545  0.00  0.00    +0.000 C 
ATOM     27  O   UNL     1       5.294   7.269  17.409  0.00  0.00    +0.000 OA
ATOM     28  N   UNL     1       5.749   5.077  16.957  0.00  0.00    +0.000 N 
ATOM     29  H   UNL     1       5.364   4.146  16.925  0.00  0.00    +0.000 HD
BRANCH  28  30
ATOM     30  C   UNL     1       6.876   5.402  16.111  0.00  0.00    +0.000 C 
BRANCH  30  31
ATOM     31  C   UNL     1       6.732   4.858  14.722  0.00  0.00    +0.000 A 
ATOM     32  C   UNL     1       5.697   3.978  14.387  0.00  0.00    +0.000 A 
ATOM     33  C   UNL     1       5.593   3.494  13.088  0.00  0.00    +0.000 A 
ATOM     34  C   UNL     1       6.534   3.903  12.159  0.00  0.00    +0.000 A 
ATOM     35  N   UNL     1       7.551   4.748  12.441  0.00  0.00    +0.000 NA
ATOM     36  C   UNL     1       7.630   5.196  13.714  0.00  0.00    +0.000 A 
ENDBRANCH  30  31
ENDBRANCH  28  30
ENDBRANCH   5  26
TORSDOF 6
ENDMDL
MODEL 6
REMARK VINA RESULT:      -6.0      5.268      9.312
REMARK  Name = 
REMARK  7 active torsions:
REMARK  status: ('A' for Active; 'I' for Inactive)
REMARK    1  A    between atoms: C_1  and  C_2
REMARK    2  A    between atoms: C_2  and  C_3
REMARK    3  A    between atoms: C_2  and  N_24
REMARK    4  A    between atoms: N_5  and  C_6
REMARK    5  A    between atoms: C_10  and  C_11
REMARK    6  A    between atoms: N_13  and  C_14
REMARK    7  A    between atoms: C_14  and  C_15
REMARK                            x       y       z     vdW  Elec       q    Type
REMARK                         _______ _______ _______ _____ _____    ______ ____
ROOT
ATOM      1  C   UNL     1       2.793   6.483  18.620  0.00  0.00    +0.000 A 
ATOM      2  S   UNL     1       1.882   5.741  19.862  0.00  0.00    +0.000 S 
ATOM      3  C   UNL     1       2.296   4.235  19.268  0.00  0.00    +0.000 A 
ATOM      4  C   UNL     1       3.194   4.262  18.229  0.00  0.00    +0.000 A 
ATOM      5  C   UNL     1       3.553   5.600  17.857  0.00  0.00    +0.000 A 
ATOM      6  C   UNL     1       3.587   2.873  17.863  0.00  0.00    +0.000 C 
ATOM      7  C   UNL     1       2.485   2.012  18.560  0.00  0.00    +0.000 C 
ATOM      8  C   UNL     1       1.913   2.877  19.720  0.00  0.00    +0.000 C 
ENDROOT
BRANCH   1  11
ATOM      9  C   UNL     1       1.520   8.389  17.946  0.00  0.00    +0.000 C 
ATOM     10  O   UNL     1       0.592   7.708  17.515  0.00  0.00    +0.000 OA
ATOM     11  N   UNL     1       2.656   7.856  18.563  0.00  0.00    +0.000 N 
ATOM     12  H   UNL     1       3.062   8.392  19.325  0.00  0.00    +0.000 HD
BRANCH   9  14
ATOM     13  C   UNL     1       2.824  10.586  18.113  0.00  0.00    +0.000 C 
ATOM     14  C   UNL     1       1.447   9.932  18.016  0.00  0.00    +0.000 C 
BRANCH  14  15
ATOM     15  N   UNL     1       0.567  10.309  19.117  0.00  0.00    +0.000 N 
ATOM     16  C   UNL     1       0.753   9.870  20.397  0.00  0.00    +0.000 C 
ATOM     17  O   UNL     1       1.610   9.109  20.819  0.00  0.00    +0.000 OA
ATOM     18  C   UNL     1      -0.248  10.544  21.223  0.00  0.00    +0.000 A 
ATOM     19  C   UNL     1      -0.507  10.453  22.572  0.00  0.00    +0.000 A 
ATOM     20  C   UNL     1      -1.514  11.279  23.083  0.00  0.00    +0.000 A 
ATOM     21  C   UNL     1      -2.232  12.156  22.242  0.00  0.00    +0.000 A 
ATOM     22  C   UNL     1      -1.957  12.219  20.873  0.00  0.00    +0.000 A 
ATOM     23  C   UNL     1      -0.950  11.402  20.399  0.00  0.00    +0.000 A 
ATOM     24  C   UNL     1      -0.406  11.272  19.053  0.00  0.00    +0.000 C 
ATOM     25  O   UNL     1      -0.807  11.933  18.117  0.00  0.00    +0.000 OA
ENDBRANCH  14  15
ENDBRANCH   9  14
ENDBRANCH   1  11
BRANCH   5  26
ATOM     26  C   UNL     1       4.607   6.060  16.953  0.00  0.00    +0.000 C 
ATOM     27  O   UNL     1       4.580   7.184  16.450  0.00  0.00    +0.000 OA
ATOM     28  N   UNL     1       5.663   5.197  16.750  0.00  0.00    +0.000 N 
ATOM     29  H   UNL     1       5.551   4.228  17.006  0.00  0.00    +0.000 HD
BRANCH  28  30
ATOM     30  C   UNL     1       6.762   5.573  15.888  0.00  0.00    +0.000 C 
BRANCH  30  31
ATOM     31  C   UNL     1       6.689   4.923  14.540  0.00  0.00    +0.000 A 
ATOM     32  C   UNL     1       5.693   3.989  14.234  0.00  0.00    +0.000 A 
ATOM     33  C   UNL     1       5.653   3.406  12.972  0.00  0.00    +0.000 A 
ATOM     34  C   UNL     1       6.619   3.775  12.051  0.00  0.00    +0.000 A 
ATOM     35  N   UNL     1       7.600   4.668  12.306  0.00  0.00    +0.000 NA
ATOM     36  C   UNL     1       7.616   5.212  13.544  0.00  0.00    +0.000 A 
ENDBRANCH  30  31
ENDBRANCH  28  30
ENDBRANCH   5  26
TORSDOF 6
ENDMDL
MODEL 7
REMARK VINA RESULT:      -5.9      3.378      5.791
REMARK  Name = 
REMARK  7 active torsions:
REMARK  status: ('A' for Active; 'I' for Inactive)
REMARK    1  A    between atoms: C_1  and  C_2
REMARK    2  A    between atoms: C_2  and  C_3
REMARK    3  A    between atoms: C_2  and  N_24
REMARK    4  A    between atoms: N_5  and  C_6
REMARK    5  A    between atoms: C_10  and  C_11
REMARK    6  A    between atoms: N_13  and  C_14
REMARK    7  A    between atoms: C_14  and  C_15
REMARK                            x       y       z     vdW  Elec       q    Type
REMARK                         _______ _______ _______ _____ _____    ______ ____
ROOT
ATOM      1  C   UNL     1       0.290  13.072  20.646  0.00  0.00    +0.000 A 
ATOM      2  S   UNL     1       1.098  11.684  20.060  0.00  0.00    +0.000 S 
ATOM      3  C   UNL     1       0.473  10.786  21.323  0.00  0.00    +0.000 A 
ATOM      4  C   UNL     1      -0.419  11.464  22.115  0.00  0.00    +0.000 A 
ATOM      5  C   UNL     1      -0.591  12.826  21.695  0.00  0.00    +0.000 A 
ATOM      6  C   UNL     1      -1.006  10.540  23.126  0.00  0.00    +0.000 C 
ATOM      7  C   UNL     1      -0.030   9.321  23.078  0.00  0.00    +0.000 C 
ATOM      8  C   UNL     1       0.666   9.362  21.686  0.00  0.00    +0.000 C 
ENDROOT
BRANCH   1  11
ATOM      9  C   UNL     1       1.533  15.111  20.576  0.00  0.00    +0.000 C 
ATOM     10  O   UNL     1       2.127  14.870  21.626  0.00  0.00    +0.000 OA
ATOM     11  N   UNL     1       0.618  14.237  19.982  0.00  0.00    +0.000 N 
ATOM     12  H   UNL     1       0.598  14.210  18.966  0.00  0.00    +0.000 HD
BRANCH   9  14
ATOM     13  C   UNL     1       0.868  16.557  18.570  0.00  0.00    +0.000 C 
ATOM     14  C   UNL     1       1.873  16.338  19.699  0.00  0.00    +0.000 C 
BRANCH  14  15
ATOM     15  N   UNL     1       3.242  16.202  19.213  0.00  0.00    +0.000 N 
ATOM     16  C   UNL     1       4.240  17.069  19.557  0.00  0.00    +0.000 C 
ATOM     17  O   UNL     1       4.167  18.065  20.259  0.00  0.00    +0.000 OA
ATOM     18  C   UNL     1       5.474  16.545  18.974  0.00  0.00    +0.000 A 
ATOM     19  C   UNL     1       6.760  17.034  19.005  0.00  0.00    +0.000 A 
ATOM     20  C   UNL     1       7.749  16.263  18.385  0.00  0.00    +0.000 A 
ATOM     21  C   UNL     1       7.429  15.044  17.751  0.00  0.00    +0.000 A 
ATOM     22  C   UNL     1       6.112  14.576  17.723  0.00  0.00    +0.000 A 
ATOM     23  C   UNL     1       5.160  15.351  18.353  0.00  0.00    +0.000 A 
ATOM     24  C   UNL     1       3.732  15.118  18.533  0.00  0.00    +0.000 C 
ATOM     25  O   UNL     1       3.173  14.122  18.120  0.00  0.00    +0.000 OA
ENDBRANCH  14  15
ENDBRANCH   9  14
ENDBRANCH   1  11
BRANCH   5  26
ATOM     26  C   UNL     1      -1.577  13.814  22.134  0.00  0.00    +0.000 C 
ATOM     27  O   UNL     1      -2.176  14.527  21.328  0.00  0.00    +0.000 OA
ATOM     28  N   UNL     1      -1.847  13.854  23.485  0.00  0.00    +0.000 N 
ATOM     29  H   UNL     1      -1.202  13.412  24.121  0.00  0.00    +0.000 HD
BRANCH  28  30
ATOM     30  C   UNL     1      -2.823  14.785  24.010  0.00  0.00    +0.000 C 
BRANCH  30  31
ATOM     31  C   UNL     1      -4.210  14.217  24.035  0.00  0.00    +0.000 A 
ATOM     32  C   UNL     1      -4.440  12.871  24.334  0.00  0.00    +0.000 A 
ATOM     33  C   UNL     1      -5.741  12.377  24.350  0.00  0.00    +0.000 A 
ATOM     34  C   UNL     1      -6.775  13.251  24.061  0.00  0.00    +0.000 A 
ATOM     35  N   UNL     1      -6.596  14.557  23.764  0.00  0.00    +0.000 NA
ATOM     36  C   UNL     1      -5.320  15.005  23.750  0.00  0.00    +0.000 A 
ENDBRANCH  30  31
ENDBRANCH  28  30
ENDBRANCH   5  26
TORSDOF 6
ENDMDL
MODEL 8
REMARK VINA RESULT:      -5.9      4.485      8.366
REMARK  Name = 
REMARK  7 active torsions:
REMARK  status: ('A' for Active; 'I' for Inactive)
REMARK    1  A    between atoms: C_1  and  C_2
REMARK    2  A    between atoms: C_2  and  C_3
REMARK    3  A    between atoms: C_2  and  N_24
REMARK    4  A    between atoms: N_5  and  C_6
REMARK    5  A    between atoms: C_10  and  C_11
REMARK    6  A    between atoms: N_13  and  C_14
REMARK    7  A    between atoms: C_14  and  C_15
REMARK                            x       y       z     vdW  Elec       q    Type
REMARK                         _______ _______ _______ _____ _____    ______ ____
ROOT
ATOM      1  C   UNL     1       2.139   7.297  19.527  0.00  0.00    +0.000 A 
ATOM      2  S   UNL     1       1.247   6.642  20.829  0.00  0.00    +0.000 S 
ATOM      3  C   UNL     1       1.641   5.099  20.325  0.00  0.00    +0.000 A 
ATOM      4  C   UNL     1       2.519   5.053  19.271  0.00  0.00    +0.000 A 
ATOM      5  C   UNL     1       2.879   6.363  18.808  0.00  0.00    +0.000 A 
ATOM      6  C   UNL     1       2.898   3.641  18.986  0.00  0.00    +0.000 C 
ATOM      7  C   UNL     1       1.804   2.834  19.757  0.00  0.00    +0.000 C 
ATOM      8  C   UNL     1       1.258   3.775  20.870  0.00  0.00    +0.000 C 
ENDROOT
BRANCH   1  11
ATOM      9  C   UNL     1       1.127   9.155  18.418  0.00  0.00    +0.000 C 
ATOM     10  O   UNL     1       0.399   8.442  17.731  0.00  0.00    +0.000 OA
ATOM     11  N   UNL     1       2.008   8.665  19.385  0.00  0.00    +0.000 N 
ATOM     12  H   UNL     1       2.138   9.229  20.221  0.00  0.00    +0.000 HD
BRANCH   9  14
ATOM     13  C   UNL     1       2.358  11.391  18.630  0.00  0.00    +0.000 C 
ATOM     14  C   UNL     1       1.014  10.697  18.411  0.00  0.00    +0.000 C 
BRANCH  14  15
ATOM     15  N   UNL     1       0.010  11.097  19.392  0.00  0.00    +0.000 N 
ATOM     16  C   UNL     1       0.230  11.044  20.740  0.00  0.00    +0.000 C 
ATOM     17  O   UNL     1       1.224  10.651  21.329  0.00  0.00    +0.000 OA
ATOM     18  C   UNL     1      -0.949  11.624  21.382  0.00  0.00    +0.000 A 
ATOM     19  C   UNL     1      -1.250  11.802  22.713  0.00  0.00    +0.000 A 
ATOM     20  C   UNL     1      -2.456  12.446  23.012  0.00  0.00    +0.000 A 
ATOM     21  C   UNL     1      -3.322  12.880  21.986  0.00  0.00    +0.000 A 
ATOM     22  C   UNL     1      -2.998  12.676  20.642  0.00  0.00    +0.000 A 
ATOM     23  C   UNL     1      -1.797  12.050  20.377  0.00  0.00    +0.000 A 
ATOM     24  C   UNL     1      -1.166  11.737  19.101  0.00  0.00    +0.000 C 
ATOM     25  O   UNL     1      -1.667  12.027  18.033  0.00  0.00    +0.000 OA
ENDBRANCH  14  15
ENDBRANCH   9  14
ENDBRANCH   1  11
BRANCH   5  26
ATOM     26  C   UNL     1       3.919   6.757  17.857  0.00  0.00    +0.000 C 
ATOM     27  O   UNL     1       3.731   7.651  17.031  0.00  0.00    +0.000 OA
ATOM     28  N   UNL     1       5.138   6.125  17.982  0.00  0.00    +0.000 N 
ATOM     29  H   UNL     1       5.187   5.273  18.519  0.00  0.00    +0.000 HD
BRANCH  28  30
ATOM     30  C   UNL     1       6.233   6.463  17.099  0.00  0.00    +0.000 C 
BRANCH  30  31
ATOM     31  C   UNL     1       6.307   5.567  15.899  0.00  0.00    +0.000 A 
ATOM     32  C   UNL     1       5.508   4.424  15.793  0.00  0.00    +0.000 A 
ATOM     33  C   UNL     1       5.602   3.616  14.665  0.00  0.00    +0.000 A 
ATOM     34  C   UNL     1       6.500   3.976  13.675  0.00  0.00    +0.000 A 
ATOM     35  N   UNL     1       7.294   5.069  13.740  0.00  0.00    +0.000 NA
ATOM     36  C   UNL     1       7.184   5.830  14.852  0.00  0.00    +0.000 A 
ENDBRANCH  30  31
ENDBRANCH  28  30
ENDBRANCH   5  26
TORSDOF 6
ENDMDL
MODEL 9
REMARK VINA RESULT:      -5.8      2.844      4.339
REMARK  Name = 
REMARK  7 active torsions:
REMARK  status: ('A' for Active; 'I' for Inactive)
REMARK    1  A    between atoms: C_1  and  C_2
REMARK    2  A    between atoms: C_2  and  C_3
REMARK    3  A    between atoms: C_2  and  N_24
REMARK    4  A    between atoms: N_5  and  C_6
REMARK    5  A    between atoms: C_10  and  C_11
REMARK    6  A    between atoms: N_13  and  C_14
REMARK    7  A    between atoms: C_14  and  C_15
REMARK                            x       y       z     vdW  Elec       q    Type
REMARK                         _______ _______ _______ _____ _____    ______ ____
ROOT
ATOM      1  C   UNL     1      -2.156  10.994  18.959  0.00  0.00    +0.000 A 
ATOM      2  S   UNL     1      -1.129  10.358  17.750  0.00  0.00    +0.000 S 
ATOM      3  C   UNL     1      -2.375  10.448  16.641  0.00  0.00    +0.000 A 
ATOM      4  C   UNL     1      -3.515  11.049  17.115  0.00  0.00    +0.000 A 
ATOM      5  C   UNL     1      -3.390  11.438  18.491  0.00  0.00    +0.000 A 
ATOM      6  C   UNL     1      -4.510  11.190  16.016  0.00  0.00    +0.000 C 
ATOM      7  C   UNL     1      -3.952  10.219  14.926  0.00  0.00    +0.000 C 
ATOM      8  C   UNL     1      -2.431  10.055  15.213  0.00  0.00    +0.000 C 
ENDROOT
BRANCH   1  11
ATOM      9  C   UNL     1      -0.777  12.050  20.598  0.00  0.00    +0.000 C 
ATOM     10  O   UNL     1      -0.565  13.034  19.891  0.00  0.00    +0.000 OA
ATOM     11  N   UNL     1      -1.607  10.989  20.225  0.00  0.00    +0.000 N 
ATOM     12  H   UNL     1      -2.150  10.546  20.962  0.00  0.00    +0.000 HD
BRANCH   9  14
ATOM     13  C   UNL     1      -0.416  10.562  22.650  0.00  0.00    +0.000 C 
ATOM     14  C   UNL     1      -0.288  11.967  22.062  0.00  0.00    +0.000 C 
BRANCH  14  15
ATOM     15  N   UNL     1      -0.995  12.971  22.850  0.00  0.00    +0.000 N 
ATOM     16  C   UNL     1      -0.468  14.201  23.126  0.00  0.00    +0.000 C 
ATOM     17  O   UNL     1       0.626  14.642  22.812  0.00  0.00    +0.000 OA
ATOM     18  C   UNL     1      -1.504  14.955  23.831  0.00  0.00    +0.000 A 
ATOM     19  C   UNL     1      -1.493  16.233  24.343  0.00  0.00    +0.000 A 
ATOM     20  C   UNL     1      -2.678  16.695  24.925  0.00  0.00    +0.000 A 
ATOM     21  C   UNL     1      -3.825  15.875  24.988  0.00  0.00    +0.000 A 
ATOM     22  C   UNL     1      -3.805  14.576  24.472  0.00  0.00    +0.000 A 
ATOM     23  C   UNL     1      -2.626  14.152  23.892  0.00  0.00    +0.000 A 
ATOM     24  C   UNL     1      -2.307  12.890  23.236  0.00  0.00    +0.000 C 
ATOM     25  O   UNL     1      -3.118  11.995  23.107  0.00  0.00    +0.000 OA
ENDBRANCH  14  15
ENDBRANCH   9  14
ENDBRANCH   1  11
BRANCH   5  26
ATOM     26  C   UNL     1      -4.279  12.267  19.305  0.00  0.00    +0.000 C 
ATOM     27  O   UNL     1      -5.424  11.906  19.582  0.00  0.00    +0.000 OA
ATOM     28  N   UNL     1      -3.745  13.438  19.800  0.00  0.00    +0.000 N 
ATOM     29  H   UNL     1      -2.894  13.792  19.390  0.00  0.00    +0.000 HD
BRANCH  28  30
ATOM     30  C   UNL     1      -4.541  14.313  20.632  0.00  0.00    +0.000 C 
BRANCH  30  31
ATOM     31  C   UNL     1      -3.883  15.637  20.877  0.00  0.00    +0.000 A 
ATOM     32  C   UNL     1      -4.584  16.707  21.442  0.00  0.00    +0.000 A 
ATOM     33  C   UNL     1      -3.941  17.921  21.657  0.00  0.00    +0.000 A 
ATOM     34  C   UNL     1      -2.610  18.029  21.293  0.00  0.00    +0.000 A 
ATOM     35  N   UNL     1      -1.896  17.023  20.741  0.00  0.00    +0.000 NA
ATOM     36  C   UNL     1      -2.551  15.858  20.538  0.00  0.00    +0.000 A 
ENDBRANCH  30  31
ENDBRANCH  28  30
ENDBRANCH   5  26
TORSDOF 6
ENDMDL
