MODEL 1
REMARK VINA RESULT:      -8.9      0.000      0.000
REMARK  Name = 
REMARK  6 active torsions:
REMARK  status: ('A' for Active; 'I' for Inactive)
REMARK    1  A    between atoms: S_2  and  N_4
REMARK    2  A    between atoms: S_2  and  C_20
REMARK    3  A    between atoms: N_4  and  C_5
REMARK    4  A    between atoms: C_5  and  C_6
REMARK    5  A    between atoms: C_9  and  O_10
REMARK    6  A    between atoms: O_10  and  C_11
REMARK                            x       y       z     vdW  Elec       q    Type
REMARK                         _______ _______ _______ _____ _____    ______ ____
ROOT
ATOM      1  C   UNL     1       2.951   5.761  19.832  0.00  0.00    +0.000 C 
ENDROOT
BRANCH   1   2
ATOM      2  C   UNL     1       2.401   7.102  19.422  0.00  0.00    +0.000 A 
ATOM      3  C   UNL     1       2.462   7.622  18.125  0.00  0.00    +0.000 A 
ATOM      4  C   UNL     1       1.864   8.851  17.840  0.00  0.00    +0.000 A 
ATOM      5  C   UNL     1       1.214   9.520  18.863  0.00  0.00    +0.000 A 
ATOM      6  N   UNL     1       1.089   9.022  20.112  0.00  0.00    +0.000 NA
ATOM      7  C   UNL     1       1.695   7.844  20.366  0.00  0.00    +0.000 A 
BRANCH   5   8
ATOM      8  O   UNL     1       0.653  10.753  18.552  0.00  0.00    +0.000 OA
BRANCH   8   9
ATOM      9  C   UNL     1      -0.709  10.799  18.345  0.00  0.00    +0.000 A 
ATOM     10  C   UNL     1      -1.384   9.918  17.492  0.00  0.00    +0.000 A 
ATOM     11  C   UNL     1      -2.762  10.034  17.314  0.00  0.00    +0.000 A 
ATOM     12  C   UNL     1      -3.461  10.998  18.027  0.00  0.00    +0.000 A 
ATOM     13  F   UNL     1      -4.785  11.113  17.853  0.00  0.00    +0.000 F 
ATOM     14  C   UNL     1      -2.811  11.843  18.922  0.00  0.00    +0.000 A 
ATOM     15  C   UNL     1      -1.428  11.741  19.086  0.00  0.00    +0.000 A 
ENDBRANCH   8   9
ENDBRANCH   5   8
ENDBRANCH   1   2
BRANCH   1  16
ATOM     16  N   UNL     1       3.524   4.964  18.745  0.00  0.00    +0.000 NA
ATOM     17  H   UNL     1       2.959   4.213  18.350  0.00  0.00    +0.000 HD
BRANCH  16  19
ATOM     18  O   UNL     1       5.805   5.508  19.682  0.00  0.00    +0.000 OA
ATOM     19  S   UNL     1       5.127   4.472  18.938  0.00  0.00    +0.000 S 
ATOM     20  O   UNL     1       5.099   3.104  19.404  0.00  0.00    +0.000 OA
BRANCH  19  21
ATOM     21  C   UNL     1       5.743   4.524  17.298  0.00  0.00    +0.000 A 
ATOM     22  C   UNL     1       4.891   4.164  16.257  0.00  0.00    +0.000 A 
ATOM     23  F   UNL     1       3.647   3.731  16.507  0.00  0.00    +0.000 F 
ATOM     24  C   UNL     1       5.327   4.196  14.937  0.00  0.00    +0.000 A 
ATOM     25  C   UNL     1       6.631   4.586  14.670  0.00  0.00    +0.000 A 
ATOM     26  F   UNL     1       7.065   4.608  13.403  0.00  0.00    +0.000 F 
ATOM     27  C   UNL     1       7.497   4.939  15.696  0.00  0.00    +0.000 A 
ATOM     28  C   UNL     1       7.045   4.911  17.014  0.00  0.00    +0.000 A 
ATOM     29  F   UNL     1       7.912   5.238  17.979  0.00  0.00    +0.000 F 
ENDBRANCH  19  21
ENDBRANCH  16  19
ENDBRANCH   1  16
TORSDOF 6
ENDMDL
MODEL 2
REMARK VINA RESULT:      -8.7      0.727      1.042
REMARK  Name = 
REMARK  6 active torsions:
REMARK  status: ('A' for Active; 'I' for Inactive)
REMARK    1  A    between atoms: S_2  and  N_4
REMARK    2  A    between atoms: S_2  and  C_20
REMARK    3  A    between atoms: N_4  and  C_5
REMARK    4  A    between atoms: C_5  and  C_6
REMARK    5  A    between atoms: C_9  and  O_10
REMARK    6  A    between atoms: O_10  and  C_11
REMARK                            x       y       z     vdW  Elec       q    Type
REMARK                         _______ _______ _______ _____ _____    ______ ____
ROOT
ATOM      1  C   UNL     1       3.107   6.066  19.528  0.00  0.00    +0.000 C 
ENDROOT
BRANCH   1   2
ATOM      2  C   UNL     1       2.318   7.337  19.351  0.00  0.00    +0.000 A 
ATOM      3  C   UNL     1       1.643   8.002  20.379  0.00  0.00    +0.000 A 
ATOM      4  C   UNL     1       0.993   9.209  20.118  0.00  0.00    +0.000 A 
ATOM      5  C   UNL     1       1.045   9.719  18.831  0.00  0.00    +0.000 A 
ATOM      6  N   UNL     1       1.733   9.132  17.829  0.00  0.00    +0.000 NA
ATOM      7  C   UNL     1       2.333   7.956  18.104  0.00  0.00    +0.000 A 
BRANCH   5   8
ATOM      8  O   UNL     1       0.363  10.908  18.599  0.00  0.00    +0.000 OA
BRANCH   8   9
ATOM      9  C   UNL     1      -0.977  10.823  18.287  0.00  0.00    +0.000 A 
ATOM     10  C   UNL     1      -1.498   9.872  17.402  0.00  0.00    +0.000 A 
ATOM     11  C   UNL     1      -2.863   9.855  17.116  0.00  0.00    +0.000 A 
ATOM     12  C   UNL     1      -3.702  10.758  17.754  0.00  0.00    +0.000 A 
ATOM     13  F   UNL     1      -5.013  10.745  17.477  0.00  0.00    +0.000 F 
ATOM     14  C   UNL     1      -3.206  11.671  18.679  0.00  0.00    +0.000 A 
ATOM     15  C   UNL     1      -1.837  11.703  18.951  0.00  0.00    +0.000 A 
ENDBRANCH   8   9
ENDBRANCH   5   8
ENDBRANCH   1   2
BRANCH   1  16
ATOM     16  N   UNL     1       4.499   6.129  19.075  0.00  0.00    +0.000 NA
ATOM     17  H   UNL     1       4.714   6.701  18.260  0.00  0.00    +0.000 HD
BRANCH  16  19
ATOM     18  O   UNL     1       6.560   4.843  19.767  0.00  0.00    +0.000 OA
ATOM     19  S   UNL     1       5.337   4.664  19.019  0.00  0.00    +0.000 S 
ATOM     20  O   UNL     1       4.393   3.621  19.352  0.00  0.00    +0.000 OA
BRANCH  19  21
ATOM     21  C   UNL     1       5.778   4.541  17.327  0.00  0.00    +0.000 A 
ATOM     22  C   UNL     1       4.768   4.335  16.391  0.00  0.00    +0.000 A 
ATOM     23  F   UNL     1       3.495   4.175  16.778  0.00  0.00    +0.000 F 
ATOM     24  C   UNL     1       5.063   4.239  15.035  0.00  0.00    +0.000 A 
ATOM     25  C   UNL     1       6.384   4.343  14.626  0.00  0.00    +0.000 A 
ATOM     26  F   UNL     1       6.681   4.239  13.324  0.00  0.00    +0.000 F 
ATOM     27  C   UNL     1       7.405   4.539  15.547  0.00  0.00    +0.000 A 
ATOM     28  C   UNL     1       7.095   4.643  16.901  0.00  0.00    +0.000 A 
ATOM     29  F   UNL     1       8.105   4.811  17.762  0.00  0.00    +0.000 F 
ENDBRANCH  19  21
ENDBRANCH  16  19
ENDBRANCH   1  16
TORSDOF 6
ENDMDL
MODEL 3
REMARK VINA RESULT:      -8.7      0.546      1.652
REMARK  Name = 
REMARK  6 active torsions:
REMARK  status: ('A' for Active; 'I' for Inactive)
REMARK    1  A    between atoms: S_2  and  N_4
REMARK    2  A    between atoms: S_2  and  C_20
REMARK    3  A    between atoms: N_4  and  C_5
REMARK    4  A    between atoms: C_5  and  C_6
REMARK    5  A    between atoms: C_9  and  O_10
REMARK    6  A    between atoms: O_10  and  C_11
REMARK                            x       y       z     vdW  Elec       q    Type
REMARK                         _______ _______ _______ _____ _____    ______ ____
ROOT
ATOM      1  C   UNL     1       3.091   6.125  19.375  0.00  0.00    +0.000 C 
ENDROOT
BRANCH   1   2
ATOM      2  C   UNL     1       2.391   7.437  19.138  0.00  0.00    +0.000 A 
ATOM      3  C   UNL     1       2.374   8.119  17.917  0.00  0.00    +0.000 A 
ATOM      4  C   UNL     1       1.641   9.300  17.789  0.00  0.00    +0.000 A 
ATOM      5  C   UNL     1       0.937   9.760  18.890  0.00  0.00    +0.000 A 
ATOM      6  N   UNL     1       0.887   9.099  20.067  0.00  0.00    +0.000 NA
ATOM      7  C   UNL     1       1.622   7.973  20.169  0.00  0.00    +0.000 A 
BRANCH   5   8
ATOM      8  O   UNL     1       0.240  10.953  18.737  0.00  0.00    +0.000 OA
BRANCH   8   9
ATOM      9  C   UNL     1      -1.087  10.873  18.373  0.00  0.00    +0.000 A 
ATOM     10  C   UNL     1      -1.573   9.932  17.457  0.00  0.00    +0.000 A 
ATOM     11  C   UNL     1      -2.926   9.920  17.118  0.00  0.00    +0.000 A 
ATOM     12  C   UNL     1      -3.789  10.816  17.734  0.00  0.00    +0.000 A 
ATOM     13  F   UNL     1      -5.088  10.808  17.406  0.00  0.00    +0.000 F 
ATOM     14  C   UNL     1      -3.329  11.718  18.689  0.00  0.00    +0.000 A 
ATOM     15  C   UNL     1      -1.971  11.745  19.014  0.00  0.00    +0.000 A 
ENDBRANCH   8   9
ENDBRANCH   5   8
ENDBRANCH   1   2
BRANCH   1  16
ATOM     16  N   UNL     1       4.546   6.157  19.213  0.00  0.00    +0.000 NA
ATOM     17  H   UNL     1       4.941   6.822  18.550  0.00  0.00    +0.000 HD
BRANCH  16  19
ATOM     18  O   UNL     1       6.552   4.761  19.850  0.00  0.00    +0.000 OA
ATOM     19  S   UNL     1       5.322   4.662  19.099  0.00  0.00    +0.000 S 
ATOM     20  O   UNL     1       4.336   3.648  19.397  0.00  0.00    +0.000 OA
BRANCH  19  21
ATOM     21  C   UNL     1       5.755   4.583  17.403  0.00  0.00    +0.000 A 
ATOM     22  C   UNL     1       7.080   4.818  17.045  0.00  0.00    +0.000 A 
ATOM     23  F   UNL     1       7.992   5.155  17.968  0.00  0.00    +0.000 F 
ATOM     24  C   UNL     1       7.478   4.760  15.714  0.00  0.00    +0.000 A 
ATOM     25  C   UNL     1       6.532   4.470  14.741  0.00  0.00    +0.000 A 
ATOM     26  F   UNL     1       6.902   4.424  13.455  0.00  0.00    +0.000 F 
ATOM     27  C   UNL     1       5.204   4.243  15.080  0.00  0.00    +0.000 A 
ATOM     28  C   UNL     1       4.820   4.296  16.418  0.00  0.00    +0.000 A 
ATOM     29  F   UNL     1       3.530   4.091  16.706  0.00  0.00    +0.000 F 
ENDBRANCH  19  21
ENDBRANCH  16  19
ENDBRANCH   1  16
TORSDOF 6
ENDMDL
MODEL 4
REMARK VINA RESULT:      -8.7      2.938      4.145
REMARK  Name = 
REMARK  6 active torsions:
REMARK  status: ('A' for Active; 'I' for Inactive)
REMARK    1  A    between atoms: S_2  and  N_4
REMARK    2  A    between atoms: S_2  and  C_20
REMARK    3  A    between atoms: N_4  and  C_5
REMARK    4  A    between atoms: C_5  and  C_6
REMARK    5  A    between atoms: C_9  and  O_10
REMARK    6  A    between atoms: O_10  and  C_11
REMARK                            x       y       z     vdW  Elec       q    Type
REMARK                         _______ _______ _______ _____ _____    ______ ____
ROOT
ATOM      1  C   UNL     1       3.338   6.391  18.876  0.00  0.00    +0.000 C 
ENDROOT
BRANCH   1   2
ATOM      2  C   UNL     1       2.480   7.629  18.862  0.00  0.00    +0.000 A 
ATOM      3  C   UNL     1       1.716   8.078  19.944  0.00  0.00    +0.000 A 
ATOM      4  C   UNL     1       1.004   9.274  19.844  0.00  0.00    +0.000 A 
ATOM      5  C   UNL     1       1.085   9.992  18.662  0.00  0.00    +0.000 A 
ATOM      6  N   UNL     1       1.855   9.616  17.618  0.00  0.00    +0.000 NA
ATOM      7  C   UNL     1       2.515   8.445  17.734  0.00  0.00    +0.000 A 
BRANCH   5   8
ATOM      8  O   UNL     1       0.342  11.164  18.586  0.00  0.00    +0.000 OA
BRANCH   8   9
ATOM      9  C   UNL     1      -1.015  11.045  18.372  0.00  0.00    +0.000 A 
ATOM     10  C   UNL     1      -1.960  11.890  18.965  0.00  0.00    +0.000 A 
ATOM     11  C   UNL     1      -3.320  11.700  18.720  0.00  0.00    +0.000 A 
ATOM     12  C   UNL     1      -3.720  10.698  17.848  0.00  0.00    +0.000 A 
ATOM     13  F   UNL     1      -5.027  10.512  17.616  0.00  0.00    +0.000 F 
ATOM     14  C   UNL     1      -2.788   9.887  17.207  0.00  0.00    +0.000 A 
ATOM     15  C   UNL     1      -1.428  10.063  17.467  0.00  0.00    +0.000 A 
ENDBRANCH   8   9
ENDBRANCH   5   8
ENDBRANCH   1   2
BRANCH   1  16
ATOM     16  N   UNL     1       3.408   5.667  17.604  0.00  0.00    +0.000 NA
ATOM     17  H   UNL     1       2.677   5.835  16.914  0.00  0.00    +0.000 HD
BRANCH  16  19
ATOM     18  O   UNL     1       3.162   3.381  16.560  0.00  0.00    +0.000 OA
ATOM     19  S   UNL     1       3.782   4.023  17.696  0.00  0.00    +0.000 S 
ATOM     20  O   UNL     1       5.204   3.924  17.936  0.00  0.00    +0.000 OA
BRANCH  19  21
ATOM     21  C   UNL     1       2.905   3.511  19.124  0.00  0.00    +0.000 A 
ATOM     22  C   UNL     1       1.523   3.677  19.149  0.00  0.00    +0.000 A 
ATOM     23  F   UNL     1       0.884   4.269  18.131  0.00  0.00    +0.000 F 
ATOM     24  C   UNL     1       0.779   3.279  20.255  0.00  0.00    +0.000 A 
ATOM     25  C   UNL     1       1.436   2.718  21.340  0.00  0.00    +0.000 A 
ATOM     26  F   UNL     1       0.730   2.342  22.415  0.00  0.00    +0.000 F 
ATOM     27  C   UNL     1       2.815   2.553  21.336  0.00  0.00    +0.000 A 
ATOM     28  C   UNL     1       3.548   2.948  20.218  0.00  0.00    +0.000 A 
ATOM     29  F   UNL     1       4.876   2.793  20.256  0.00  0.00    +0.000 F 
ENDBRANCH  19  21
ENDBRANCH  16  19
ENDBRANCH   1  16
TORSDOF 6
ENDMDL
MODEL 5
REMARK VINA RESULT:      -8.6      0.575      1.829
REMARK  Name = 
REMARK  6 active torsions:
REMARK  status: ('A' for Active; 'I' for Inactive)
REMARK    1  A    between atoms: S_2  and  N_4
REMARK    2  A    between atoms: S_2  and  C_20
REMARK    3  A    between atoms: N_4  and  C_5
REMARK    4  A    between atoms: C_5  and  C_6
REMARK    5  A    between atoms: C_9  and  O_10
REMARK    6  A    between atoms: O_10  and  C_11
REMARK                            x       y       z     vdW  Elec       q    Type
REMARK                         _______ _______ _______ _____ _____    ______ ____
ROOT
ATOM      1  C   UNL     1       2.845   5.425  20.012  0.00  0.00    +0.000 C 
ENDROOT
BRANCH   1   2
ATOM      2  C   UNL     1       2.274   6.785  19.705  0.00  0.00    +0.000 A 
ATOM      3  C   UNL     1       1.596   7.588  20.628  0.00  0.00    +0.000 A 
ATOM      4  C   UNL     1       1.162   8.861  20.255  0.00  0.00    +0.000 A 
ATOM      5  C   UNL     1       1.427   9.297  18.967  0.00  0.00    +0.000 A 
ATOM      6  N   UNL     1       2.126   8.570  18.069  0.00  0.00    +0.000 NA
ATOM      7  C   UNL     1       2.515   7.335  18.449  0.00  0.00    +0.000 A 
BRANCH   5   8
ATOM      8  O   UNL     1       0.957  10.558  18.620  0.00  0.00    +0.000 OA
BRANCH   8   9
ATOM      9  C   UNL     1      -0.403  10.703  18.445  0.00  0.00    +0.000 A 
ATOM     10  C   UNL     1      -1.157   9.887  17.594  0.00  0.00    +0.000 A 
ATOM     11  C   UNL     1      -2.527  10.103  17.449  0.00  0.00    +0.000 A 
ATOM     12  C   UNL     1      -3.140  11.102  18.193  0.00  0.00    +0.000 A 
ATOM     13  F   UNL     1      -4.456  11.313  18.051  0.00  0.00    +0.000 F 
ATOM     14  C   UNL     1      -2.413  11.883  19.086  0.00  0.00    +0.000 A 
ATOM     15  C   UNL     1      -1.038  11.681  19.217  0.00  0.00    +0.000 A 
ENDBRANCH   8   9
ENDBRANCH   5   8
ENDBRANCH   1   2
BRANCH   1  16
ATOM     16  N   UNL     1       3.457   4.736  18.874  0.00  0.00    +0.000 NA
ATOM     17  H   UNL     1       2.946   3.966  18.445  0.00  0.00    +0.000 HD
BRANCH  16  19
ATOM     18  O   UNL     1       5.724   5.450  19.731  0.00  0.00    +0.000 OA
ATOM     19  S   UNL     1       5.097   4.361  19.017  0.00  0.00    +0.000 S 
ATOM     20  O   UNL     1       5.182   2.999  19.494  0.00  0.00    +0.000 OA
BRANCH  19  21
ATOM     21  C   UNL     1       5.654   4.441  17.358  0.00  0.00    +0.000 A 
ATOM     22  C   UNL     1       6.970   4.828  17.117  0.00  0.00    +0.000 A 
ATOM     23  F   UNL     1       7.775   5.191  18.125  0.00  0.00    +0.000 F 
ATOM     24  C   UNL     1       7.464   4.899  15.819  0.00  0.00    +0.000 A 
ATOM     25  C   UNL     1       6.623   4.584  14.761  0.00  0.00    +0.000 A 
ATOM     26  F   UNL     1       7.086   4.661  13.506  0.00  0.00    +0.000 F 
ATOM     27  C   UNL     1       5.306   4.204  14.983  0.00  0.00    +0.000 A 
ATOM     28  C   UNL     1       4.826   4.129  16.288  0.00  0.00    +0.000 A 
ATOM     29  F   UNL     1       3.547   3.779  16.464  0.00  0.00    +0.000 F 
ENDBRANCH  19  21
ENDBRANCH  16  19
ENDBRANCH   1  16
TORSDOF 6
ENDMDL
MODEL 6
REMARK VINA RESULT:      -8.5      1.629      2.086
REMARK  Name = 
REMARK  6 active torsions:
REMARK  status: ('A' for Active; 'I' for Inactive)
REMARK    1  A    between atoms: S_2  and  N_4
REMARK    2  A    between atoms: S_2  and  C_20
REMARK    3  A    between atoms: N_4  and  C_5
REMARK    4  A    between atoms: C_5  and  C_6
REMARK    5  A    between atoms: C_9  and  O_10
REMARK    6  A    between atoms: O_10  and  C_11
REMARK                            x       y       z     vdW  Elec       q    Type
REMARK                         _______ _______ _______ _____ _____    ______ ____
ROOT
ATOM      1  C   UNL     1       3.156   6.083  19.551  0.00  0.00    +0.000 C 
ENDROOT
BRANCH   1   2
ATOM      2  C   UNL     1       2.476   7.395  19.259  0.00  0.00    +0.000 A 
ATOM      3  C   UNL     1       2.495   8.041  18.019  0.00  0.00    +0.000 A 
ATOM      4  C   UNL     1       1.778   9.225  17.840  0.00  0.00    +0.000 A 
ATOM      5  C   UNL     1       1.055   9.725  18.911  0.00  0.00    +0.000 A 
ATOM      6  N   UNL     1       0.971   9.099  20.104  0.00  0.00    +0.000 NA
ATOM      7  C   UNL     1       1.690   7.969  20.256  0.00  0.00    +0.000 A 
BRANCH   5   8
ATOM      8  O   UNL     1       0.375  10.920  18.707  0.00  0.00    +0.000 OA
BRANCH   8   9
ATOM      9  C   UNL     1      -0.957  10.844  18.361  0.00  0.00    +0.000 A 
ATOM     10  C   UNL     1      -1.459   9.904  17.453  0.00  0.00    +0.000 A 
ATOM     11  C   UNL     1      -2.817   9.895  17.133  0.00  0.00    +0.000 A 
ATOM     12  C   UNL     1      -3.668  10.794  17.760  0.00  0.00    +0.000 A 
ATOM     13  F   UNL     1      -4.972  10.790  17.450  0.00  0.00    +0.000 F 
ATOM     14  C   UNL     1      -3.192  11.696  18.707  0.00  0.00    +0.000 A 
ATOM     15  C   UNL     1      -1.830  11.719  19.013  0.00  0.00    +0.000 A 
ENDBRANCH   8   9
ENDBRANCH   5   8
ENDBRANCH   1   2
BRANCH   1  16
ATOM     16  N   UNL     1       3.237   5.159  18.417  0.00  0.00    +0.000 NA
ATOM     17  H   UNL     1       2.436   4.559  18.227  0.00  0.00    +0.000 HD
BRANCH  16  19
ATOM     18  O   UNL     1       4.948   3.660  19.516  0.00  0.00    +0.000 OA
ATOM     19  S   UNL     1       4.682   4.302  18.249  0.00  0.00    +0.000 S 
ATOM     20  O   UNL     1       4.585   3.542  17.024  0.00  0.00    +0.000 OA
BRANCH  19  21
ATOM     21  C   UNL     1       5.865   5.581  18.057  0.00  0.00    +0.000 A 
ATOM     22  C   UNL     1       5.692   6.495  17.021  0.00  0.00    +0.000 A 
ATOM     23  F   UNL     1       4.679   6.366  16.153  0.00  0.00    +0.000 F 
ATOM     24  C   UNL     1       6.596   7.534  16.830  0.00  0.00    +0.000 A 
ATOM     25  C   UNL     1       7.683   7.644  17.686  0.00  0.00    +0.000 A 
ATOM     26  F   UNL     1       8.567   8.633  17.504  0.00  0.00    +0.000 F 
ATOM     27  C   UNL     1       7.876   6.736  18.719  0.00  0.00    +0.000 A 
ATOM     28  C   UNL     1       6.957   5.705  18.904  0.00  0.00    +0.000 A 
ATOM     29  F   UNL     1       7.185   4.837  19.896  0.00  0.00    +0.000 F 
ENDBRANCH  19  21
ENDBRANCH  16  19
ENDBRANCH   1  16
TORSDOF 6
ENDMDL
MODEL 7
REMARK VINA RESULT:      -8.3      2.777      4.052
REMARK  Name = 
REMARK  6 active torsions:
REMARK  status: ('A' for Active; 'I' for Inactive)
REMARK    1  A    between atoms: S_2  and  N_4
REMARK    2  A    between atoms: S_2  and  C_20
REMARK    3  A    between atoms: N_4  and  C_5
REMARK    4  A    between atoms: C_5  and  C_6
REMARK    5  A    between atoms: C_9  and  O_10
REMARK    6  A    between atoms: O_10  and  C_11
REMARK                            x       y       z     vdW  Elec       q    Type
REMARK                         _______ _______ _______ _____ _____    ______ ____
ROOT
ATOM      1  C   UNL     1       3.781   6.600  18.113  0.00  0.00    +0.000 C 
ENDROOT
BRANCH   1   2
ATOM      2  C   UNL     1       2.712   7.560  18.568  0.00  0.00    +0.000 A 
ATOM      3  C   UNL     1       2.085   7.517  19.817  0.00  0.00    +0.000 A 
ATOM      4  C   UNL     1       1.151   8.496  20.160  0.00  0.00    +0.000 A 
ATOM      5  C   UNL     1       0.877   9.496  19.242  0.00  0.00    +0.000 A 
ATOM      6  N   UNL     1       1.503   9.598  18.050  0.00  0.00    +0.000 NA
ATOM      7  C   UNL     1       2.385   8.628  17.735  0.00  0.00    +0.000 A 
BRANCH   5   8
ATOM      8  O   UNL     1      -0.079  10.438  19.604  0.00  0.00    +0.000 OA
BRANCH   8   9
ATOM      9  C   UNL     1      -1.162  10.601  18.766  0.00  0.00    +0.000 A 
ATOM     10  C   UNL     1      -1.371   9.817  17.626  0.00  0.00    +0.000 A 
ATOM     11  C   UNL     1      -2.479  10.050  16.810  0.00  0.00    +0.000 A 
ATOM     12  C   UNL     1      -3.392  11.031  17.169  0.00  0.00    +0.000 A 
ATOM     13  F   UNL     1      -4.455  11.258  16.384  0.00  0.00    +0.000 F 
ATOM     14  C   UNL     1      -3.227  11.778  18.331  0.00  0.00    +0.000 A 
ATOM     15  C   UNL     1      -2.108  11.560  19.137  0.00  0.00    +0.000 A 
ENDBRANCH   8   9
ENDBRANCH   5   8
ENDBRANCH   1   2
BRANCH   1  16
ATOM     16  N   UNL     1       3.302   5.466  17.321  0.00  0.00    +0.000 NA
ATOM     17  H   UNL     1       2.304   5.403  17.125  0.00  0.00    +0.000 HD
BRANCH  16  19
ATOM     18  O   UNL     1       3.561   3.041  16.661  0.00  0.00    +0.000 OA
ATOM     19  S   UNL     1       3.933   3.951  17.719  0.00  0.00    +0.000 S 
ATOM     20  O   UNL     1       5.316   4.152  18.090  0.00  0.00    +0.000 OA
BRANCH  19  21
ATOM     21  C   UNL     1       3.001   3.509  19.136  0.00  0.00    +0.000 A 
ATOM     22  C   UNL     1       1.637   3.789  19.146  0.00  0.00    +0.000 A 
ATOM     23  F   UNL     1       1.060   4.434  18.123  0.00  0.00    +0.000 F 
ATOM     24  C   UNL     1       0.849   3.451  20.241  0.00  0.00    +0.000 A 
ATOM     25  C   UNL     1       1.445   2.835  21.333  0.00  0.00    +0.000 A 
ATOM     26  F   UNL     1       0.699   2.517  22.398  0.00  0.00    +0.000 F 
ATOM     27  C   UNL     1       2.806   2.558  21.343  0.00  0.00    +0.000 A 
ATOM     28  C   UNL     1       3.582   2.894  20.236  0.00  0.00    +0.000 A 
ATOM     29  F   UNL     1       4.892   2.630  20.288  0.00  0.00    +0.000 F 
ENDBRANCH  19  21
ENDBRANCH  16  19
ENDBRANCH   1  16
TORSDOF 6
ENDMDL
MODEL 8
REMARK VINA RESULT:      -8.3      1.608      2.631
REMARK  Name = 
REMARK  6 active torsions:
REMARK  status: ('A' for Active; 'I' for Inactive)
REMARK    1  A    between atoms: S_2  and  N_4
REMARK    2  A    between atoms: S_2  and  C_20
REMARK    3  A    between atoms: N_4  and  C_5
REMARK    4  A    between atoms: C_5  and  C_6
REMARK    5  A    between atoms: C_9  and  O_10
REMARK    6  A    between atoms: O_10  and  C_11
REMARK                            x       y       z     vdW  Elec       q    Type
REMARK                         _______ _______ _______ _____ _____    ______ ____
ROOT
ATOM      1  C   UNL     1       3.060   5.690  19.763  0.00  0.00    +0.000 C 
ENDROOT
BRANCH   1   2
ATOM      2  C   UNL     1       2.391   7.010  19.482  0.00  0.00    +0.000 A 
ATOM      3  C   UNL     1       1.686   7.761  20.428  0.00  0.00    +0.000 A 
ATOM      4  C   UNL     1       1.158   9.004  20.077  0.00  0.00    +0.000 A 
ATOM      5  C   UNL     1       1.358   9.464  18.785  0.00  0.00    +0.000 A 
ATOM      6  N   UNL     1       2.079   8.790  17.863  0.00  0.00    +0.000 NA
ATOM      7  C   UNL     1       2.560   7.582  18.223  0.00  0.00    +0.000 A 
BRANCH   5   8
ATOM      8  O   UNL     1       0.795  10.692  18.461  0.00  0.00    +0.000 OA
BRANCH   8   9
ATOM      9  C   UNL     1      -0.579  10.755  18.358  0.00  0.00    +0.000 A 
ATOM     10  C   UNL     1      -1.356  11.683  19.060  0.00  0.00    +0.000 A 
ATOM     11  C   UNL     1      -2.745  11.678  18.924  0.00  0.00    +0.000 A 
ATOM     12  C   UNL     1      -3.338  10.778  18.052  0.00  0.00    +0.000 A 
ATOM     13  F   UNL     1      -4.673  10.770  17.924  0.00  0.00    +0.000 F 
ATOM     14  C   UNL     1      -2.573   9.888  17.304  0.00  0.00    +0.000 A 
ATOM     15  C   UNL     1      -1.185   9.879  17.454  0.00  0.00    +0.000 A 
ENDBRANCH   8   9
ENDBRANCH   5   8
ENDBRANCH   1   2
BRANCH   1  16
ATOM     16  N   UNL     1       3.116   4.766  18.628  0.00  0.00    +0.000 NA
ATOM     17  H   UNL     1       2.327   4.139  18.479  0.00  0.00    +0.000 HD
BRANCH  16  19
ATOM     18  O   UNL     1       4.972   3.399  19.660  0.00  0.00    +0.000 OA
ATOM     19  S   UNL     1       4.579   3.959  18.388  0.00  0.00    +0.000 S 
ATOM     20  O   UNL     1       4.419   3.130  17.215  0.00  0.00    +0.000 OA
BRANCH  19  21
ATOM     21  C   UNL     1       5.686   5.272  18.035  0.00  0.00    +0.000 A 
ATOM     22  C   UNL     1       6.746   5.498  18.909  0.00  0.00    +0.000 A 
ATOM     23  F   UNL     1       6.884   4.769  20.025  0.00  0.00    +0.000 F 
ATOM     24  C   UNL     1       7.658   6.521  18.671  0.00  0.00    +0.000 A 
ATOM     25  C   UNL     1       7.493   7.321  17.550  0.00  0.00    +0.000 A 
ATOM     26  F   UNL     1       8.358   8.317  17.318  0.00  0.00    +0.000 F 
ATOM     27  C   UNL     1       6.435   7.115  16.673  0.00  0.00    +0.000 A 
ATOM     28  C   UNL     1       5.534   6.082  16.919  0.00  0.00    +0.000 A 
ATOM     29  F   UNL     1       4.517   5.924  16.065  0.00  0.00    +0.000 F 
ENDBRANCH  19  21
ENDBRANCH  16  19
ENDBRANCH   1  16
TORSDOF 6
ENDMDL
MODEL 9
REMARK VINA RESULT:      -8.3      2.718      4.317
REMARK  Name = 
REMARK  6 active torsions:
REMARK  status: ('A' for Active; 'I' for Inactive)
REMARK    1  A    between atoms: S_2  and  N_4
REMARK    2  A    between atoms: S_2  and  C_20
REMARK    3  A    between atoms: N_4  and  C_5
REMARK    4  A    between atoms: C_5  and  C_6
REMARK    5  A    between atoms: C_9  and  O_10
REMARK    6  A    between atoms: O_10  and  C_11
REMARK                            x       y       z     vdW  Elec       q    Type
REMARK                         _______ _______ _______ _____ _____    ______ ____
ROOT
ATOM      1  C   UNL     1       3.927   6.507  17.954  0.00  0.00    +0.000 C 
ENDROOT
BRANCH   1   2
ATOM      2  C   UNL     1       2.876   7.408  18.549  0.00  0.00    +0.000 A 
ATOM      3  C   UNL     1       2.297   7.228  19.809  0.00  0.00    +0.000 A 
ATOM      4  C   UNL     1       1.376   8.160  20.291  0.00  0.00    +0.000 A 
ATOM      5  C   UNL     1       1.067   9.252  19.496  0.00  0.00    +0.000 A 
ATOM      6  N   UNL     1       1.647   9.484  18.299  0.00  0.00    +0.000 NA
ATOM      7  C   UNL     1       2.517   8.557  17.849  0.00  0.00    +0.000 A 
BRANCH   5   8
ATOM      8  O   UNL     1       0.125  10.145  19.994  0.00  0.00    +0.000 OA
BRANCH   8   9
ATOM      9  C   UNL     1      -0.915  10.502  19.162  0.00  0.00    +0.000 A 
ATOM     10  C   UNL     1      -1.556   9.599  18.307  0.00  0.00    +0.000 A 
ATOM     11  C   UNL     1      -2.589  10.033  17.477  0.00  0.00    +0.000 A 
ATOM     12  C   UNL     1      -3.004  11.355  17.544  0.00  0.00    +0.000 A 
ATOM     13  F   UNL     1      -3.994  11.775  16.743  0.00  0.00    +0.000 F 
ATOM     14  C   UNL     1      -2.414  12.251  18.430  0.00  0.00    +0.000 A 
ATOM     15  C   UNL     1      -1.366  11.822  19.247  0.00  0.00    +0.000 A 
ENDBRANCH   8   9
ENDBRANCH   5   8
ENDBRANCH   1   2
BRANCH   1  16
ATOM     16  N   UNL     1       3.427   5.242  17.412  0.00  0.00    +0.000 NA
ATOM     17  H   UNL     1       2.420   5.129  17.302  0.00  0.00    +0.000 HD
BRANCH  16  19
ATOM     18  O   UNL     1       3.980   2.808  17.021  0.00  0.00    +0.000 OA
ATOM     19  S   UNL     1       4.125   3.833  18.029  0.00  0.00    +0.000 S 
ATOM     20  O   UNL     1       5.422   4.197  18.555  0.00  0.00    +0.000 OA
BRANCH  19  21
ATOM     21  C   UNL     1       3.049   3.419  19.349  0.00  0.00    +0.000 A 
ATOM     22  C   UNL     1       3.570   2.725  20.437  0.00  0.00    +0.000 A 
ATOM     23  F   UNL     1       4.851   2.330  20.451  0.00  0.00    +0.000 F 
ATOM     24  C   UNL     1       2.761   2.380  21.515  0.00  0.00    +0.000 A 
ATOM     25  C   UNL     1       1.419   2.732  21.487  0.00  0.00    +0.000 A 
ATOM     26  F   UNL     1       0.628   2.393  22.513  0.00  0.00    +0.000 F 
ATOM     27  C   UNL     1       0.880   3.415  20.405  0.00  0.00    +0.000 A 
ATOM     28  C   UNL     1       1.704   3.763  19.336  0.00  0.00    +0.000 A 
ATOM     29  F   UNL     1       1.148   4.403  18.302  0.00  0.00    +0.000 F 
ENDBRANCH  19  21
ENDBRANCH  16  19
ENDBRANCH   1  16
TORSDOF 6
ENDMDL
