MODEL 1
REMARK VINA RESULT:      -8.5      0.000      0.000
REMARK  Name = 
REMARK  4 active torsions:
REMARK  status: ('A' for Active; 'I' for Inactive)
REMARK    1  A    between atoms: C_1  and  C_2
REMARK    2  A    between atoms: C_9  and  C_10
REMARK    3  A    between atoms: N_12  and  C_13
REMARK    4  A    between atoms: C_18  and  C_19
REMARK                            x       y       z     vdW  Elec       q    Type
REMARK                         _______ _______ _______ _____ _____    ______ ____
ROOT
ATOM      1  C   UNL     1       6.417   5.685  17.442  0.00  0.00    +0.000 C 
ATOM      2  C   UNL     1       7.413   5.209  18.508  0.00  0.00    +0.000 C 
ATOM      3  C   UNL     1       8.377   6.207  19.130  0.00  0.00    +0.000 C 
ATOM      4  C   UNL     1       8.299   7.589  18.614  0.00  0.00    +0.000 A 
ATOM      5  N   UNL     1       9.047   8.602  19.004  0.00  0.00    +0.000 NA
ATOM      6  C   UNL     1       8.582   9.699  18.316  0.00  0.00    +0.000 A 
ATOM      7  C   UNL     1       7.570   9.328  17.460  0.00  0.00    +0.000 A 
ATOM      8  N   UNL     1       7.406   7.989  17.668  0.00  0.00    +0.000 N 
ATOM      9  C   UNL     1       6.440   7.157  17.006  0.00  0.00    +0.000 C 
ENDROOT
BRANCH   6  10
ATOM     10  C   UNL     1       9.126  11.034  18.473  0.00  0.00    +0.000 A 
ATOM     11  C   UNL     1      10.213  11.238  19.337  0.00  0.00    +0.000 A 
ATOM     12  C   UNL     1      10.765  12.513  19.490  0.00  0.00    +0.000 A 
ATOM     13  C   UNL     1      10.224  13.583  18.789  0.00  0.00    +0.000 A 
ATOM     14  F   UNL     1      10.756  14.805  18.934  0.00  0.00    +0.000 F 
ATOM     15  C   UNL     1       9.140  13.411  17.941  0.00  0.00    +0.000 A 
ATOM     16  C   UNL     1       8.597  12.138  17.790  0.00  0.00    +0.000 A 
ATOM     17  F   UNL     1       7.538  12.007  16.974  0.00  0.00    +0.000 F 
ENDBRANCH   6  10
BRANCH   1  20
ATOM     18  C   UNL     1       4.498   4.126  17.345  0.00  0.00    +0.000 C 
ATOM     19  O   UNL     1       5.145   3.374  16.621  0.00  0.00    +0.000 OA
ATOM     20  N   UNL     1       5.061   5.287  17.830  0.00  0.00    +0.000 N 
ATOM     21  H   UNL     1       4.458   5.977  18.257  0.00  0.00    +0.000 HD
BRANCH  18  30
ATOM     22  C   UNL     1       4.239   2.102  20.224  0.00  0.00    +0.000 C 
ATOM     23  C   UNL     1       3.500   3.443  20.218  0.00  0.00    +0.000 C 
ATOM     24  C   UNL     1       2.634   3.600  21.483  0.00  0.00    +0.000 C 
ATOM     25  C   UNL     1       1.361   2.760  21.385  0.00  0.00    +0.000 C 
ATOM     26  C   UNL     1       0.508   3.232  20.211  0.00  0.00    +0.000 C 
ATOM     27  C   UNL     1       1.322   3.461  18.981  0.00  0.00    +0.000 A 
ATOM     28  N   UNL     1       0.860   3.626  17.762  0.00  0.00    +0.000 NA
ATOM     29  C   UNL     1       1.959   3.892  16.989  0.00  0.00    +0.000 A 
ATOM     30  C   UNL     1       3.128   3.886  17.731  0.00  0.00    +0.000 A 
ATOM     31  N   UNL     1       2.691   3.594  19.009  0.00  0.00    +0.000 N 
ENDBRANCH  18  30
ENDBRANCH   1  20
TORSDOF 3
ENDMDL
MODEL 2
REMARK VINA RESULT:      -8.5      7.792     10.127
REMARK  Name = 
REMARK  4 active torsions:
REMARK  status: ('A' for Active; 'I' for Inactive)
REMARK    1  A    between atoms: C_1  and  C_2
REMARK    2  A    between atoms: C_9  and  C_10
REMARK    3  A    between atoms: N_12  and  C_13
REMARK    4  A    between atoms: C_18  and  C_19
REMARK                            x       y       z     vdW  Elec       q    Type
REMARK                         _______ _______ _______ _____ _____    ______ ____
ROOT
ATOM      1  C   UNL     1       0.885  10.271  19.942  0.00  0.00    +0.000 C 
ATOM      2  C   UNL     1       1.389  10.485  18.509  0.00  0.00    +0.000 C 
ATOM      3  C   UNL     1       2.019   9.322  17.756  0.00  0.00    +0.000 C 
ATOM      4  C   UNL     1       2.129   8.052  18.503  0.00  0.00    +0.000 A 
ATOM      5  N   UNL     1       2.650   6.930  18.046  0.00  0.00    +0.000 NA
ATOM      6  C   UNL     1       2.477   6.001  19.046  0.00  0.00    +0.000 A 
ATOM      7  C   UNL     1       1.887   6.589  20.141  0.00  0.00    +0.000 A 
ATOM      8  N   UNL     1       1.673   7.886  19.774  0.00  0.00    +0.000 N 
ATOM      9  C   UNL     1       1.056   8.891  20.594  0.00  0.00    +0.000 C 
ENDROOT
BRANCH   6  10
ATOM     10  C   UNL     1       2.896   4.618  18.936  0.00  0.00    +0.000 A 
ATOM     11  C   UNL     1       1.972   3.649  18.514  0.00  0.00    +0.000 A 
ATOM     12  C   UNL     1       2.358   2.313  18.383  0.00  0.00    +0.000 A 
ATOM     13  C   UNL     1       3.663   1.943  18.685  0.00  0.00    +0.000 A 
ATOM     14  F   UNL     1       4.034   0.662  18.556  0.00  0.00    +0.000 F 
ATOM     15  C   UNL     1       4.592   2.879  19.119  0.00  0.00    +0.000 A 
ATOM     16  C   UNL     1       4.201   4.209  19.243  0.00  0.00    +0.000 A 
ATOM     17  F   UNL     1       5.119   5.088  19.681  0.00  0.00    +0.000 F 
ENDBRANCH   6  10
BRANCH   1  20
ATOM     18  C   UNL     1      -0.822  12.052  20.130  0.00  0.00    +0.000 C 
ATOM     19  O   UNL     1       0.061  12.904  20.076  0.00  0.00    +0.000 OA
ATOM     20  N   UNL     1      -0.510  10.713  20.038  0.00  0.00    +0.000 N 
ATOM     21  H   UNL     1      -1.217  10.032  20.277  0.00  0.00    +0.000 HD
BRANCH  18  30
ATOM     22  C   UNL     1      -1.951  11.385  23.406  0.00  0.00    +0.000 C 
ATOM     23  C   UNL     1      -2.212  12.779  22.824  0.00  0.00    +0.000 C 
ATOM     24  C   UNL     1      -3.077  13.622  23.780  0.00  0.00    +0.000 C 
ATOM     25  C   UNL     1      -4.542  13.190  23.721  0.00  0.00    +0.000 C 
ATOM     26  C   UNL     1      -5.100  13.412  22.317  0.00  0.00    +0.000 C 
ATOM     27  C   UNL     1      -4.161  12.938  21.258  0.00  0.00    +0.000 A 
ATOM     28  N   UNL     1      -4.446  12.763  19.988  0.00  0.00    +0.000 NA
ATOM     29  C   UNL     1      -3.263  12.412  19.394  0.00  0.00    +0.000 A 
ATOM     30  C   UNL     1      -2.222  12.358  20.305  0.00  0.00    +0.000 A 
ATOM     31  N   UNL     1      -2.830  12.690  21.501  0.00  0.00    +0.000 N 
ENDBRANCH  18  30
ENDBRANCH   1  20
TORSDOF 3
ENDMDL
MODEL 3
REMARK VINA RESULT:      -8.4      8.206     10.296
REMARK  Name = 
REMARK  4 active torsions:
REMARK  status: ('A' for Active; 'I' for Inactive)
REMARK    1  A    between atoms: C_1  and  C_2
REMARK    2  A    between atoms: C_9  and  C_10
REMARK    3  A    between atoms: N_12  and  C_13
REMARK    4  A    between atoms: C_18  and  C_19
REMARK                            x       y       z     vdW  Elec       q    Type
REMARK                         _______ _______ _______ _____ _____    ______ ____
ROOT
ATOM      1  C   UNL     1       0.410  10.715  19.904  0.00  0.00    +0.000 C 
ATOM      2  C   UNL     1       0.914  10.797  18.457  0.00  0.00    +0.000 C 
ATOM      3  C   UNL     1       1.680   9.624  17.864  0.00  0.00    +0.000 C 
ATOM      4  C   UNL     1       1.916   8.482  18.770  0.00  0.00    +0.000 A 
ATOM      5  N   UNL     1       2.565   7.376  18.465  0.00  0.00    +0.000 NA
ATOM      6  C   UNL     1       2.478   6.570  19.577  0.00  0.00    +0.000 A 
ATOM      7  C   UNL     1       1.807   7.225  20.585  0.00  0.00    +0.000 A 
ATOM      8  N   UNL     1       1.459   8.432  20.051  0.00  0.00    +0.000 N 
ATOM      9  C   UNL     1       0.720   9.459  20.731  0.00  0.00    +0.000 C 
ENDROOT
BRANCH   6  10
ATOM     10  C   UNL     1       3.049   5.239  19.650  0.00  0.00    +0.000 A 
ATOM     11  C   UNL     1       4.378   5.036  19.245  0.00  0.00    +0.000 A 
ATOM     12  C   UNL     1       4.955   3.766  19.325  0.00  0.00    +0.000 A 
ATOM     13  C   UNL     1       4.201   2.699  19.796  0.00  0.00    +0.000 A 
ATOM     14  F   UNL     1       4.756   1.481  19.875  0.00  0.00    +0.000 F 
ATOM     15  C   UNL     1       2.881   2.870  20.188  0.00  0.00    +0.000 A 
ATOM     16  C   UNL     1       2.314   4.138  20.110  0.00  0.00    +0.000 A 
ATOM     17  F   UNL     1       1.029   4.269  20.481  0.00  0.00    +0.000 F 
ENDBRANCH   6  10
BRANCH   1  20
ATOM     18  C   UNL     1      -1.481  12.292  20.151  0.00  0.00    +0.000 C 
ATOM     19  O   UNL     1      -0.690  13.224  20.262  0.00  0.00    +0.000 OA
ATOM     20  N   UNL     1      -1.026  11.008  19.937  0.00  0.00    +0.000 N 
ATOM     21  H   UNL     1      -1.674  10.240  20.042  0.00  0.00    +0.000 HD
BRANCH  18  30
ATOM     22  C   UNL     1      -2.664  11.881  23.450  0.00  0.00    +0.000 C 
ATOM     23  C   UNL     1      -3.064  13.153  22.694  0.00  0.00    +0.000 C 
ATOM     24  C   UNL     1      -4.065  13.989  23.515  0.00  0.00    +0.000 C 
ATOM     25  C   UNL     1      -5.464  13.375  23.467  0.00  0.00    +0.000 C 
ATOM     26  C   UNL     1      -5.982  13.358  22.031  0.00  0.00    +0.000 C 
ATOM     27  C   UNL     1      -4.948  12.883  21.065  0.00  0.00    +0.000 A 
ATOM     28  N   UNL     1      -5.154  12.525  19.818  0.00  0.00    +0.000 NA
ATOM     29  C   UNL     1      -3.913  12.256  19.306  0.00  0.00    +0.000 A 
ATOM     30  C   UNL     1      -2.914  12.440  20.247  0.00  0.00    +0.000 A 
ATOM     31  N   UNL     1      -3.608  12.833  21.375  0.00  0.00    +0.000 N 
ENDBRANCH  18  30
ENDBRANCH   1  20
TORSDOF 3
ENDMDL
MODEL 4
REMARK VINA RESULT:      -8.4      8.164     10.456
REMARK  Name = 
REMARK  4 active torsions:
REMARK  status: ('A' for Active; 'I' for Inactive)
REMARK    1  A    between atoms: C_1  and  C_2
REMARK    2  A    between atoms: C_9  and  C_10
REMARK    3  A    between atoms: N_12  and  C_13
REMARK    4  A    between atoms: C_18  and  C_19
REMARK                            x       y       z     vdW  Elec       q    Type
REMARK                         _______ _______ _______ _____ _____    ______ ____
ROOT
ATOM      1  C   UNL     1       0.761  10.624  20.790  0.00  0.00    +0.000 C 
ATOM      2  C   UNL     1       0.845  11.019  19.309  0.00  0.00    +0.000 C 
ATOM      3  C   UNL     1       1.317   9.996  18.287  0.00  0.00    +0.000 C 
ATOM      4  C   UNL     1       1.703   8.676  18.825  0.00  0.00    +0.000 A 
ATOM      5  N   UNL     1       2.148   7.655  18.120  0.00  0.00    +0.000 NA
ATOM      6  C   UNL     1       2.309   6.621  19.014  0.00  0.00    +0.000 A 
ATOM      7  C   UNL     1       2.002   7.045  20.287  0.00  0.00    +0.000 A 
ATOM      8  N   UNL     1       1.618   8.347  20.143  0.00  0.00    +0.000 N 
ATOM      9  C   UNL     1       1.186   9.209  21.208  0.00  0.00    +0.000 C 
ENDROOT
BRANCH   6  10
ATOM     10  C   UNL     1       2.767   5.298  18.638  0.00  0.00    +0.000 A 
ATOM     11  C   UNL     1       1.927   4.470  17.876  0.00  0.00    +0.000 A 
ATOM     12  C   UNL     1       2.354   3.198  17.485  0.00  0.00    +0.000 A 
ATOM     13  C   UNL     1       3.613   2.751  17.865  0.00  0.00    +0.000 A 
ATOM     14  F   UNL     1       4.024   1.532  17.488  0.00  0.00    +0.000 F 
ATOM     15  C   UNL     1       4.456   3.544  18.631  0.00  0.00    +0.000 A 
ATOM     16  C   UNL     1       4.026   4.811  19.013  0.00  0.00    +0.000 A 
ATOM     17  F   UNL     1       4.858   5.549  19.768  0.00  0.00    +0.000 F 
ENDBRANCH   6  10
BRANCH   1  20
ATOM     18  C   UNL     1      -0.815  12.070  22.034  0.00  0.00    +0.000 C 
ATOM     19  O   UNL     1       0.084  12.883  22.228  0.00  0.00    +0.000 OA
ATOM     20  N   UNL     1      -0.580  10.927  21.299  0.00  0.00    +0.000 N 
ATOM     21  H   UNL     1      -1.269  10.189  21.316  0.00  0.00    +0.000 HD
BRANCH  18  30
ATOM     22  C   UNL     1      -2.541  14.781  20.578  0.00  0.00    +0.000 C 
ATOM     23  C   UNL     1      -3.213  13.405  20.556  0.00  0.00    +0.000 C 
ATOM     24  C   UNL     1      -4.644  13.499  19.991  0.00  0.00    +0.000 C 
ATOM     25  C   UNL     1      -5.605  14.087  21.024  0.00  0.00    +0.000 C 
ATOM     26  C   UNL     1      -5.678  13.181  22.250  0.00  0.00    +0.000 C 
ATOM     27  C   UNL     1      -4.329  12.724  22.693  0.00  0.00    +0.000 A 
ATOM     28  N   UNL     1      -4.039  12.150  23.840  0.00  0.00    +0.000 NA
ATOM     29  C   UNL     1      -2.709  11.831  23.761  0.00  0.00    +0.000 A 
ATOM     30  C   UNL     1      -2.155  12.216  22.552  0.00  0.00    +0.000 A 
ATOM     31  N   UNL     1      -3.216  12.799  21.887  0.00  0.00    +0.000 N 
ENDBRANCH  18  30
ENDBRANCH   1  20
TORSDOF 3
ENDMDL
MODEL 5
REMARK VINA RESULT:      -8.4      7.549     10.014
REMARK  Name = 
REMARK  4 active torsions:
REMARK  status: ('A' for Active; 'I' for Inactive)
REMARK    1  A    between atoms: C_1  and  C_2
REMARK    2  A    between atoms: C_9  and  C_10
REMARK    3  A    between atoms: N_12  and  C_13
REMARK    4  A    between atoms: C_18  and  C_19
REMARK                            x       y       z     vdW  Elec       q    Type
REMARK                         _______ _______ _______ _____ _____    ______ ____
ROOT
ATOM      1  C   UNL     1       0.973  10.286  19.897  0.00  0.00    +0.000 C 
ATOM      2  C   UNL     1       1.618  10.537  18.528  0.00  0.00    +0.000 C 
ATOM      3  C   UNL     1       2.276   9.382  17.788  0.00  0.00    +0.000 C 
ATOM      4  C   UNL     1       2.273   8.081  18.487  0.00  0.00    +0.000 A 
ATOM      5  N   UNL     1       2.797   6.959  18.034  0.00  0.00    +0.000 NA
ATOM      6  C   UNL     1       2.499   5.998  18.973  0.00  0.00    +0.000 A 
ATOM      7  C   UNL     1       1.829   6.564  20.033  0.00  0.00    +0.000 A 
ATOM      8  N   UNL     1       1.694   7.882  19.702  0.00  0.00    +0.000 N 
ATOM      9  C   UNL     1       1.036   8.876  20.504  0.00  0.00    +0.000 C 
ENDROOT
BRANCH   6  10
ATOM     10  C   UNL     1       2.881   4.606  18.844  0.00  0.00    +0.000 A 
ATOM     11  C   UNL     1       3.965   4.117  19.588  0.00  0.00    +0.000 A 
ATOM     12  C   UNL     1       4.339   2.773  19.495  0.00  0.00    +0.000 A 
ATOM     13  C   UNL     1       3.637   1.923  18.650  0.00  0.00    +0.000 A 
ATOM     14  F   UNL     1       3.993   0.634  18.562  0.00  0.00    +0.000 F 
ATOM     15  C   UNL     1       2.570   2.386  17.891  0.00  0.00    +0.000 A 
ATOM     16  C   UNL     1       2.201   3.724  17.993  0.00  0.00    +0.000 A 
ATOM     17  F   UNL     1       1.175   4.145  17.234  0.00  0.00    +0.000 F 
ENDBRANCH   6  10
BRANCH   1  20
ATOM     18  C   UNL     1      -0.688  12.111  20.084  0.00  0.00    +0.000 C 
ATOM     19  O   UNL     1       0.222  12.924  20.224  0.00  0.00    +0.000 OA
ATOM     20  N   UNL     1      -0.408  10.776  19.883  0.00  0.00    +0.000 N 
ATOM     21  H   UNL     1      -1.159  10.106  19.964  0.00  0.00    +0.000 HD
BRANCH  18  30
ATOM     22  C   UNL     1      -2.301  11.649  16.980  0.00  0.00    +0.000 C 
ATOM     23  C   UNL     1      -2.915  10.984  18.217  0.00  0.00    +0.000 C 
ATOM     24  C   UNL     1      -4.260  10.316  17.873  0.00  0.00    +0.000 C 
ATOM     25  C   UNL     1      -5.370  11.358  17.732  0.00  0.00    +0.000 C 
ATOM     26  C   UNL     1      -5.573  12.093  19.054  0.00  0.00    +0.000 C 
ATOM     27  C   UNL     1      -4.278  12.494  19.679  0.00  0.00    +0.000 A 
ATOM     28  N   UNL     1      -4.123  13.341  20.672  0.00  0.00    +0.000 NA
ATOM     29  C   UNL     1      -2.784  13.321  20.960  0.00  0.00    +0.000 A 
ATOM     30  C   UNL     1      -2.088  12.457  20.132  0.00  0.00    +0.000 A 
ATOM     31  N   UNL     1      -3.072  11.945  19.308  0.00  0.00    +0.000 N 
ENDBRANCH  18  30
ENDBRANCH   1  20
TORSDOF 3
ENDMDL
MODEL 6
REMARK VINA RESULT:      -8.3      8.049     10.175
REMARK  Name = 
REMARK  4 active torsions:
REMARK  status: ('A' for Active; 'I' for Inactive)
REMARK    1  A    between atoms: C_1  and  C_2
REMARK    2  A    between atoms: C_9  and  C_10
REMARK    3  A    between atoms: N_12  and  C_13
REMARK    4  A    between atoms: C_18  and  C_19
REMARK                            x       y       z     vdW  Elec       q    Type
REMARK                         _______ _______ _______ _____ _____    ______ ____
ROOT
ATOM      1  C   UNL     1       0.410  10.712  19.888  0.00  0.00    +0.000 C 
ATOM      2  C   UNL     1       0.895  10.777  18.434  0.00  0.00    +0.000 C 
ATOM      3  C   UNL     1       1.667   9.604  17.849  0.00  0.00    +0.000 C 
ATOM      4  C   UNL     1       1.926   8.478  18.769  0.00  0.00    +0.000 A 
ATOM      5  N   UNL     1       2.583   7.374  18.472  0.00  0.00    +0.000 NA
ATOM      6  C   UNL     1       2.518   6.584  19.597  0.00  0.00    +0.000 A 
ATOM      7  C   UNL     1       1.852   7.246  20.603  0.00  0.00    +0.000 A 
ATOM      8  N   UNL     1       1.484   8.441  20.056  0.00  0.00    +0.000 N 
ATOM      9  C   UNL     1       0.743   9.471  20.730  0.00  0.00    +0.000 C 
ENDROOT
BRANCH   6  10
ATOM     10  C   UNL     1       3.103   5.260  19.682  0.00  0.00    +0.000 A 
ATOM     11  C   UNL     1       2.366   4.217  20.266  0.00  0.00    +0.000 A 
ATOM     12  C   UNL     1       2.903   2.929  20.342  0.00  0.00    +0.000 A 
ATOM     13  C   UNL     1       4.178   2.687  19.847  0.00  0.00    +0.000 A 
ATOM     14  F   UNL     1       4.691   1.451  19.917  0.00  0.00    +0.000 F 
ATOM     15  C   UNL     1       4.932   3.704  19.279  0.00  0.00    +0.000 A 
ATOM     16  C   UNL     1       4.391   4.983  19.203  0.00  0.00    +0.000 A 
ATOM     17  F   UNL     1       5.152   5.950  18.663  0.00  0.00    +0.000 F 
ENDBRANCH   6  10
BRANCH   1  20
ATOM     18  C   UNL     1      -1.495  12.275  20.114  0.00  0.00    +0.000 C 
ATOM     19  O   UNL     1      -0.712  13.219  20.184  0.00  0.00    +0.000 OA
ATOM     20  N   UNL     1      -1.028  10.990  19.934  0.00  0.00    +0.000 N 
ATOM     21  H   UNL     1      -1.666  10.219  20.074  0.00  0.00    +0.000 HD
BRANCH  18  30
ATOM     22  C   UNL     1      -2.633  11.862  23.429  0.00  0.00    +0.000 C 
ATOM     23  C   UNL     1      -3.053  13.128  22.675  0.00  0.00    +0.000 C 
ATOM     24  C   UNL     1      -4.051  13.958  23.507  0.00  0.00    +0.000 C 
ATOM     25  C   UNL     1      -5.445  13.331  23.478  0.00  0.00    +0.000 C 
ATOM     26  C   UNL     1      -5.981  13.307  22.048  0.00  0.00    +0.000 C 
ATOM     27  C   UNL     1      -4.955  12.838  21.071  0.00  0.00    +0.000 A 
ATOM     28  N   UNL     1      -5.174  12.476  19.827  0.00  0.00    +0.000 NA
ATOM     29  C   UNL     1      -3.937  12.216  19.300  0.00  0.00    +0.000 A 
ATOM     30  C   UNL     1      -2.927  12.411  20.228  0.00  0.00    +0.000 A 
ATOM     31  N   UNL     1      -3.611  12.800  21.364  0.00  0.00    +0.000 N 
ENDBRANCH  18  30
ENDBRANCH   1  20
TORSDOF 3
ENDMDL
MODEL 7
REMARK VINA RESULT:      -8.3      6.733     10.061
REMARK  Name = 
REMARK  4 active torsions:
REMARK  status: ('A' for Active; 'I' for Inactive)
REMARK    1  A    between atoms: C_1  and  C_2
REMARK    2  A    between atoms: C_9  and  C_10
REMARK    3  A    between atoms: N_12  and  C_13
REMARK    4  A    between atoms: C_18  and  C_19
REMARK                            x       y       z     vdW  Elec       q    Type
REMARK                         _______ _______ _______ _____ _____    ______ ____
ROOT
ATOM      1  C   UNL     1       0.385  10.331  20.189  0.00  0.00    +0.000 C 
ATOM      2  C   UNL     1       0.427   9.337  21.357  0.00  0.00    +0.000 C 
ATOM      3  C   UNL     1       1.198   8.034  21.203  0.00  0.00    +0.000 C 
ATOM      4  C   UNL     1       1.832   7.809  19.889  0.00  0.00    +0.000 A 
ATOM      5  N   UNL     1       2.533   6.749  19.540  0.00  0.00    +0.000 NA
ATOM      6  C   UNL     1       2.987   6.999  18.266  0.00  0.00    +0.000 A 
ATOM      7  C   UNL     1       2.508   8.210  17.823  0.00  0.00    +0.000 A 
ATOM      8  N   UNL     1       1.782   8.707  18.867  0.00  0.00    +0.000 N 
ATOM      9  C   UNL     1       1.100   9.971  18.878  0.00  0.00    +0.000 C 
ENDROOT
BRANCH   6  10
ATOM     10  C   UNL     1       3.823   6.081  17.517  0.00  0.00    +0.000 A 
ATOM     11  C   UNL     1       4.945   6.575  16.832  0.00  0.00    +0.000 A 
ATOM     12  C   UNL     1       5.777   5.706  16.120  0.00  0.00    +0.000 A 
ATOM     13  C   UNL     1       5.481   4.349  16.083  0.00  0.00    +0.000 A 
ATOM     14  F   UNL     1       6.280   3.517  15.402  0.00  0.00    +0.000 F 
ATOM     15  C   UNL     1       4.369   3.839  16.739  0.00  0.00    +0.000 A 
ATOM     16  C   UNL     1       3.548   4.709  17.450  0.00  0.00    +0.000 A 
ATOM     17  F   UNL     1       2.471   4.187  18.061  0.00  0.00    +0.000 F 
ENDBRANCH   6  10
BRANCH   1  20
ATOM     18  C   UNL     1       0.134  12.791  20.279  0.00  0.00    +0.000 C 
ATOM     19  O   UNL     1      -0.876  12.713  19.584  0.00  0.00    +0.000 OA
ATOM     20  N   UNL     1       0.812  11.652  20.658  0.00  0.00    +0.000 N 
ATOM     21  H   UNL     1       1.734  11.748  21.059  0.00  0.00    +0.000 HD
BRANCH  18  30
ATOM     22  C   UNL     1       3.106  13.632  18.574  0.00  0.00    +0.000 C 
ATOM     23  C   UNL     1       1.985  14.674  18.624  0.00  0.00    +0.000 C 
ATOM     24  C   UNL     1       2.444  16.007  18.000  0.00  0.00    +0.000 C 
ATOM     25  C   UNL     1       3.362  16.772  18.953  0.00  0.00    +0.000 C 
ATOM     26  C   UNL     1       2.613  17.124  20.236  0.00  0.00    +0.000 C 
ATOM     27  C   UNL     1       1.822  15.972  20.760  0.00  0.00    +0.000 A 
ATOM     28  N   UNL     1       1.280  15.879  21.954  0.00  0.00    +0.000 NA
ATOM     29  C   UNL     1       0.586  14.699  21.947  0.00  0.00    +0.000 A 
ATOM     30  C   UNL     1       0.699  14.038  20.736  0.00  0.00    +0.000 A 
ATOM     31  N   UNL     1       1.510  14.874  19.993  0.00  0.00    +0.000 N 
ENDBRANCH  18  30
ENDBRANCH   1  20
TORSDOF 3
ENDMDL
MODEL 8
REMARK VINA RESULT:      -8.3      7.480      9.998
REMARK  Name = 
REMARK  4 active torsions:
REMARK  status: ('A' for Active; 'I' for Inactive)
REMARK    1  A    between atoms: C_1  and  C_2
REMARK    2  A    between atoms: C_9  and  C_10
REMARK    3  A    between atoms: N_12  and  C_13
REMARK    4  A    between atoms: C_18  and  C_19
REMARK                            x       y       z     vdW  Elec       q    Type
REMARK                         _______ _______ _______ _____ _____    ______ ____
ROOT
ATOM      1  C   UNL     1       0.919  10.300  19.924  0.00  0.00    +0.000 C 
ATOM      2  C   UNL     1       1.534  10.529  18.537  0.00  0.00    +0.000 C 
ATOM      3  C   UNL     1       2.195   9.367  17.811  0.00  0.00    +0.000 C 
ATOM      4  C   UNL     1       2.224   8.082  18.539  0.00  0.00    +0.000 A 
ATOM      5  N   UNL     1       2.755   6.958  18.101  0.00  0.00    +0.000 NA
ATOM      6  C   UNL     1       2.489   6.014  19.067  0.00  0.00    +0.000 A 
ATOM      7  C   UNL     1       1.830   6.595  20.126  0.00  0.00    +0.000 A 
ATOM      8  N   UNL     1       1.670   7.903  19.769  0.00  0.00    +0.000 N 
ATOM      9  C   UNL     1       1.013   8.906  20.561  0.00  0.00    +0.000 C 
ENDROOT
BRANCH   6  10
ATOM     10  C   UNL     1       2.888   4.624  18.962  0.00  0.00    +0.000 A 
ATOM     11  C   UNL     1       1.949   3.669  18.542  0.00  0.00    +0.000 A 
ATOM     12  C   UNL     1       2.316   2.326  18.415  0.00  0.00    +0.000 A 
ATOM     13  C   UNL     1       3.615   1.938  18.719  0.00  0.00    +0.000 A 
ATOM     14  F   UNL     1       3.967   0.651  18.595  0.00  0.00    +0.000 F 
ATOM     15  C   UNL     1       4.557   2.861  19.151  0.00  0.00    +0.000 A 
ATOM     16  C   UNL     1       4.186   4.197  19.271  0.00  0.00    +0.000 A 
ATOM     17  F   UNL     1       5.116   5.064  19.707  0.00  0.00    +0.000 F 
ENDBRANCH   6  10
BRANCH   1  20
ATOM     18  C   UNL     1      -0.761  12.117  19.970  0.00  0.00    +0.000 C 
ATOM     19  O   UNL     1       0.141  12.951  19.956  0.00  0.00    +0.000 OA
ATOM     20  N   UNL     1      -0.470  10.770  19.924  0.00  0.00    +0.000 N 
ATOM     21  H   UNL     1      -1.204  10.108  20.131  0.00  0.00    +0.000 HD
BRANCH  18  30
ATOM     22  C   UNL     1      -2.448  11.626  16.911  0.00  0.00    +0.000 C 
ATOM     23  C   UNL     1      -3.025  10.963  18.166  0.00  0.00    +0.000 C 
ATOM     24  C   UNL     1      -4.373  10.282  17.859  0.00  0.00    +0.000 C 
ATOM     25  C   UNL     1      -5.495  11.315  17.741  0.00  0.00    +0.000 C 
ATOM     26  C   UNL     1      -5.670  12.055  19.065  0.00  0.00    +0.000 C 
ATOM     27  C   UNL     1      -4.363  12.470  19.654  0.00  0.00    +0.000 A 
ATOM     28  N   UNL     1      -4.190  13.323  20.639  0.00  0.00    +0.000 NA
ATOM     29  C   UNL     1      -2.844  13.315  20.893  0.00  0.00    +0.000 A 
ATOM     30  C   UNL     1      -2.162  12.452  20.052  0.00  0.00    +0.000 A 
ATOM     31  N   UNL     1      -3.163  11.929  19.256  0.00  0.00    +0.000 N 
ENDBRANCH  18  30
ENDBRANCH   1  20
TORSDOF 3
ENDMDL
MODEL 9
REMARK VINA RESULT:      -8.3      0.938      1.204
REMARK  Name = 
REMARK  4 active torsions:
REMARK  status: ('A' for Active; 'I' for Inactive)
REMARK    1  A    between atoms: C_1  and  C_2
REMARK    2  A    between atoms: C_9  and  C_10
REMARK    3  A    between atoms: N_12  and  C_13
REMARK    4  A    between atoms: C_18  and  C_19
REMARK                            x       y       z     vdW  Elec       q    Type
REMARK                         _______ _______ _______ _____ _____    ______ ____
ROOT
ATOM      1  C   UNL     1       6.314   5.770  17.295  0.00  0.00    +0.000 C 
ATOM      2  C   UNL     1       7.349   5.178  18.260  0.00  0.00    +0.000 C 
ATOM      3  C   UNL     1       8.358   6.098  18.932  0.00  0.00    +0.000 C 
ATOM      4  C   UNL     1       8.279   7.525  18.560  0.00  0.00    +0.000 A 
ATOM      5  N   UNL     1       9.060   8.486  19.012  0.00  0.00    +0.000 NA
ATOM      6  C   UNL     1       8.583   9.651  18.459  0.00  0.00    +0.000 A 
ATOM      7  C   UNL     1       7.527   9.379  17.619  0.00  0.00    +0.000 A 
ATOM      8  N   UNL     1       7.350   8.028  17.701  0.00  0.00    +0.000 N 
ATOM      9  C   UNL     1       6.341   7.279  17.006  0.00  0.00    +0.000 C 
ENDROOT
BRANCH   6  10
ATOM     10  C   UNL     1       9.155  10.957  18.722  0.00  0.00    +0.000 A 
ATOM     11  C   UNL     1       9.384  11.837  17.652  0.00  0.00    +0.000 A 
ATOM     12  C   UNL     1       9.916  13.109  17.884  0.00  0.00    +0.000 A 
ATOM     13  C   UNL     1      10.231  13.494  19.181  0.00  0.00    +0.000 A 
ATOM     14  F   UNL     1      10.739  14.714  19.402  0.00  0.00    +0.000 F 
ATOM     15  C   UNL     1      10.029  12.637  20.253  0.00  0.00    +0.000 A 
ATOM     16  C   UNL     1       9.495  11.374  20.016  0.00  0.00    +0.000 A 
ATOM     17  F   UNL     1       9.326  10.562  21.073  0.00  0.00    +0.000 F 
ENDBRANCH   6  10
BRANCH   1  20
ATOM     18  C   UNL     1       4.459   4.133  17.316  0.00  0.00    +0.000 C 
ATOM     19  O   UNL     1       5.143   3.349  16.662  0.00  0.00    +0.000 OA
ATOM     20  N   UNL     1       4.970   5.352  17.706  0.00  0.00    +0.000 N 
ATOM     21  H   UNL     1       4.336   6.050  18.068  0.00  0.00    +0.000 HD
BRANCH  18  30
ATOM     22  C   UNL     1       4.252   2.122  20.208  0.00  0.00    +0.000 C 
ATOM     23  C   UNL     1       3.489   3.451  20.198  0.00  0.00    +0.000 C 
ATOM     24  C   UNL     1       2.627   3.600  21.467  0.00  0.00    +0.000 C 
ATOM     25  C   UNL     1       1.369   2.736  21.381  0.00  0.00    +0.000 C 
ATOM     26  C   UNL     1       0.501   3.186  20.208  0.00  0.00    +0.000 C 
ATOM     27  C   UNL     1       1.304   3.422  18.973  0.00  0.00    +0.000 A 
ATOM     28  N   UNL     1       0.833   3.570  17.755  0.00  0.00    +0.000 NA
ATOM     29  C   UNL     1       1.923   3.851  16.975  0.00  0.00    +0.000 A 
ATOM     30  C   UNL     1       3.096   3.870  17.711  0.00  0.00    +0.000 A 
ATOM     31  N   UNL     1       2.671   3.579  18.993  0.00  0.00    +0.000 N 
ENDBRANCH  18  30
ENDBRANCH   1  20
TORSDOF 3
ENDMDL
