MODEL 1
REMARK VINA RESULT:      -9.1      0.000      0.000
REMARK  Name = 
REMARK  5 active torsions:
REMARK  status: ('A' for Active; 'I' for Inactive)
REMARK    1  A    between atoms: C_1  and  C_2
REMARK    2  A    between atoms: C_5  and  N_6
REMARK    3  A    between atoms: C_7  and  C_9
REMARK    4  A    between atoms: C_19  and  S_20
REMARK    5  A    between atoms: S_20  and  N_23
REMARK                            x       y       z     vdW  Elec       q    Type
REMARK                         _______ _______ _______ _____ _____    ______ ____
ROOT
ATOM      1  C   UNL     1       5.559   6.075  16.589  0.00  0.00    +0.000 C 
ATOM      2  C   UNL     1       4.284   6.312  17.338  0.00  0.00    +0.000 A 
ATOM      3  C   UNL     1       3.758   7.601  17.201  0.00  0.00    +0.000 A 
ATOM      4  C   UNL     1       2.850   8.098  18.122  0.00  0.00    +0.000 A 
ATOM      5  C   UNL     1       2.400   7.332  19.190  0.00  0.00    +0.000 A 
ATOM      6  C   UNL     1       2.826   5.990  19.270  0.00  0.00    +0.000 A 
ATOM      7  C   UNL     1       3.744   5.459  18.318  0.00  0.00    +0.000 A 
ENDROOT
BRANCH   5   8
ATOM      8  N   UNL     1       1.593   7.916  20.206  0.00  0.00    +0.000 N 
ATOM      9  C   UNL     1       0.885   9.108  20.057  0.00  0.00    +0.000 C 
ATOM     10  O   UNL     1       0.723   9.695  18.990  0.00  0.00    +0.000 OA
ATOM     11  H   UNL     1       1.463   7.406  21.069  0.00  0.00    +0.000 HD
BRANCH   9  12
ATOM     12  C   UNL     1       0.227   9.631  21.251  0.00  0.00    +0.000 A 
ATOM     13  C   UNL     1       0.316   8.971  22.467  0.00  0.00    +0.000 A 
ATOM     14  N   UNL     1      -0.401   9.659  23.398  0.00  0.00    +0.000 N 
ATOM     15  C   UNL     1      -1.015  10.737  22.809  0.00  0.00    +0.000 A 
ATOM     16  C   UNL     1      -1.876  11.682  23.377  0.00  0.00    +0.000 A 
ATOM     17  C   UNL     1      -2.406  12.660  22.533  0.00  0.00    +0.000 A 
ATOM     18  C   UNL     1      -2.093  12.682  21.176  0.00  0.00    +0.000 A 
ATOM     19  C   UNL     1      -1.228  11.729  20.624  0.00  0.00    +0.000 A 
ATOM     20  C   UNL     1      -0.655  10.742  21.456  0.00  0.00    +0.000 A 
ATOM     21  H   UNL     1      -0.508   9.391  24.367  0.00  0.00    +0.000 HD
ENDBRANCH   9  12
ENDBRANCH   5   8
BRANCH   7  22
ATOM     22  S   UNL     1       4.353   3.771  18.549  0.00  0.00    +0.000 S 
ATOM     23  O   UNL     1       4.431   3.180  17.223  0.00  0.00    +0.000 OA
ATOM     24  O   UNL     1       5.538   3.875  19.371  0.00  0.00    +0.000 OA
BRANCH  22  25
ATOM     25  N   UNL     1       3.220   2.911  19.438  0.00  0.00    +0.000 NA
ATOM     26  C   UNL     1       1.905   2.459  18.933  0.00  0.00    +0.000 C 
ATOM     27  C   UNL     1       0.778   3.094  19.767  0.00  0.00    +0.000 C 
ATOM     28  O   UNL     1       0.950   2.861  21.176  0.00  0.00    +0.000 OA
ATOM     29  C   UNL     1       2.237   3.303  21.645  0.00  0.00    +0.000 C 
ATOM     30  C   UNL     1       3.372   2.623  20.876  0.00  0.00    +0.000 C 
ENDBRANCH  22  25
ENDBRANCH   7  22
TORSDOF 4
ENDMDL
MODEL 2
REMARK VINA RESULT:      -8.7      1.399      2.092
REMARK  Name = 
REMARK  5 active torsions:
REMARK  status: ('A' for Active; 'I' for Inactive)
REMARK    1  A    between atoms: C_1  and  C_2
REMARK    2  A    between atoms: C_5  and  N_6
REMARK    3  A    between atoms: C_7  and  C_9
REMARK    4  A    between atoms: C_19  and  S_20
REMARK    5  A    between atoms: S_20  and  N_23
REMARK                            x       y       z     vdW  Elec       q    Type
REMARK                         _______ _______ _______ _____ _____    ______ ____
ROOT
ATOM      1  C   UNL     1       6.261   4.512  16.542  0.00  0.00    +0.000 C 
ATOM      2  C   UNL     1       4.977   5.153  16.972  0.00  0.00    +0.000 A 
ATOM      3  C   UNL     1       4.792   6.458  16.505  0.00  0.00    +0.000 A 
ATOM      4  C   UNL     1       3.895   7.313  17.125  0.00  0.00    +0.000 A 
ATOM      5  C   UNL     1       3.123   6.902  18.205  0.00  0.00    +0.000 A 
ATOM      6  C   UNL     1       3.209   5.553  18.606  0.00  0.00    +0.000 A 
ATOM      7  C   UNL     1       4.112   4.657  17.964  0.00  0.00    +0.000 A 
ENDROOT
BRANCH   5   8
ATOM      8  N   UNL     1       2.329   7.840  18.921  0.00  0.00    +0.000 N 
ATOM      9  C   UNL     1       1.851   9.035  18.384  0.00  0.00    +0.000 C 
ATOM     10  O   UNL     1       1.899   9.334  17.194  0.00  0.00    +0.000 OA
ATOM     11  H   UNL     1       2.027   7.600  19.856  0.00  0.00    +0.000 HD
BRANCH   9  12
ATOM     12  C   UNL     1       1.175   9.942  19.307  0.00  0.00    +0.000 A 
ATOM     13  C   UNL     1       1.125  11.307  19.067  0.00  0.00    +0.000 A 
ATOM     14  N   UNL     1       0.459  11.913  20.087  0.00  0.00    +0.000 N 
ATOM     15  C   UNL     1       0.111  10.982  21.034  0.00  0.00    +0.000 A 
ATOM     16  C   UNL     1      -0.541  11.167  22.258  0.00  0.00    +0.000 A 
ATOM     17  C   UNL     1      -0.730  10.043  23.064  0.00  0.00    +0.000 A 
ATOM     18  C   UNL     1      -0.275   8.789  22.664  0.00  0.00    +0.000 A 
ATOM     19  C   UNL     1       0.376   8.621  21.435  0.00  0.00    +0.000 A 
ATOM     20  C   UNL     1       0.559   9.733  20.585  0.00  0.00    +0.000 A 
ATOM     21  H   UNL     1       0.286  12.906  20.163  0.00  0.00    +0.000 HD
ENDBRANCH   9  12
ENDBRANCH   5   8
BRANCH   7  22
ATOM     22  S   UNL     1       4.270   2.974  18.608  0.00  0.00    +0.000 S 
ATOM     23  O   UNL     1       4.249   2.091  17.454  0.00  0.00    +0.000 OA
ATOM     24  O   UNL     1       5.412   2.985  19.496  0.00  0.00    +0.000 OA
BRANCH  22  25
ATOM     25  N   UNL     1       2.925   2.634  19.552  0.00  0.00    +0.000 NA
ATOM     26  C   UNL     1       1.557   2.412  19.037  0.00  0.00    +0.000 C 
ATOM     27  C   UNL     1       0.602   3.470  19.616  0.00  0.00    +0.000 C 
ATOM     28  O   UNL     1       0.660   3.524  21.052  0.00  0.00    +0.000 OA
ATOM     29  C   UNL     1       2.000   3.736  21.532  0.00  0.00    +0.000 C 
ATOM     30  C   UNL     1       2.950   2.648  21.026  0.00  0.00    +0.000 C 
ENDBRANCH  22  25
ENDBRANCH   7  22
TORSDOF 4
ENDMDL
MODEL 3
REMARK VINA RESULT:      -8.7      3.412      8.667
REMARK  Name = 
REMARK  5 active torsions:
REMARK  status: ('A' for Active; 'I' for Inactive)
REMARK    1  A    between atoms: C_1  and  C_2
REMARK    2  A    between atoms: C_5  and  N_6
REMARK    3  A    between atoms: C_7  and  C_9
REMARK    4  A    between atoms: C_19  and  S_20
REMARK    5  A    between atoms: S_20  and  N_23
REMARK                            x       y       z     vdW  Elec       q    Type
REMARK                         _______ _______ _______ _____ _____    ______ ____
ROOT
ATOM      1  C   UNL     1      -0.852  12.269  22.325  0.00  0.00    +0.000 C 
ATOM      2  C   UNL     1      -0.519  10.990  21.622  0.00  0.00    +0.000 A 
ATOM      3  C   UNL     1       0.182  10.063  22.400  0.00  0.00    +0.000 A 
ATOM      4  C   UNL     1       0.907   9.042  21.806  0.00  0.00    +0.000 A 
ATOM      5  C   UNL     1       0.938   8.877  20.427  0.00  0.00    +0.000 A 
ATOM      6  C   UNL     1       0.137   9.728  19.638  0.00  0.00    +0.000 A 
ATOM      7  C   UNL     1      -0.629  10.769  20.237  0.00  0.00    +0.000 A 
ENDROOT
BRANCH   5   8
ATOM      8  N   UNL     1       1.812   7.922  19.836  0.00  0.00    +0.000 N 
ATOM      9  C   UNL     1       2.314   8.015  18.538  0.00  0.00    +0.000 C 
ATOM     10  O   UNL     1       2.216   9.008  17.822  0.00  0.00    +0.000 OA
ATOM     11  H   UNL     1       2.153   7.162  20.410  0.00  0.00    +0.000 HD
BRANCH   9  12
ATOM     12  C   UNL     1       3.081   6.873  18.050  0.00  0.00    +0.000 A 
ATOM     13  C   UNL     1       4.299   7.045  17.410  0.00  0.00    +0.000 A 
ATOM     14  N   UNL     1       4.784   5.827  17.043  0.00  0.00    +0.000 N 
ATOM     15  C   UNL     1       3.882   4.848  17.378  0.00  0.00    +0.000 A 
ATOM     16  C   UNL     1       3.949   3.469  17.150  0.00  0.00    +0.000 A 
ATOM     17  C   UNL     1       2.859   2.695  17.552  0.00  0.00    +0.000 A 
ATOM     18  C   UNL     1       1.746   3.281  18.149  0.00  0.00    +0.000 A 
ATOM     19  C   UNL     1       1.694   4.663  18.370  0.00  0.00    +0.000 A 
ATOM     20  C   UNL     1       2.792   5.470  17.999  0.00  0.00    +0.000 A 
ATOM     21  H   UNL     1       5.654   5.668  16.554  0.00  0.00    +0.000 HD
ENDBRANCH   9  12
ENDBRANCH   5   8
BRANCH   7  22
ATOM     22  S   UNL     1      -1.534  11.908  19.162  0.00  0.00    +0.000 S 
ATOM     23  O   UNL     1      -2.386  12.702  20.032  0.00  0.00    +0.000 OA
ATOM     24  O   UNL     1      -0.543  12.553  18.327  0.00  0.00    +0.000 OA
BRANCH  22  25
ATOM     25  N   UNL     1      -2.520  11.012  18.142  0.00  0.00    +0.000 NA
ATOM     26  C   UNL     1      -2.054  10.236  16.972  0.00  0.00    +0.000 C 
ATOM     27  C   UNL     1      -2.711  10.776  15.690  0.00  0.00    +0.000 C 
ATOM     28  O   UNL     1      -4.144  10.827  15.796  0.00  0.00    +0.000 OA
ATOM     29  C   UNL     1      -4.575  11.583  16.943  0.00  0.00    +0.000 C 
ATOM     30  C   UNL     1      -3.991  11.012  18.237  0.00  0.00    +0.000 C 
ENDBRANCH  22  25
ENDBRANCH   7  22
TORSDOF 4
ENDMDL
MODEL 4
REMARK VINA RESULT:      -8.3      1.286      1.653
REMARK  Name = 
REMARK  5 active torsions:
REMARK  status: ('A' for Active; 'I' for Inactive)
REMARK    1  A    between atoms: C_1  and  C_2
REMARK    2  A    between atoms: C_5  and  N_6
REMARK    3  A    between atoms: C_7  and  C_9
REMARK    4  A    between atoms: C_19  and  S_20
REMARK    5  A    between atoms: S_20  and  N_23
REMARK                            x       y       z     vdW  Elec       q    Type
REMARK                         _______ _______ _______ _____ _____    ______ ____
ROOT
ATOM      1  C   UNL     1       6.383   4.886  16.833  0.00  0.00    +0.000 C 
ATOM      2  C   UNL     1       5.032   5.429  17.184  0.00  0.00    +0.000 A 
ATOM      3  C   UNL     1       4.813   6.751  16.782  0.00  0.00    +0.000 A 
ATOM      4  C   UNL     1       3.819   7.516  17.370  0.00  0.00    +0.000 A 
ATOM      5  C   UNL     1       2.982   6.996  18.350  0.00  0.00    +0.000 A 
ATOM      6  C   UNL     1       3.111   5.629  18.676  0.00  0.00    +0.000 A 
ATOM      7  C   UNL     1       4.116   4.826  18.064  0.00  0.00    +0.000 A 
ENDROOT
BRANCH   5   8
ATOM      8  N   UNL     1       2.076   7.843  19.048  0.00  0.00    +0.000 N 
ATOM      9  C   UNL     1       1.595   9.054  18.553  0.00  0.00    +0.000 C 
ATOM     10  O   UNL     1       1.742   9.444  17.398  0.00  0.00    +0.000 OA
ATOM     11  H   UNL     1       1.698   7.520  19.929  0.00  0.00    +0.000 HD
BRANCH   9  12
ATOM     12  C   UNL     1       0.788   9.859  19.465  0.00  0.00    +0.000 A 
ATOM     13  C   UNL     1       1.074   9.911  20.821  0.00  0.00    +0.000 A 
ATOM     14  N   UNL     1       0.161  10.711  21.437  0.00  0.00    +0.000 N 
ATOM     15  C   UNL     1      -0.765  11.149  20.523  0.00  0.00    +0.000 A 
ATOM     16  C   UNL     1      -1.895  11.949  20.723  0.00  0.00    +0.000 A 
ATOM     17  C   UNL     1      -2.706  12.207  19.616  0.00  0.00    +0.000 A 
ATOM     18  C   UNL     1      -2.402  11.678  18.365  0.00  0.00    +0.000 A 
ATOM     19  C   UNL     1      -1.266  10.878  18.181  0.00  0.00    +0.000 A 
ATOM     20  C   UNL     1      -0.411  10.620  19.275  0.00  0.00    +0.000 A 
ATOM     21  H   UNL     1       0.136  10.915  22.427  0.00  0.00    +0.000 HD
ENDBRANCH   9  12
ENDBRANCH   5   8
BRANCH   7  22
ATOM     22  S   UNL     1       4.315   3.116  18.618  0.00  0.00    +0.000 S 
ATOM     23  O   UNL     1       4.389   2.302  17.415  0.00  0.00    +0.000 OA
ATOM     24  O   UNL     1       5.410   3.119  19.563  0.00  0.00    +0.000 OA
BRANCH  22  25
ATOM     25  N   UNL     1       2.941   2.665  19.469  0.00  0.00    +0.000 NA
ATOM     26  C   UNL     1       1.655   2.262  18.859  0.00  0.00    +0.000 C 
ATOM     27  C   UNL     1       0.541   3.227  19.302  0.00  0.00    +0.000 C 
ATOM     28  O   UNL     1       0.470   3.354  20.732  0.00  0.00    +0.000 OA
ATOM     29  C   UNL     1       1.732   3.742  21.304  0.00  0.00    +0.000 C 
ATOM     30  C   UNL     1       2.838   2.749  20.938  0.00  0.00    +0.000 C 
ENDBRANCH  22  25
ENDBRANCH   7  22
TORSDOF 4
ENDMDL
MODEL 5
REMARK VINA RESULT:      -8.3      2.514      4.425
REMARK  Name = 
REMARK  5 active torsions:
REMARK  status: ('A' for Active; 'I' for Inactive)
REMARK    1  A    between atoms: C_1  and  C_2
REMARK    2  A    between atoms: C_5  and  N_6
REMARK    3  A    between atoms: C_7  and  C_9
REMARK    4  A    between atoms: C_19  and  S_20
REMARK    5  A    between atoms: S_20  and  N_23
REMARK                            x       y       z     vdW  Elec       q    Type
REMARK                         _______ _______ _______ _____ _____    ______ ____
ROOT
ATOM      1  C   UNL     1       2.633   2.843  20.581  0.00  0.00    +0.000 C 
ATOM      2  C   UNL     1       2.722   4.325  20.384  0.00  0.00    +0.000 A 
ATOM      3  C   UNL     1       1.799   5.067  21.128  0.00  0.00    +0.000 A 
ATOM      4  C   UNL     1       1.475   6.364  20.765  0.00  0.00    +0.000 A 
ATOM      5  C   UNL     1       2.074   6.989  19.678  0.00  0.00    +0.000 A 
ATOM      6  C   UNL     1       3.095   6.297  18.995  0.00  0.00    +0.000 A 
ATOM      7  C   UNL     1       3.453   4.969  19.370  0.00  0.00    +0.000 A 
ENDROOT
BRANCH   5   8
ATOM      8  N   UNL     1       1.612   8.258  19.232  0.00  0.00    +0.000 N 
ATOM      9  C   UNL     1       1.111   9.251  20.073  0.00  0.00    +0.000 C 
ATOM     10  O   UNL     1       1.178   9.226  21.299  0.00  0.00    +0.000 OA
ATOM     11  H   UNL     1       1.715   8.491  18.253  0.00  0.00    +0.000 HD
BRANCH   9  12
ATOM     12  C   UNL     1       0.549  10.434  19.427  0.00  0.00    +0.000 A 
ATOM     13  C   UNL     1      -0.304  10.321  18.339  0.00  0.00    +0.000 A 
ATOM     14  N   UNL     1      -0.659  11.567  17.923  0.00  0.00    +0.000 N 
ATOM     15  C   UNL     1      -0.013  12.513  18.680  0.00  0.00    +0.000 A 
ATOM     16  C   UNL     1      -0.049  13.907  18.573  0.00  0.00    +0.000 A 
ATOM     17  C   UNL     1       0.752  14.642  19.449  0.00  0.00    +0.000 A 
ATOM     18  C   UNL     1       1.562  14.005  20.386  0.00  0.00    +0.000 A 
ATOM     19  C   UNL     1       1.586  12.607  20.480  0.00  0.00    +0.000 A 
ATOM     20  C   UNL     1       0.767  11.836  19.626  0.00  0.00    +0.000 A 
ATOM     21  H   UNL     1      -1.269  11.771  17.142  0.00  0.00    +0.000 HD
ENDBRANCH   9  12
ENDBRANCH   5   8
BRANCH   7  22
ATOM     22  S   UNL     1       4.679   4.087  18.375  0.00  0.00    +0.000 S 
ATOM     23  O   UNL     1       5.738   3.690  19.289  0.00  0.00    +0.000 OA
ATOM     24  O   UNL     1       3.951   3.087  17.626  0.00  0.00    +0.000 OA
BRANCH  22  25
ATOM     25  N   UNL     1       5.328   5.155  17.255  0.00  0.00    +0.000 NA
ATOM     26  C   UNL     1       5.382   4.929  15.794  0.00  0.00    +0.000 C 
ATOM     27  C   UNL     1       6.846   4.921  15.321  0.00  0.00    +0.000 C 
ATOM     28  O   UNL     1       7.555   6.102  15.734  0.00  0.00    +0.000 OA
ATOM     29  C   UNL     1       7.485   6.305  17.157  0.00  0.00    +0.000 C 
ATOM     30  C   UNL     1       6.034   6.392  17.635  0.00  0.00    +0.000 C 
ENDBRANCH  22  25
ENDBRANCH   7  22
TORSDOF 4
ENDMDL
MODEL 6
REMARK VINA RESULT:      -8.2      1.446      2.182
REMARK  Name = 
REMARK  5 active torsions:
REMARK  status: ('A' for Active; 'I' for Inactive)
REMARK    1  A    between atoms: C_1  and  C_2
REMARK    2  A    between atoms: C_5  and  N_6
REMARK    3  A    between atoms: C_7  and  C_9
REMARK    4  A    between atoms: C_19  and  S_20
REMARK    5  A    between atoms: S_20  and  N_23
REMARK                            x       y       z     vdW  Elec       q    Type
REMARK                         _______ _______ _______ _____ _____    ______ ____
ROOT
ATOM      1  C   UNL     1       6.558   4.315  16.424  0.00  0.00    +0.000 C 
ATOM      2  C   UNL     1       5.284   5.052  16.701  0.00  0.00    +0.000 A 
ATOM      3  C   UNL     1       5.183   6.298  16.074  0.00  0.00    +0.000 A 
ATOM      4  C   UNL     1       4.295   7.256  16.537  0.00  0.00    +0.000 A 
ATOM      5  C   UNL     1       3.449   7.007  17.611  0.00  0.00    +0.000 A 
ATOM      6  C   UNL     1       3.452   5.714  18.173  0.00  0.00    +0.000 A 
ATOM      7  C   UNL     1       4.347   4.713  17.693  0.00  0.00    +0.000 A 
ENDROOT
BRANCH   5   8
ATOM      8  N   UNL     1       2.662   8.055  18.165  0.00  0.00    +0.000 N 
ATOM      9  C   UNL     1       2.014   7.982  19.398  0.00  0.00    +0.000 C 
ATOM     10  O   UNL     1       2.191   7.094  20.227  0.00  0.00    +0.000 OA
ATOM     11  H   UNL     1       2.623   8.938  17.673  0.00  0.00    +0.000 HD
BRANCH   9  12
ATOM     12  C   UNL     1       1.134   9.095  19.740  0.00  0.00    +0.000 A 
ATOM     13  C   UNL     1       0.838  10.087  18.817  0.00  0.00    +0.000 A 
ATOM     14  N   UNL     1       0.020  11.006  19.401  0.00  0.00    +0.000 N 
ATOM     15  C   UNL     1      -0.190  10.673  20.716  0.00  0.00    +0.000 A 
ATOM     16  C   UNL     1      -0.924  11.354  21.694  0.00  0.00    +0.000 A 
ATOM     17  C   UNL     1      -0.934  10.817  22.982  0.00  0.00    +0.000 A 
ATOM     18  C   UNL     1      -0.230   9.652  23.279  0.00  0.00    +0.000 A 
ATOM     19  C   UNL     1       0.499   8.983  22.289  0.00  0.00    +0.000 A 
ATOM     20  C   UNL     1       0.508   9.486  20.969  0.00  0.00    +0.000 A 
ATOM     21  H   UNL     1      -0.342  11.836  18.950  0.00  0.00    +0.000 HD
ENDBRANCH   9  12
ENDBRANCH   5   8
BRANCH   7  22
ATOM     22  S   UNL     1       4.394   3.115  18.539  0.00  0.00    +0.000 S 
ATOM     23  O   UNL     1       4.462   2.103  17.498  0.00  0.00    +0.000 OA
ATOM     24  O   UNL     1       5.443   3.211  19.531  0.00  0.00    +0.000 OA
BRANCH  22  25
ATOM     25  N   UNL     1       2.953   2.909  19.375  0.00  0.00    +0.000 NA
ATOM     26  C   UNL     1       1.606   2.917  18.765  0.00  0.00    +0.000 C 
ATOM     27  C   UNL     1       0.768   4.060  19.364  0.00  0.00    +0.000 C 
ATOM     28  O   UNL     1       0.734   4.013  20.801  0.00  0.00    +0.000 OA
ATOM     29  C   UNL     1       2.055   4.001  21.372  0.00  0.00    +0.000 C 
ATOM     30  C   UNL     1       2.878   2.824  20.845  0.00  0.00    +0.000 C 
ENDBRANCH  22  25
ENDBRANCH   7  22
TORSDOF 4
ENDMDL
MODEL 7
REMARK VINA RESULT:      -8.2      1.813      3.800
REMARK  Name = 
REMARK  5 active torsions:
REMARK  status: ('A' for Active; 'I' for Inactive)
REMARK    1  A    between atoms: C_1  and  C_2
REMARK    2  A    between atoms: C_5  and  N_6
REMARK    3  A    between atoms: C_7  and  C_9
REMARK    4  A    between atoms: C_19  and  S_20
REMARK    5  A    between atoms: S_20  and  N_23
REMARK                            x       y       z     vdW  Elec       q    Type
REMARK                         _______ _______ _______ _____ _____    ______ ____
ROOT
ATOM      1  C   UNL     1       2.916   2.003  18.496  0.00  0.00    +0.000 C 
ATOM      2  C   UNL     1       2.634   3.128  19.444  0.00  0.00    +0.000 A 
ATOM      3  C   UNL     1       1.345   3.124  19.986  0.00  0.00    +0.000 A 
ATOM      4  C   UNL     1       0.801   4.276  20.530  0.00  0.00    +0.000 A 
ATOM      5  C   UNL     1       1.520   5.463  20.593  0.00  0.00    +0.000 A 
ATOM      6  C   UNL     1       2.863   5.449  20.164  0.00  0.00    +0.000 A 
ATOM      7  C   UNL     1       3.442   4.265  19.621  0.00  0.00    +0.000 A 
ENDROOT
BRANCH   5   8
ATOM      8  N   UNL     1       0.887   6.667  21.010  0.00  0.00    +0.000 N 
ATOM      9  C   UNL     1       1.227   7.936  20.542  0.00  0.00    +0.000 C 
ATOM     10  O   UNL     1       1.974   8.152  19.592  0.00  0.00    +0.000 OA
ATOM     11  H   UNL     1       0.092   6.602  21.632  0.00  0.00    +0.000 HD
BRANCH   9  12
ATOM     12  C   UNL     1       0.571   9.069  21.188  0.00  0.00    +0.000 A 
ATOM     13  C   UNL     1       0.604   9.230  22.565  0.00  0.00    +0.000 A 
ATOM     14  N   UNL     1      -0.099  10.347  22.898  0.00  0.00    +0.000 N 
ATOM     15  C   UNL     1      -0.650  10.904  21.771  0.00  0.00    +0.000 A 
ATOM     16  C   UNL     1      -1.477  12.025  21.653  0.00  0.00    +0.000 A 
ATOM     17  C   UNL     1      -1.944  12.350  20.378  0.00  0.00    +0.000 A 
ATOM     18  C   UNL     1      -1.604  11.578  19.271  0.00  0.00    +0.000 A 
ATOM     19  C   UNL     1      -0.773  10.458  19.406  0.00  0.00    +0.000 A 
ATOM     20  C   UNL     1      -0.263  10.118  20.678  0.00  0.00    +0.000 A 
ATOM     21  H   UNL     1      -0.238  10.690  23.839  0.00  0.00    +0.000 HD
ENDBRANCH   9  12
ENDBRANCH   5   8
BRANCH   7  22
ATOM     22  S   UNL     1       5.127   4.345  18.969  0.00  0.00    +0.000 S 
ATOM     23  O   UNL     1       5.764   5.478  19.620  0.00  0.00    +0.000 OA
ATOM     24  O   UNL     1       5.682   3.017  19.113  0.00  0.00    +0.000 OA
BRANCH  22  25
ATOM     25  N   UNL     1       5.051   4.663  17.323  0.00  0.00    +0.000 NA
ATOM     26  C   UNL     1       5.629   3.810  16.263  0.00  0.00    +0.000 C 
ATOM     27  C   UNL     1       6.685   4.603  15.472  0.00  0.00    +0.000 C 
ATOM     28  O   UNL     1       6.166   5.848  14.973  0.00  0.00    +0.000 OA
ATOM     29  C   UNL     1       5.604   6.659  16.020  0.00  0.00    +0.000 C 
ATOM     30  C   UNL     1       4.498   5.912  16.768  0.00  0.00    +0.000 C 
ENDBRANCH  22  25
ENDBRANCH   7  22
TORSDOF 4
ENDMDL
MODEL 8
REMARK VINA RESULT:      -8.2      1.995      4.059
REMARK  Name = 
REMARK  5 active torsions:
REMARK  status: ('A' for Active; 'I' for Inactive)
REMARK    1  A    between atoms: C_1  and  C_2
REMARK    2  A    between atoms: C_5  and  N_6
REMARK    3  A    between atoms: C_7  and  C_9
REMARK    4  A    between atoms: C_19  and  S_20
REMARK    5  A    between atoms: S_20  and  N_23
REMARK                            x       y       z     vdW  Elec       q    Type
REMARK                         _______ _______ _______ _____ _____    ______ ____
ROOT
ATOM      1  C   UNL     1       2.191   2.357  19.749  0.00  0.00    +0.000 C 
ATOM      2  C   UNL     1       2.376   3.823  19.991  0.00  0.00    +0.000 A 
ATOM      3  C   UNL     1       1.365   4.421  20.750  0.00  0.00    +0.000 A 
ATOM      4  C   UNL     1       1.167   5.792  20.714  0.00  0.00    +0.000 A 
ATOM      5  C   UNL     1       1.981   6.627  19.959  0.00  0.00    +0.000 A 
ATOM      6  C   UNL     1       3.080   6.052  19.288  0.00  0.00    +0.000 A 
ATOM      7  C   UNL     1       3.307   4.646  19.332  0.00  0.00    +0.000 A 
ENDROOT
BRANCH   5   8
ATOM      8  N   UNL     1       1.662   8.006  19.815  0.00  0.00    +0.000 N 
ATOM      9  C   UNL     1       1.175   8.810  20.844  0.00  0.00    +0.000 C 
ATOM     10  O   UNL     1       1.139   8.484  22.027  0.00  0.00    +0.000 OA
ATOM     11  H   UNL     1       1.864   8.456  18.932  0.00  0.00    +0.000 HD
BRANCH   9  12
ATOM     12  C   UNL     1       0.767  10.164  20.479  0.00  0.00    +0.000 A 
ATOM     13  C   UNL     1       1.188  10.746  19.292  0.00  0.00    +0.000 A 
ATOM     14  N   UNL     1       0.682  12.007  19.213  0.00  0.00    +0.000 N 
ATOM     15  C   UNL     1      -0.024  12.298  20.354  0.00  0.00    +0.000 A 
ATOM     16  C   UNL     1      -0.671  13.484  20.715  0.00  0.00    +0.000 A 
ATOM     17  C   UNL     1      -1.280  13.530  21.971  0.00  0.00    +0.000 A 
ATOM     18  C   UNL     1      -1.234  12.436  22.830  0.00  0.00    +0.000 A 
ATOM     19  C   UNL     1      -0.583  11.254  22.453  0.00  0.00    +0.000 A 
ATOM     20  C   UNL     1       0.020  11.167  21.179  0.00  0.00    +0.000 A 
ATOM     21  H   UNL     1       0.841  12.653  18.452  0.00  0.00    +0.000 HD
ENDBRANCH   9  12
ENDBRANCH   5   8
BRANCH   7  22
ATOM     22  S   UNL     1       4.657   3.954  18.346  0.00  0.00    +0.000 S 
ATOM     23  O   UNL     1       5.675   3.524  19.292  0.00  0.00    +0.000 OA
ATOM     24  O   UNL     1       4.053   3.000  17.443  0.00  0.00    +0.000 OA
BRANCH  22  25
ATOM     25  N   UNL     1       5.308   5.176  17.398  0.00  0.00    +0.000 NA
ATOM     26  C   UNL     1       5.321   5.191  15.919  0.00  0.00    +0.000 C 
ATOM     27  C   UNL     1       6.772   5.227  15.410  0.00  0.00    +0.000 C 
ATOM     28  O   UNL     1       7.524   6.308  15.990  0.00  0.00    +0.000 OA
ATOM     29  C   UNL     1       7.493   6.277  17.428  0.00  0.00    +0.000 C 
ATOM     30  C   UNL     1       6.057   6.317  17.955  0.00  0.00    +0.000 C 
ENDBRANCH  22  25
ENDBRANCH   7  22
TORSDOF 4
ENDMDL
MODEL 9
REMARK VINA RESULT:      -8.1      2.172      4.370
REMARK  Name = 
REMARK  5 active torsions:
REMARK  status: ('A' for Active; 'I' for Inactive)
REMARK    1  A    between atoms: C_1  and  C_2
REMARK    2  A    between atoms: C_5  and  N_6
REMARK    3  A    between atoms: C_7  and  C_9
REMARK    4  A    between atoms: C_19  and  S_20
REMARK    5  A    between atoms: S_20  and  N_23
REMARK                            x       y       z     vdW  Elec       q    Type
REMARK                         _______ _______ _______ _____ _____    ______ ____
ROOT
ATOM      1  C   UNL     1       2.136   2.489  20.152  0.00  0.00    +0.000 C 
ATOM      2  C   UNL     1       2.393   3.960  20.255  0.00  0.00    +0.000 A 
ATOM      3  C   UNL     1       1.455   4.663  21.019  0.00  0.00    +0.000 A 
ATOM      4  C   UNL     1       1.309   6.034  20.877  0.00  0.00    +0.000 A 
ATOM      5  C   UNL     1       2.105   6.766  20.006  0.00  0.00    +0.000 A 
ATOM      6  C   UNL     1       3.137   6.090  19.323  0.00  0.00    +0.000 A 
ATOM      7  C   UNL     1       3.312   4.684  19.474  0.00  0.00    +0.000 A 
ENDROOT
BRANCH   5   8
ATOM      8  N   UNL     1       1.832   8.141  19.763  0.00  0.00    +0.000 N 
ATOM      9  C   UNL     1       1.752   8.713  18.494  0.00  0.00    +0.000 C 
ATOM     10  O   UNL     1       1.724   8.079  17.443  0.00  0.00    +0.000 OA
ATOM     11  H   UNL     1       1.609   8.733  20.552  0.00  0.00    +0.000 HD
BRANCH   9  12
ATOM     12  C   UNL     1       1.606  10.165  18.439  0.00  0.00    +0.000 A 
ATOM     13  C   UNL     1       2.568  10.961  17.835  0.00  0.00    +0.000 A 
ATOM     14  N   UNL     1       2.195  12.266  17.943  0.00  0.00    +0.000 N 
ATOM     15  C   UNL     1       1.028  12.358  18.661  0.00  0.00    +0.000 A 
ATOM     16  C   UNL     1       0.315  13.499  19.046  0.00  0.00    +0.000 A 
ATOM     17  C   UNL     1      -0.829  13.311  19.824  0.00  0.00    +0.000 A 
ATOM     18  C   UNL     1      -1.235  12.036  20.206  0.00  0.00    +0.000 A 
ATOM     19  C   UNL     1      -0.510  10.904  19.811  0.00  0.00    +0.000 A 
ATOM     20  C   UNL     1       0.637  11.058  19.002  0.00  0.00    +0.000 A 
ATOM     21  H   UNL     1       2.721  13.055  17.593  0.00  0.00    +0.000 HD
ENDBRANCH   9  12
ENDBRANCH   5   8
BRANCH   7  22
ATOM     22  S   UNL     1       4.569   3.853  18.473  0.00  0.00    +0.000 S 
ATOM     23  O   UNL     1       5.502   3.247  19.409  0.00  0.00    +0.000 OA
ATOM     24  O   UNL     1       3.854   3.031  17.522  0.00  0.00    +0.000 OA
BRANCH  22  25
ATOM     25  N   UNL     1       5.398   5.012  17.586  0.00  0.00    +0.000 NA
ATOM     26  C   UNL     1       4.813   5.839  16.508  0.00  0.00    +0.000 C 
ATOM     27  C   UNL     1       5.549   5.569  15.185  0.00  0.00    +0.000 C 
ATOM     28  O   UNL     1       6.972   5.735  15.312  0.00  0.00    +0.000 OA
ATOM     29  C   UNL     1       7.519   4.925  16.369  0.00  0.00    +0.000 C 
ATOM     30  C   UNL     1       6.850   5.236  17.710  0.00  0.00    +0.000 C 
ENDBRANCH  22  25
ENDBRANCH   7  22
TORSDOF 4
ENDMDL
