MODEL 1
REMARK VINA RESULT:      -8.5      0.000      0.000
REMARK  Name = 
REMARK  6 active torsions:
REMARK  status: ('A' for Active; 'I' for Inactive)
REMARK    1  A    between atoms: C_2  and  C_3
REMARK    2  A    between atoms: C_3  and  O_4
REMARK    3  A    between atoms: O_4  and  C_5
REMARK    4  A    between atoms: C_10  and  C_11
REMARK    5  A    between atoms: N_17  and  C_18
REMARK    6  A    between atoms: C_21  and  N_22
REMARK                            x       y       z     vdW  Elec       q    Type
REMARK                         _______ _______ _______ _____ _____    ______ ____
ROOT
ATOM      1  O   UNL     1       1.540   8.395  19.643  0.00  0.00    +0.000 OA
ATOM      2  C   UNL     1       1.753   8.755  18.486  0.00  0.00    +0.000 C 
ATOM      3  N   UNL     1       0.976   9.646  17.761  0.00  0.00    +0.000 N 
ATOM      4  H   UNL     1       1.108   9.646  16.756  0.00  0.00    +0.000 HD
ENDROOT
BRANCH   3   5
ATOM      5  C   UNL     1      -0.091  10.417  18.271  0.00  0.00    +0.000 A 
ATOM      6  C   UNL     1       0.084  11.450  19.197  0.00  0.00    +0.000 A 
ATOM      7  C   UNL     1      -1.010  12.166  19.699  0.00  0.00    +0.000 A 
ATOM      8  C   UNL     1      -2.304  11.854  19.275  0.00  0.00    +0.000 A 
ATOM      9  C   UNL     1      -2.485  10.851  18.312  0.00  0.00    +0.000 A 
ATOM     10  C   UNL     1      -1.382  10.147  17.807  0.00  0.00    +0.000 A 
BRANCH   8  11
ATOM     11  N   UNL     1      -3.425  12.520  19.821  0.00  0.00    +0.000 N 
ATOM     12  C   UNL     1      -4.759  12.379  19.516  0.00  0.00    +0.000 A 
ATOM     13  N   UNL     1      -5.462  13.230  20.224  0.00  0.00    +0.000 NA
ATOM     14  N   UNL     1      -4.554  13.916  20.986  0.00  0.00    +0.000 NA
ATOM     15  N   UNL     1      -3.320  13.487  20.760  0.00  0.00    +0.000 NA
ENDBRANCH   8  11
ENDBRANCH   3   5
BRANCH   2  16
ATOM     16  C   UNL     1       2.981   8.244  17.730  0.00  0.00    +0.000 C 
BRANCH  16  17
ATOM     17  O   UNL     1       3.419   7.004  18.252  0.00  0.00    +0.000 OA
BRANCH  17  18
ATOM     18  C   UNL     1       4.052   6.129  17.399  0.00  0.00    +0.000 A 
ATOM     19  C   UNL     1       4.898   6.552  16.357  0.00  0.00    +0.000 A 
ATOM     20  C   UNL     1       5.518   5.634  15.511  0.00  0.00    +0.000 A 
ATOM     21  C   UNL     1       5.326   4.276  15.707  0.00  0.00    +0.000 A 
ATOM     22  C   UNL     1       4.509   3.838  16.750  0.00  0.00    +0.000 A 
ATOM     23  C   UNL     1       3.834   4.742  17.607  0.00  0.00    +0.000 A 
BRANCH  23  24
ATOM     24  C   UNL     1       2.894   4.201  18.630  0.00  0.00    +0.000 A 
ATOM     25  C   UNL     1       3.114   4.336  20.014  0.00  0.00    +0.000 A 
ATOM     26  C   UNL     1       2.179   3.890  20.957  0.00  0.00    +0.000 A 
ATOM     27  C   UNL     1       1.015   3.254  20.543  0.00  0.00    +0.000 A 
ATOM     28  C   UNL     1       0.786   3.063  19.185  0.00  0.00    +0.000 A 
ATOM     29  C   UNL     1       1.711   3.535  18.244  0.00  0.00    +0.000 A 
ENDBRANCH  23  24
ENDBRANCH  17  18
ENDBRANCH  16  17
ENDBRANCH   2  16
TORSDOF 6
ENDMDL
MODEL 2
REMARK VINA RESULT:      -8.5      0.501      1.144
REMARK  Name = 
REMARK  6 active torsions:
REMARK  status: ('A' for Active; 'I' for Inactive)
REMARK    1  A    between atoms: C_2  and  C_3
REMARK    2  A    between atoms: C_3  and  O_4
REMARK    3  A    between atoms: O_4  and  C_5
REMARK    4  A    between atoms: C_10  and  C_11
REMARK    5  A    between atoms: N_17  and  C_18
REMARK    6  A    between atoms: C_21  and  N_22
REMARK                            x       y       z     vdW  Elec       q    Type
REMARK                         _______ _______ _______ _____ _____    ______ ____
ROOT
ATOM      1  O   UNL     1       1.505   8.388  19.661  0.00  0.00    +0.000 OA
ATOM      2  C   UNL     1       1.725   8.770  18.512  0.00  0.00    +0.000 C 
ATOM      3  N   UNL     1       0.964   9.691  17.808  0.00  0.00    +0.000 N 
ATOM      4  H   UNL     1       1.096   9.711  16.803  0.00  0.00    +0.000 HD
ENDROOT
BRANCH   3   5
ATOM      5  C   UNL     1      -0.088  10.471  18.336  0.00  0.00    +0.000 A 
ATOM      6  C   UNL     1       0.099  11.449  19.316  0.00  0.00    +0.000 A 
ATOM      7  C   UNL     1      -0.981  12.175  19.833  0.00  0.00    +0.000 A 
ATOM      8  C   UNL     1      -2.275  11.927  19.369  0.00  0.00    +0.000 A 
ATOM      9  C   UNL     1      -2.468  10.980  18.352  0.00  0.00    +0.000 A 
ATOM     10  C   UNL     1      -1.377  10.267  17.834  0.00  0.00    +0.000 A 
BRANCH   8  11
ATOM     11  N   UNL     1      -3.386  12.600  19.926  0.00  0.00    +0.000 N 
ATOM     12  C   UNL     1      -3.420  13.588  20.883  0.00  0.00    +0.000 A 
ATOM     13  N   UNL     1      -4.667  13.897  21.149  0.00  0.00    +0.000 NA
ATOM     14  N   UNL     1      -5.427  13.090  20.345  0.00  0.00    +0.000 NA
ATOM     15  N   UNL     1      -4.664  12.310  19.592  0.00  0.00    +0.000 NA
ENDBRANCH   8  11
ENDBRANCH   3   5
BRANCH   2  16
ATOM     16  C   UNL     1       2.942   8.254  17.745  0.00  0.00    +0.000 C 
BRANCH  16  17
ATOM     17  O   UNL     1       3.393   7.021  18.275  0.00  0.00    +0.000 OA
BRANCH  17  18
ATOM     18  C   UNL     1       4.026   6.143  17.425  0.00  0.00    +0.000 A 
ATOM     19  C   UNL     1       4.892   6.560  16.398  0.00  0.00    +0.000 A 
ATOM     20  C   UNL     1       5.511   5.639  15.555  0.00  0.00    +0.000 A 
ATOM     21  C   UNL     1       5.298   4.283  15.740  0.00  0.00    +0.000 A 
ATOM     22  C   UNL     1       4.461   3.850  16.769  0.00  0.00    +0.000 A 
ATOM     23  C   UNL     1       3.786   4.757  17.622  0.00  0.00    +0.000 A 
BRANCH  23  24
ATOM     24  C   UNL     1       2.824   4.224  18.629  0.00  0.00    +0.000 A 
ATOM     25  C   UNL     1       1.614   3.601  18.270  0.00  0.00    +0.000 A 
ATOM     26  C   UNL     1       0.761   3.037  19.228  0.00  0.00    +0.000 A 
ATOM     27  C   UNL     1       1.075   3.121  20.580  0.00  0.00    +0.000 A 
ATOM     28  C   UNL     1       2.240   3.769  20.973  0.00  0.00    +0.000 A 
ATOM     29  C   UNL     1       3.103   4.307  20.010  0.00  0.00    +0.000 A 
ENDBRANCH  23  24
ENDBRANCH  17  18
ENDBRANCH  16  17
ENDBRANCH   2  16
TORSDOF 6
ENDMDL
MODEL 3
REMARK VINA RESULT:      -8.4      2.445      4.063
REMARK  Name = 
REMARK  6 active torsions:
REMARK  status: ('A' for Active; 'I' for Inactive)
REMARK    1  A    between atoms: C_2  and  C_3
REMARK    2  A    between atoms: C_3  and  O_4
REMARK    3  A    between atoms: O_4  and  C_5
REMARK    4  A    between atoms: C_10  and  C_11
REMARK    5  A    between atoms: N_17  and  C_18
REMARK    6  A    between atoms: C_21  and  N_22
REMARK                            x       y       z     vdW  Elec       q    Type
REMARK                         _______ _______ _______ _____ _____    ______ ____
ROOT
ATOM      1  O   UNL     1       1.215   9.174  18.133  0.00  0.00    +0.000 OA
ATOM      2  C   UNL     1       1.738   8.390  18.924  0.00  0.00    +0.000 C 
ATOM      3  N   UNL     1       1.669   8.472  20.307  0.00  0.00    +0.000 N 
ATOM      4  H   UNL     1       2.352   7.932  20.826  0.00  0.00    +0.000 HD
ENDROOT
BRANCH   3   5
ATOM      5  C   UNL     1       0.857   9.362  21.043  0.00  0.00    +0.000 A 
ATOM      6  C   UNL     1       0.135   8.982  22.178  0.00  0.00    +0.000 A 
ATOM      7  C   UNL     1      -0.684   9.893  22.856  0.00  0.00    +0.000 A 
ATOM      8  C   UNL     1      -0.791  11.210  22.402  0.00  0.00    +0.000 A 
ATOM      9  C   UNL     1      -0.034  11.614  21.292  0.00  0.00    +0.000 A 
ATOM     10  C   UNL     1       0.791  10.696  20.626  0.00  0.00    +0.000 A 
BRANCH   8  11
ATOM     11  N   UNL     1      -1.663  12.125  23.032  0.00  0.00    +0.000 N 
ATOM     12  C   UNL     1      -1.452  13.441  23.373  0.00  0.00    +0.000 A 
ATOM     13  N   UNL     1      -2.510  13.909  23.991  0.00  0.00    +0.000 NA
ATOM     14  N   UNL     1      -3.399  12.868  24.040  0.00  0.00    +0.000 NA
ATOM     15  N   UNL     1      -2.904  11.788  23.452  0.00  0.00    +0.000 NA
ENDBRANCH   8  11
ENDBRANCH   3   5
BRANCH   2  16
ATOM     16  C   UNL     1       2.519   7.179  18.412  0.00  0.00    +0.000 C 
BRANCH  16  17
ATOM     17  O   UNL     1       3.082   6.447  19.484  0.00  0.00    +0.000 OA
BRANCH  17  18
ATOM     18  C   UNL     1       2.644   5.159  19.690  0.00  0.00    +0.000 A 
ATOM     19  C   UNL     1       1.529   4.847  20.489  0.00  0.00    +0.000 A 
ATOM     20  C   UNL     1       1.119   3.528  20.676  0.00  0.00    +0.000 A 
ATOM     21  C   UNL     1       1.797   2.499  20.044  0.00  0.00    +0.000 A 
ATOM     22  C   UNL     1       2.890   2.792  19.228  0.00  0.00    +0.000 A 
ATOM     23  C   UNL     1       3.358   4.116  19.043  0.00  0.00    +0.000 A 
BRANCH  23  24
ATOM     24  C   UNL     1       4.596   4.339  18.244  0.00  0.00    +0.000 A 
ATOM     25  C   UNL     1       5.826   4.698  18.828  0.00  0.00    +0.000 A 
ATOM     26  C   UNL     1       6.995   4.827  18.067  0.00  0.00    +0.000 A 
ATOM     27  C   UNL     1       6.957   4.645  16.689  0.00  0.00    +0.000 A 
ATOM     28  C   UNL     1       5.751   4.334  16.073  0.00  0.00    +0.000 A 
ATOM     29  C   UNL     1       4.590   4.180  16.841  0.00  0.00    +0.000 A 
ENDBRANCH  23  24
ENDBRANCH  17  18
ENDBRANCH  16  17
ENDBRANCH   2  16
TORSDOF 6
ENDMDL
MODEL 4
REMARK VINA RESULT:      -8.3      0.895      1.061
REMARK  Name = 
REMARK  6 active torsions:
REMARK  status: ('A' for Active; 'I' for Inactive)
REMARK    1  A    between atoms: C_2  and  C_3
REMARK    2  A    between atoms: C_3  and  O_4
REMARK    3  A    between atoms: O_4  and  C_5
REMARK    4  A    between atoms: C_10  and  C_11
REMARK    5  A    between atoms: N_17  and  C_18
REMARK    6  A    between atoms: C_21  and  N_22
REMARK                            x       y       z     vdW  Elec       q    Type
REMARK                         _______ _______ _______ _____ _____    ______ ____
ROOT
ATOM      1  O   UNL     1       1.257   9.326  19.779  0.00  0.00    +0.000 OA
ATOM      2  C   UNL     1       1.332   9.136  18.566  0.00  0.00    +0.000 C 
ATOM      3  N   UNL     1       0.344   9.432  17.639  0.00  0.00    +0.000 N 
ATOM      4  H   UNL     1       0.427   8.986  16.732  0.00  0.00    +0.000 HD
ENDROOT
BRANCH   3   5
ATOM      5  C   UNL     1      -0.844  10.150  17.897  0.00  0.00    +0.000 A 
ATOM      6  C   UNL     1      -0.939  11.153  18.866  0.00  0.00    +0.000 A 
ATOM      7  C   UNL     1      -2.149  11.815  19.109  0.00  0.00    +0.000 A 
ATOM      8  C   UNL     1      -3.290  11.476  18.378  0.00  0.00    +0.000 A 
ATOM      9  C   UNL     1      -3.194  10.503  17.372  0.00  0.00    +0.000 A 
ATOM     10  C   UNL     1      -1.975   9.854  17.129  0.00  0.00    +0.000 A 
BRANCH   8  11
ATOM     11  N   UNL     1      -4.535  12.084  18.654  0.00  0.00    +0.000 N 
ATOM     12  C   UNL     1      -5.660  12.172  17.868  0.00  0.00    +0.000 A 
ATOM     13  N   UNL     1      -6.578  12.870  18.492  0.00  0.00    +0.000 NA
ATOM     14  N   UNL     1      -6.020  13.227  19.690  0.00  0.00    +0.000 NA
ATOM     15  N   UNL     1      -4.789  12.747  19.806  0.00  0.00    +0.000 NA
ENDBRANCH   8  11
ENDBRANCH   3   5
BRANCH   2  16
ATOM     16  C   UNL     1       2.607   8.558  17.951  0.00  0.00    +0.000 C 
BRANCH  16  17
ATOM     17  O   UNL     1       2.801   7.214  18.351  0.00  0.00    +0.000 OA
BRANCH  17  18
ATOM     18  C   UNL     1       3.632   6.425  17.588  0.00  0.00    +0.000 A 
ATOM     19  C   UNL     1       4.468   6.941  16.582  0.00  0.00    +0.000 A 
ATOM     20  C   UNL     1       5.293   6.107  15.828  0.00  0.00    +0.000 A 
ATOM     21  C   UNL     1       5.317   4.747  16.086  0.00  0.00    +0.000 A 
ATOM     22  C   UNL     1       4.512   4.220  17.096  0.00  0.00    +0.000 A 
ATOM     23  C   UNL     1       3.635   5.031  17.858  0.00  0.00    +0.000 A 
BRANCH  23  24
ATOM     24  C   UNL     1       2.727   4.382  18.846  0.00  0.00    +0.000 A 
ATOM     25  C   UNL     1       2.913   4.489  20.237  0.00  0.00    +0.000 A 
ATOM     26  C   UNL     1       2.004   3.937  21.149  0.00  0.00    +0.000 A 
ATOM     27  C   UNL     1       0.903   3.221  20.693  0.00  0.00    +0.000 A 
ATOM     28  C   UNL     1       0.712   3.057  19.326  0.00  0.00    +0.000 A 
ATOM     29  C   UNL     1       1.609   3.634  18.418  0.00  0.00    +0.000 A 
ENDBRANCH  23  24
ENDBRANCH  17  18
ENDBRANCH  16  17
ENDBRANCH   2  16
TORSDOF 6
ENDMDL
MODEL 5
REMARK VINA RESULT:      -8.3      2.281      4.096
REMARK  Name = 
REMARK  6 active torsions:
REMARK  status: ('A' for Active; 'I' for Inactive)
REMARK    1  A    between atoms: C_2  and  C_3
REMARK    2  A    between atoms: C_3  and  O_4
REMARK    3  A    between atoms: O_4  and  C_5
REMARK    4  A    between atoms: C_10  and  C_11
REMARK    5  A    between atoms: N_17  and  C_18
REMARK    6  A    between atoms: C_21  and  N_22
REMARK                            x       y       z     vdW  Elec       q    Type
REMARK                         _______ _______ _______ _____ _____    ______ ____
ROOT
ATOM      1  O   UNL     1       2.168   9.480  18.250  0.00  0.00    +0.000 OA
ATOM      2  C   UNL     1       2.001   8.413  18.839  0.00  0.00    +0.000 C 
ATOM      3  N   UNL     1       1.333   8.251  20.043  0.00  0.00    +0.000 N 
ATOM      4  H   UNL     1       1.500   7.382  20.539  0.00  0.00    +0.000 HD
ENDROOT
BRANCH   3   5
ATOM      5  C   UNL     1       0.590   9.244  20.717  0.00  0.00    +0.000 A 
ATOM      6  C   UNL     1      -0.125  10.248  20.056  0.00  0.00    +0.000 A 
ATOM      7  C   UNL     1      -0.821  11.232  20.769  0.00  0.00    +0.000 A 
ATOM      8  C   UNL     1      -0.810  11.222  22.166  0.00  0.00    +0.000 A 
ATOM      9  C   UNL     1      -0.136  10.192  22.838  0.00  0.00    +0.000 A 
ATOM     10  C   UNL     1       0.549   9.205  22.114  0.00  0.00    +0.000 A 
BRANCH   8  11
ATOM     11  N   UNL     1      -1.450  12.244  22.902  0.00  0.00    +0.000 N 
ATOM     12  C   UNL     1      -2.772  12.367  23.262  0.00  0.00    +0.000 A 
ATOM     13  N   UNL     1      -2.950  13.500  23.899  0.00  0.00    +0.000 NA
ATOM     14  N   UNL     1      -1.719  14.098  23.939  0.00  0.00    +0.000 NA
ATOM     15  N   UNL     1      -0.801  13.343  23.351  0.00  0.00    +0.000 NA
ENDBRANCH   8  11
ENDBRANCH   3   5
BRANCH   2  16
ATOM     16  C   UNL     1       2.518   7.107  18.235  0.00  0.00    +0.000 C 
BRANCH  16  17
ATOM     17  O   UNL     1       3.184   6.324  19.208  0.00  0.00    +0.000 OA
BRANCH  17  18
ATOM     18  C   UNL     1       2.714   5.053  19.449  0.00  0.00    +0.000 A 
ATOM     19  C   UNL     1       1.620   4.788  20.292  0.00  0.00    +0.000 A 
ATOM     20  C   UNL     1       1.177   3.485  20.514  0.00  0.00    +0.000 A 
ATOM     21  C   UNL     1       1.801   2.426  19.876  0.00  0.00    +0.000 A 
ATOM     22  C   UNL     1       2.874   2.673  19.018  0.00  0.00    +0.000 A 
ATOM     23  C   UNL     1       3.375   3.979  18.796  0.00  0.00    +0.000 A 
BRANCH  23  24
ATOM     24  C   UNL     1       4.591   4.153  17.951  0.00  0.00    +0.000 A 
ATOM     25  C   UNL     1       4.564   4.053  16.548  0.00  0.00    +0.000 A 
ATOM     26  C   UNL     1       5.702   4.296  15.768  0.00  0.00    +0.000 A 
ATOM     27  C   UNL     1       6.914   4.604  16.375  0.00  0.00    +0.000 A 
ATOM     28  C   UNL     1       6.987   4.668  17.762  0.00  0.00    +0.000 A 
ATOM     29  C   UNL     1       5.841   4.450  18.536  0.00  0.00    +0.000 A 
ENDBRANCH  23  24
ENDBRANCH  17  18
ENDBRANCH  16  17
ENDBRANCH   2  16
TORSDOF 6
ENDMDL
MODEL 6
REMARK VINA RESULT:      -8.3      2.369      4.139
REMARK  Name = 
REMARK  6 active torsions:
REMARK  status: ('A' for Active; 'I' for Inactive)
REMARK    1  A    between atoms: C_2  and  C_3
REMARK    2  A    between atoms: C_3  and  O_4
REMARK    3  A    between atoms: O_4  and  C_5
REMARK    4  A    between atoms: C_10  and  C_11
REMARK    5  A    between atoms: N_17  and  C_18
REMARK    6  A    between atoms: C_21  and  N_22
REMARK                            x       y       z     vdW  Elec       q    Type
REMARK                         _______ _______ _______ _____ _____    ______ ____
ROOT
ATOM      1  O   UNL     1       1.756   8.388  18.746  0.00  0.00    +0.000 OA
ATOM      2  C   UNL     1       2.052   7.744  19.752  0.00  0.00    +0.000 C 
ATOM      3  N   UNL     1       1.677   8.057  21.049  0.00  0.00    +0.000 N 
ATOM      4  H   UNL     1       2.201   7.607  21.792  0.00  0.00    +0.000 HD
ENDROOT
BRANCH   3   5
ATOM      5  C   UNL     1       0.761   9.063  21.426  0.00  0.00    +0.000 A 
ATOM      6  C   UNL     1       0.389  10.116  20.585  0.00  0.00    +0.000 A 
ATOM      7  C   UNL     1      -0.499  11.109  21.016  0.00  0.00    +0.000 A 
ATOM      8  C   UNL     1      -1.030  11.060  22.307  0.00  0.00    +0.000 A 
ATOM      9  C   UNL     1      -0.700   9.983  23.142  0.00  0.00    +0.000 A 
ATOM     10  C   UNL     1       0.182   8.987  22.697  0.00  0.00    +0.000 A 
BRANCH   8  11
ATOM     11  N   UNL     1      -1.874  12.089  22.783  0.00  0.00    +0.000 N 
ATOM     12  C   UNL     1      -1.739  13.453  22.671  0.00  0.00    +0.000 A 
ATOM     13  N   UNL     1      -2.724  14.045  23.303  0.00  0.00    +0.000 NA
ATOM     14  N   UNL     1      -3.490  13.035  23.821  0.00  0.00    +0.000 NA
ATOM     15  N   UNL     1      -2.993  11.847  23.503  0.00  0.00    +0.000 NA
ENDBRANCH   8  11
ENDBRANCH   3   5
BRANCH   2  16
ATOM     16  C   UNL     1       2.873   6.460  19.635  0.00  0.00    +0.000 C 
BRANCH  16  17
ATOM     17  O   UNL     1       2.619   5.803  18.406  0.00  0.00    +0.000 OA
BRANCH  17  18
ATOM     18  C   UNL     1       2.367   4.451  18.435  0.00  0.00    +0.000 A 
ATOM     19  C   UNL     1       1.188   3.901  18.969  0.00  0.00    +0.000 A 
ATOM     20  C   UNL     1       0.972   2.524  18.984  0.00  0.00    +0.000 A 
ATOM     21  C   UNL     1       1.918   1.673  18.438  0.00  0.00    +0.000 A 
ATOM     22  C   UNL     1       3.083   2.202  17.881  0.00  0.00    +0.000 A 
ATOM     23  C   UNL     1       3.354   3.592  17.882  0.00  0.00    +0.000 A 
BRANCH  23  24
ATOM     24  C   UNL     1       4.668   4.073  17.367  0.00  0.00    +0.000 A 
ATOM     25  C   UNL     1       4.919   4.282  15.998  0.00  0.00    +0.000 A 
ATOM     26  C   UNL     1       6.134   4.809  15.542  0.00  0.00    +0.000 A 
ATOM     27  C   UNL     1       7.153   5.100  16.442  0.00  0.00    +0.000 A 
ATOM     28  C   UNL     1       6.955   4.864  17.798  0.00  0.00    +0.000 A 
ATOM     29  C   UNL     1       5.728   4.363  18.252  0.00  0.00    +0.000 A 
ENDBRANCH  23  24
ENDBRANCH  17  18
ENDBRANCH  16  17
ENDBRANCH   2  16
TORSDOF 6
ENDMDL
MODEL 7
REMARK VINA RESULT:      -8.2      2.356      3.950
REMARK  Name = 
REMARK  6 active torsions:
REMARK  status: ('A' for Active; 'I' for Inactive)
REMARK    1  A    between atoms: C_2  and  C_3
REMARK    2  A    between atoms: C_3  and  O_4
REMARK    3  A    between atoms: O_4  and  C_5
REMARK    4  A    between atoms: C_10  and  C_11
REMARK    5  A    between atoms: N_17  and  C_18
REMARK    6  A    between atoms: C_21  and  N_22
REMARK                            x       y       z     vdW  Elec       q    Type
REMARK                         _______ _______ _______ _____ _____    ______ ____
ROOT
ATOM      1  O   UNL     1       1.127   9.009  17.791  0.00  0.00    +0.000 OA
ATOM      2  C   UNL     1       1.751   8.369  18.637  0.00  0.00    +0.000 C 
ATOM      3  N   UNL     1       1.777   8.639  19.996  0.00  0.00    +0.000 N 
ATOM      4  H   UNL     1       2.527   8.210  20.528  0.00  0.00    +0.000 HD
ENDROOT
BRANCH   3   5
ATOM      5  C   UNL     1       0.971   9.583  20.668  0.00  0.00    +0.000 A 
ATOM      6  C   UNL     1       0.963  10.946  20.356  0.00  0.00    +0.000 A 
ATOM      7  C   UNL     1       0.170  11.850  21.073  0.00  0.00    +0.000 A 
ATOM      8  C   UNL     1      -0.634  11.396  22.122  0.00  0.00    +0.000 A 
ATOM      9  C   UNL     1      -0.669  10.024  22.412  0.00  0.00    +0.000 A 
ATOM     10  C   UNL     1       0.122   9.126  21.681  0.00  0.00    +0.000 A 
BRANCH   8  11
ATOM     11  N   UNL     1      -1.389  12.302  22.900  0.00  0.00    +0.000 N 
ATOM     12  C   UNL     1      -2.727  12.277  23.219  0.00  0.00    +0.000 A 
ATOM     13  N   UNL     1      -3.030  13.342  23.922  0.00  0.00    +0.000 NA
ATOM     14  N   UNL     1      -1.862  14.047  24.046  0.00  0.00    +0.000 NA
ATOM     15  N   UNL     1      -0.860  13.422  23.443  0.00  0.00    +0.000 NA
ENDBRANCH   8  11
ENDBRANCH   3   5
BRANCH   2  16
ATOM     16  C   UNL     1       2.561   7.137  18.232  0.00  0.00    +0.000 C 
BRANCH  16  17
ATOM     17  O   UNL     1       3.046   6.450  19.371  0.00  0.00    +0.000 OA
BRANCH  17  18
ATOM     18  C   UNL     1       2.610   5.163  19.584  0.00  0.00    +0.000 A 
ATOM     19  C   UNL     1       1.504   4.852  20.396  0.00  0.00    +0.000 A 
ATOM     20  C   UNL     1       1.096   3.533  20.590  0.00  0.00    +0.000 A 
ATOM     21  C   UNL     1       1.768   2.503  19.954  0.00  0.00    +0.000 A 
ATOM     22  C   UNL     1       2.853   2.794  19.126  0.00  0.00    +0.000 A 
ATOM     23  C   UNL     1       3.319   4.118  18.934  0.00  0.00    +0.000 A 
BRANCH  23  24
ATOM     24  C   UNL     1       4.549   4.341  18.121  0.00  0.00    +0.000 A 
ATOM     25  C   UNL     1       5.792   4.665  18.695  0.00  0.00    +0.000 A 
ATOM     26  C   UNL     1       6.953   4.793  17.921  0.00  0.00    +0.000 A 
ATOM     27  C   UNL     1       6.892   4.644  16.539  0.00  0.00    +0.000 A 
ATOM     28  C   UNL     1       5.672   4.368  15.934  0.00  0.00    +0.000 A 
ATOM     29  C   UNL     1       4.519   4.214  16.716  0.00  0.00    +0.000 A 
ENDBRANCH  23  24
ENDBRANCH  17  18
ENDBRANCH  16  17
ENDBRANCH   2  16
TORSDOF 6
ENDMDL
MODEL 8
REMARK VINA RESULT:      -8.2      1.984      2.375
REMARK  Name = 
REMARK  6 active torsions:
REMARK  status: ('A' for Active; 'I' for Inactive)
REMARK    1  A    between atoms: C_2  and  C_3
REMARK    2  A    between atoms: C_3  and  O_4
REMARK    3  A    between atoms: O_4  and  C_5
REMARK    4  A    between atoms: C_10  and  C_11
REMARK    5  A    between atoms: N_17  and  C_18
REMARK    6  A    between atoms: C_21  and  N_22
REMARK                            x       y       z     vdW  Elec       q    Type
REMARK                         _______ _______ _______ _____ _____    ______ ____
ROOT
ATOM      1  O   UNL     1       2.256   9.985  17.960  0.00  0.00    +0.000 OA
ATOM      2  C   UNL     1       1.907   8.874  18.355  0.00  0.00    +0.000 C 
ATOM      3  N   UNL     1       1.137   8.621  19.481  0.00  0.00    +0.000 N 
ATOM      4  H   UNL     1       1.151   7.671  19.834  0.00  0.00    +0.000 HD
ENDROOT
BRANCH   3   5
ATOM      5  C   UNL     1       0.485   9.593  20.271  0.00  0.00    +0.000 A 
ATOM      6  C   UNL     1      -0.156  10.713  19.736  0.00  0.00    +0.000 A 
ATOM      7  C   UNL     1      -0.761  11.667  20.563  0.00  0.00    +0.000 A 
ATOM      8  C   UNL     1      -0.732  11.509  21.951  0.00  0.00    +0.000 A 
ATOM      9  C   UNL     1      -0.132  10.364  22.496  0.00  0.00    +0.000 A 
ATOM     10  C   UNL     1       0.462   9.409  21.658  0.00  0.00    +0.000 A 
BRANCH   8  11
ATOM     11  N   UNL     1      -1.277  12.494  22.804  0.00  0.00    +0.000 N 
ATOM     12  C   UNL     1      -2.574  12.659  23.233  0.00  0.00    +0.000 A 
ATOM     13  N   UNL     1      -2.656  13.736  23.977  0.00  0.00    +0.000 NA
ATOM     14  N   UNL     1      -1.389  14.256  24.014  0.00  0.00    +0.000 NA
ATOM     15  N   UNL     1      -0.544  13.507  23.320  0.00  0.00    +0.000 NA
ENDBRANCH   8  11
ENDBRANCH   3   5
BRANCH   2  16
ATOM     16  C   UNL     1       2.288   7.618  17.570  0.00  0.00    +0.000 C 
BRANCH  16  17
ATOM     17  O   UNL     1       3.486   7.052  18.066  0.00  0.00    +0.000 OA
BRANCH  17  18
ATOM     18  C   UNL     1       4.143   6.133  17.280  0.00  0.00    +0.000 A 
ATOM     19  C   UNL     1       5.007   6.498  16.232  0.00  0.00    +0.000 A 
ATOM     20  C   UNL     1       5.650   5.536  15.455  0.00  0.00    +0.000 A 
ATOM     21  C   UNL     1       5.464   4.191  15.730  0.00  0.00    +0.000 A 
ATOM     22  C   UNL     1       4.629   3.811  16.781  0.00  0.00    +0.000 A 
ATOM     23  C   UNL     1       3.931   4.758  17.568  0.00  0.00    +0.000 A 
BRANCH  23  24
ATOM     24  C   UNL     1       2.974   4.273  18.603  0.00  0.00    +0.000 A 
ATOM     25  C   UNL     1       3.186   4.455  19.983  0.00  0.00    +0.000 A 
ATOM     26  C   UNL     1       2.237   4.061  20.935  0.00  0.00    +0.000 A 
ATOM     27  C   UNL     1       1.065   3.430  20.535  0.00  0.00    +0.000 A 
ATOM     28  C   UNL     1       0.842   3.194  19.183  0.00  0.00    +0.000 A 
ATOM     29  C   UNL     1       1.782   3.614  18.233  0.00  0.00    +0.000 A 
ENDBRANCH  23  24
ENDBRANCH  17  18
ENDBRANCH  16  17
ENDBRANCH   2  16
TORSDOF 6
ENDMDL
MODEL 9
REMARK VINA RESULT:      -8.2      2.216      2.632
REMARK  Name = 
REMARK  6 active torsions:
REMARK  status: ('A' for Active; 'I' for Inactive)
REMARK    1  A    between atoms: C_2  and  C_3
REMARK    2  A    between atoms: C_3  and  O_4
REMARK    3  A    between atoms: O_4  and  C_5
REMARK    4  A    between atoms: C_10  and  C_11
REMARK    5  A    between atoms: N_17  and  C_18
REMARK    6  A    between atoms: C_21  and  N_22
REMARK                            x       y       z     vdW  Elec       q    Type
REMARK                         _______ _______ _______ _____ _____    ______ ____
ROOT
ATOM      1  O   UNL     1       1.727   8.094  20.331  0.00  0.00    +0.000 OA
ATOM      2  C   UNL     1       1.734   8.574  19.198  0.00  0.00    +0.000 C 
ATOM      3  N   UNL     1       1.253   9.826  18.848  0.00  0.00    +0.000 N 
ATOM      4  H   UNL     1       1.077   9.983  17.861  0.00  0.00    +0.000 HD
ENDROOT
BRANCH   3   5
ATOM      5  C   UNL     1       0.826  10.829  19.745  0.00  0.00    +0.000 A 
ATOM      6  C   UNL     1       1.456  12.071  19.864  0.00  0.00    +0.000 A 
ATOM      7  C   UNL     1       1.017  13.021  20.793  0.00  0.00    +0.000 A 
ATOM      8  C   UNL     1      -0.070  12.737  21.623  0.00  0.00    +0.000 A 
ATOM      9  C   UNL     1      -0.739  11.513  21.479  0.00  0.00    +0.000 A 
ATOM     10  C   UNL     1      -0.297  10.572  20.538  0.00  0.00    +0.000 A 
BRANCH   8  11
ATOM     11  N   UNL     1      -0.486  13.657  22.613  0.00  0.00    +0.000 N 
ATOM     12  C   UNL     1      -1.613  13.642  23.401  0.00  0.00    +0.000 A 
ATOM     13  N   UNL     1      -1.636  14.717  24.152  0.00  0.00    +0.000 NA
ATOM     14  N   UNL     1      -0.505  15.418  23.829  0.00  0.00    +0.000 NA
ATOM     15  N   UNL     1       0.205  14.781  22.908  0.00  0.00    +0.000 NA
ENDBRANCH   8  11
ENDBRANCH   3   5
BRANCH   2  16
ATOM     16  C   UNL     1       2.341   7.793  18.031  0.00  0.00    +0.000 C 
BRANCH  16  17
ATOM     17  O   UNL     1       3.419   6.986  18.465  0.00  0.00    +0.000 OA
BRANCH  17  18
ATOM     18  C   UNL     1       4.010   6.146  17.548  0.00  0.00    +0.000 A 
ATOM     19  C   UNL     1       4.846   6.606  16.515  0.00  0.00    +0.000 A 
ATOM     20  C   UNL     1       5.422   5.724  15.603  0.00  0.00    +0.000 A 
ATOM     21  C   UNL     1       5.197   4.363  15.724  0.00  0.00    +0.000 A 
ATOM     22  C   UNL     1       4.390   3.886  16.757  0.00  0.00    +0.000 A 
ATOM     23  C   UNL     1       3.758   4.755  17.680  0.00  0.00    +0.000 A 
BRANCH  23  24
ATOM     24  C   UNL     1       2.824   4.181  18.690  0.00  0.00    +0.000 A 
ATOM     25  C   UNL     1       1.566   3.648  18.349  0.00  0.00    +0.000 A 
ATOM     26  C   UNL     1       0.737   3.043  19.303  0.00  0.00    +0.000 A 
ATOM     27  C   UNL     1       1.125   2.994  20.637  0.00  0.00    +0.000 A 
ATOM     28  C   UNL     1       2.341   3.550  21.017  0.00  0.00    +0.000 A 
ATOM     29  C   UNL     1       3.178   4.131  20.056  0.00  0.00    +0.000 A 
ENDBRANCH  23  24
ENDBRANCH  17  18
ENDBRANCH  16  17
ENDBRANCH   2  16
TORSDOF 6
ENDMDL
