MODEL 1
REMARK VINA RESULT:      -8.5      0.000      0.000
REMARK  Name = 
REMARK  2 active torsions:
REMARK  status: ('A' for Active; 'I' for Inactive)
REMARK    1  A    between atoms: C_2  and  C_14
REMARK    2  A    between atoms: C_17  and  C_18
REMARK                            x       y       z     vdW  Elec       q    Type
REMARK                         _______ _______ _______ _____ _____    ______ ____
ROOT
ATOM      1  O   UNL     1       2.552   6.477  19.753  0.00  0.00    +0.000 OA
ATOM      2  C   UNL     1       2.829   7.064  18.709  0.00  0.00    +0.000 C 
ATOM      3  N   UNL     1       2.373   8.301  18.297  0.00  0.00    +0.000 N 
ATOM      4  C   UNL     1       1.520   9.087  19.092  0.00  0.00    +0.000 A 
ATOM      5  C   UNL     1       0.809  10.117  18.493  0.00  0.00    +0.000 A 
ATOM      6  C   UNL     1      -0.092  10.844  19.272  0.00  0.00    +0.000 A 
ATOM      7  C   UNL     1      -0.234  10.550  20.636  0.00  0.00    +0.000 A 
ATOM      8  C   UNL     1      -1.118  11.249  21.477  0.00  0.00    +0.000 A 
ATOM      9  C   UNL     1      -1.202  10.929  22.833  0.00  0.00    +0.000 A 
ATOM     10  C   UNL     1      -0.410   9.909  23.352  0.00  0.00    +0.000 A 
ATOM     11  C   UNL     1       0.455   9.211  22.509  0.00  0.00    +0.000 A 
ATOM     12  C   UNL     1       0.558   9.516  21.160  0.00  0.00    +0.000 A 
ATOM     13  N   UNL     1       1.407   8.812  20.402  0.00  0.00    +0.000 NA
ATOM     14  H   UNL     1       2.515   8.595  17.343  0.00  0.00    +0.000 HD
ENDROOT
BRANCH   2  15
ATOM     15  C   UNL     1       3.675   6.315  17.764  0.00  0.00    +0.000 A 
ATOM     16  C   UNL     1       4.522   7.027  16.914  0.00  0.00    +0.000 A 
ATOM     17  C   UNL     1       5.244   6.356  15.934  0.00  0.00    +0.000 A 
ATOM     18  C   UNL     1       5.106   4.971  15.820  0.00  0.00    +0.000 A 
ATOM     19  N   UNL     1       4.297   4.258  16.666  0.00  0.00    +0.000 NA
ATOM     20  C   UNL     1       3.593   4.944  17.602  0.00  0.00    +0.000 A 
BRANCH  18  21
ATOM     21  C   UNL     1       5.846   4.237  14.705  0.00  0.00    +0.000 C 
ATOM     22  F   UNL     1       6.247   2.980  15.062  0.00  0.00    +0.000 F 
ATOM     23  F   UNL     1       5.093   4.072  13.581  0.00  0.00    +0.000 F 
ATOM     24  F   UNL     1       6.984   4.878  14.309  0.00  0.00    +0.000 F 
ENDBRANCH  18  21
ENDBRANCH   2  15
TORSDOF 2
ENDMDL
MODEL 2
REMARK VINA RESULT:      -8.3      0.734      1.401
REMARK  Name = 
REMARK  2 active torsions:
REMARK  status: ('A' for Active; 'I' for Inactive)
REMARK    1  A    between atoms: C_2  and  C_14
REMARK    2  A    between atoms: C_17  and  C_18
REMARK                            x       y       z     vdW  Elec       q    Type
REMARK                         _______ _______ _______ _____ _____    ______ ____
ROOT
ATOM      1  O   UNL     1       2.225   6.615  19.734  0.00  0.00    +0.000 OA
ATOM      2  C   UNL     1       2.572   7.220  18.721  0.00  0.00    +0.000 C 
ATOM      3  N   UNL     1       2.200   8.494  18.337  0.00  0.00    +0.000 N 
ATOM      4  C   UNL     1       1.364   9.300  19.129  0.00  0.00    +0.000 A 
ATOM      5  C   UNL     1       0.732  10.387  18.542  0.00  0.00    +0.000 A 
ATOM      6  C   UNL     1      -0.155  11.138  19.315  0.00  0.00    +0.000 A 
ATOM      7  C   UNL     1      -0.361  10.808  20.662  0.00  0.00    +0.000 A 
ATOM      8  C   UNL     1      -1.236  11.528  21.496  0.00  0.00    +0.000 A 
ATOM      9  C   UNL     1      -1.386  11.168  22.837  0.00  0.00    +0.000 A 
ATOM     10  C   UNL     1      -0.671  10.089  23.346  0.00  0.00    +0.000 A 
ATOM     11  C   UNL     1       0.184   9.370  22.510  0.00  0.00    +0.000 A 
ATOM     12  C   UNL     1       0.353   9.713  21.176  0.00  0.00    +0.000 A 
ATOM     13  N   UNL     1       1.188   8.989  20.424  0.00  0.00    +0.000 NA
ATOM     14  H   UNL     1       2.392   8.810  17.399  0.00  0.00    +0.000 HD
ENDROOT
BRANCH   2  15
ATOM     15  C   UNL     1       3.409   6.455  17.780  0.00  0.00    +0.000 A 
ATOM     16  C   UNL     1       3.311   5.062  17.776  0.00  0.00    +0.000 A 
ATOM     17  C   UNL     1       4.171   4.310  16.984  0.00  0.00    +0.000 A 
ATOM     18  C   UNL     1       5.121   4.969  16.201  0.00  0.00    +0.000 A 
ATOM     19  N   UNL     1       5.208   6.337  16.177  0.00  0.00    +0.000 NA
ATOM     20  C   UNL     1       4.366   7.043  16.974  0.00  0.00    +0.000 A 
BRANCH  18  21
ATOM     21  C   UNL     1       6.109   4.146  15.379  0.00  0.00    +0.000 C 
ATOM     22  F   UNL     1       6.010   4.374  14.034  0.00  0.00    +0.000 F 
ATOM     23  F   UNL     1       7.410   4.400  15.694  0.00  0.00    +0.000 F 
ATOM     24  F   UNL     1       5.937   2.801  15.529  0.00  0.00    +0.000 F 
ENDBRANCH  18  21
ENDBRANCH   2  15
TORSDOF 2
ENDMDL
MODEL 3
REMARK VINA RESULT:      -8.1      5.698      9.212
REMARK  Name = 
REMARK  2 active torsions:
REMARK  status: ('A' for Active; 'I' for Inactive)
REMARK    1  A    between atoms: C_2  and  C_14
REMARK    2  A    between atoms: C_17  and  C_18
REMARK                            x       y       z     vdW  Elec       q    Type
REMARK                         _______ _______ _______ _____ _____    ______ ____
ROOT
ATOM      1  O   UNL     1       1.553   8.995  19.071  0.00  0.00    +0.000 OA
ATOM      2  C   UNL     1       1.255   8.677  20.220  0.00  0.00    +0.000 C 
ATOM      3  N   UNL     1       1.475   7.459  20.836  0.00  0.00    +0.000 N 
ATOM      4  C   UNL     1       2.137   6.402  20.189  0.00  0.00    +0.000 A 
ATOM      5  C   UNL     1       2.000   5.117  20.696  0.00  0.00    +0.000 A 
ATOM      6  C   UNL     1       2.598   4.062  20.005  0.00  0.00    +0.000 A 
ATOM      7  C   UNL     1       3.346   4.319  18.848  0.00  0.00    +0.000 A 
ATOM      8  C   UNL     1       3.978   3.302  18.109  0.00  0.00    +0.000 A 
ATOM      9  C   UNL     1       4.729   3.617  16.976  0.00  0.00    +0.000 A 
ATOM     10  C   UNL     1       4.847   4.944  16.573  0.00  0.00    +0.000 A 
ATOM     11  C   UNL     1       4.206   5.946  17.301  0.00  0.00    +0.000 A 
ATOM     12  C   UNL     1       3.459   5.656  18.434  0.00  0.00    +0.000 A 
ATOM     13  N   UNL     1       2.868   6.659  19.092  0.00  0.00    +0.000 NA
ATOM     14  H   UNL     1       1.019   7.252  21.712  0.00  0.00    +0.000 HD
ENDROOT
BRANCH   2  15
ATOM     15  C   UNL     1       0.504   9.687  20.985  0.00  0.00    +0.000 A 
ATOM     16  C   UNL     1       0.089   9.375  22.281  0.00  0.00    +0.000 A 
ATOM     17  C   UNL     1      -0.719  10.261  22.982  0.00  0.00    +0.000 A 
ATOM     18  C   UNL     1      -1.104  11.456  22.371  0.00  0.00    +0.000 A 
ATOM     19  N   UNL     1      -0.681  11.785  21.109  0.00  0.00    +0.000 NA
ATOM     20  C   UNL     1       0.094  10.892  20.444  0.00  0.00    +0.000 A 
BRANCH  18  21
ATOM     21  C   UNL     1      -2.044  12.404  23.112  0.00  0.00    +0.000 C 
ATOM     22  F   UNL     1      -2.784  13.191  22.274  0.00  0.00    +0.000 F 
ATOM     23  F   UNL     1      -2.951  11.753  23.894  0.00  0.00    +0.000 F 
ATOM     24  F   UNL     1      -1.387  13.273  23.933  0.00  0.00    +0.000 F 
ENDBRANCH  18  21
ENDBRANCH   2  15
TORSDOF 2
ENDMDL
MODEL 4
REMARK VINA RESULT:      -8.1      5.370      9.045
REMARK  Name = 
REMARK  2 active torsions:
REMARK  status: ('A' for Active; 'I' for Inactive)
REMARK    1  A    between atoms: C_2  and  C_14
REMARK    2  A    between atoms: C_17  and  C_18
REMARK                            x       y       z     vdW  Elec       q    Type
REMARK                         _______ _______ _______ _____ _____    ______ ____
ROOT
ATOM      1  O   UNL     1       2.030   9.042  18.381  0.00  0.00    +0.000 OA
ATOM      2  C   UNL     1       1.791   8.599  19.502  0.00  0.00    +0.000 C 
ATOM      3  N   UNL     1       2.119   7.352  19.997  0.00  0.00    +0.000 N 
ATOM      4  C   UNL     1       2.838   6.411  19.239  0.00  0.00    +0.000 A 
ATOM      5  C   UNL     1       2.812   5.079  19.628  0.00  0.00    +0.000 A 
ATOM      6  C   UNL     1       3.465   4.140  18.829  0.00  0.00    +0.000 A 
ATOM      7  C   UNL     1       4.157   4.557  17.683  0.00  0.00    +0.000 A 
ATOM      8  C   UNL     1       4.840   3.663  16.839  0.00  0.00    +0.000 A 
ATOM      9  C   UNL     1       5.531   4.136  15.723  0.00  0.00    +0.000 A 
ATOM     10  C   UNL     1       5.538   5.499  15.442  0.00  0.00    +0.000 A 
ATOM     11  C   UNL     1       4.847   6.379  16.275  0.00  0.00    +0.000 A 
ATOM     12  C   UNL     1       4.158   5.931  17.392  0.00  0.00    +0.000 A 
ATOM     13  N   UNL     1       3.515   6.822  18.155  0.00  0.00    +0.000 NA
ATOM     14  H   UNL     1       1.707   7.031  20.860  0.00  0.00    +0.000 HD
ENDROOT
BRANCH   2  15
ATOM     15  C   UNL     1       0.991   9.476  20.374  0.00  0.00    +0.000 A 
ATOM     16  C   UNL     1       0.615   9.005  21.634  0.00  0.00    +0.000 A 
ATOM     17  C   UNL     1      -0.236   9.761  22.431  0.00  0.00    +0.000 A 
ATOM     18  C   UNL     1      -0.702  10.987  21.951  0.00  0.00    +0.000 A 
ATOM     19  N   UNL     1      -0.319  11.471  20.727  0.00  0.00    +0.000 NA
ATOM     20  C   UNL     1       0.500  10.702  19.966  0.00  0.00    +0.000 A 
BRANCH  18  21
ATOM     21  C   UNL     1      -1.687  11.792  22.794  0.00  0.00    +0.000 C 
ATOM     22  F   UNL     1      -2.650  12.414  22.049  0.00  0.00    +0.000 F 
ATOM     23  F   UNL     1      -2.365  11.029  23.698  0.00  0.00    +0.000 F 
ATOM     24  F   UNL     1      -1.088  12.787  23.510  0.00  0.00    +0.000 F 
ENDBRANCH  18  21
ENDBRANCH   2  15
TORSDOF 2
ENDMDL
MODEL 5
REMARK VINA RESULT:      -8.0      1.421      2.407
REMARK  Name = 
REMARK  2 active torsions:
REMARK  status: ('A' for Active; 'I' for Inactive)
REMARK    1  A    between atoms: C_2  and  C_14
REMARK    2  A    between atoms: C_17  and  C_18
REMARK                            x       y       z     vdW  Elec       q    Type
REMARK                         _______ _______ _______ _____ _____    ______ ____
ROOT
ATOM      1  O   UNL     1       2.287   8.953  17.491  0.00  0.00    +0.000 OA
ATOM      2  C   UNL     1       2.614   7.968  18.150  0.00  0.00    +0.000 C 
ATOM      3  N   UNL     1       2.265   7.680  19.455  0.00  0.00    +0.000 N 
ATOM      4  C   UNL     1       1.417   8.514  20.205  0.00  0.00    +0.000 A 
ATOM      5  C   UNL     1       1.404   8.385  21.586  0.00  0.00    +0.000 A 
ATOM      6  C   UNL     1       0.616   9.267  22.329  0.00  0.00    +0.000 A 
ATOM      7  C   UNL     1      -0.165  10.229  21.673  0.00  0.00    +0.000 A 
ATOM      8  C   UNL     1      -0.984  11.141  22.362  0.00  0.00    +0.000 A 
ATOM      9  C   UNL     1      -1.759  12.064  21.656  0.00  0.00    +0.000 A 
ATOM     10  C   UNL     1      -1.714  12.083  20.266  0.00  0.00    +0.000 A 
ATOM     11  C   UNL     1      -0.888  11.185  19.589  0.00  0.00    +0.000 A 
ATOM     12  C   UNL     1      -0.114  10.256  20.270  0.00  0.00    +0.000 A 
ATOM     13  N   UNL     1       0.656   9.419  19.567  0.00  0.00    +0.000 NA
ATOM     14  H   UNL     1       2.746   6.945  19.951  0.00  0.00    +0.000 HD
ENDROOT
BRANCH   2  15
ATOM     15  C   UNL     1       3.551   7.044  17.489  0.00  0.00    +0.000 A 
ATOM     16  C   UNL     1       3.527   5.695  17.847  0.00  0.00    +0.000 A 
ATOM     17  C   UNL     1       4.476   4.823  17.327  0.00  0.00    +0.000 A 
ATOM     18  C   UNL     1       5.443   5.319  16.449  0.00  0.00    +0.000 A 
ATOM     19  N   UNL     1       5.460   6.635  16.070  0.00  0.00    +0.000 NA
ATOM     20  C   UNL     1       4.531   7.466  16.607  0.00  0.00    +0.000 A 
BRANCH  18  21
ATOM     21  C   UNL     1       6.525   4.379  15.925  0.00  0.00    +0.000 C 
ATOM     22  F   UNL     1       7.171   4.864  14.821  0.00  0.00    +0.000 F 
ATOM     23  F   UNL     1       7.507   4.132  16.839  0.00  0.00    +0.000 F 
ATOM     24  F   UNL     1       6.039   3.160  15.551  0.00  0.00    +0.000 F 
ENDBRANCH  18  21
ENDBRANCH   2  15
TORSDOF 2
ENDMDL
MODEL 6
REMARK VINA RESULT:      -7.9      1.294      2.110
REMARK  Name = 
REMARK  2 active torsions:
REMARK  status: ('A' for Active; 'I' for Inactive)
REMARK    1  A    between atoms: C_2  and  C_14
REMARK    2  A    between atoms: C_17  and  C_18
REMARK                            x       y       z     vdW  Elec       q    Type
REMARK                         _______ _______ _______ _____ _____    ______ ____
ROOT
ATOM      1  O   UNL     1       2.018   8.921  17.836  0.00  0.00    +0.000 OA
ATOM      2  C   UNL     1       2.343   7.961  18.532  0.00  0.00    +0.000 C 
ATOM      3  N   UNL     1       2.014   7.736  19.855  0.00  0.00    +0.000 N 
ATOM      4  C   UNL     1       1.191   8.614  20.582  0.00  0.00    +0.000 A 
ATOM      5  C   UNL     1       1.201   8.546  21.967  0.00  0.00    +0.000 A 
ATOM      6  C   UNL     1       0.440   9.470  22.684  0.00  0.00    +0.000 A 
ATOM      7  C   UNL     1      -0.340  10.414  22.001  0.00  0.00    +0.000 A 
ATOM      8  C   UNL     1      -1.134  11.368  22.663  0.00  0.00    +0.000 A 
ATOM      9  C   UNL     1      -1.907  12.270  21.931  0.00  0.00    +0.000 A 
ATOM     10  C   UNL     1      -1.887  12.229  20.541  0.00  0.00    +0.000 A 
ATOM     11  C   UNL     1      -1.087  11.289  19.890  0.00  0.00    +0.000 A 
ATOM     12  C   UNL     1      -0.314  10.380  20.597  0.00  0.00    +0.000 A 
ATOM     13  N   UNL     1       0.432   9.501  19.918  0.00  0.00    +0.000 NA
ATOM     14  H   UNL     1       2.493   7.016  20.374  0.00  0.00    +0.000 HD
ENDROOT
BRANCH   2  15
ATOM     15  C   UNL     1       3.256   6.996  17.896  0.00  0.00    +0.000 A 
ATOM     16  C   UNL     1       4.295   7.480  17.099  0.00  0.00    +0.000 A 
ATOM     17  C   UNL     1       5.099   6.593  16.394  0.00  0.00    +0.000 A 
ATOM     18  C   UNL     1       4.848   5.223  16.497  0.00  0.00    +0.000 A 
ATOM     19  N   UNL     1       3.848   4.735  17.296  0.00  0.00    +0.000 NA
ATOM     20  C   UNL     1       3.070   5.627  17.960  0.00  0.00    +0.000 A 
BRANCH  18  21
ATOM     21  C   UNL     1       5.686   4.248  15.675  0.00  0.00    +0.000 C 
ATOM     22  F   UNL     1       7.028   4.505  15.740  0.00  0.00    +0.000 F 
ATOM     23  F   UNL     1       5.546   2.952  16.075  0.00  0.00    +0.000 F 
ATOM     24  F   UNL     1       5.380   4.271  14.345  0.00  0.00    +0.000 F 
ENDBRANCH  18  21
ENDBRANCH   2  15
TORSDOF 2
ENDMDL
MODEL 7
REMARK VINA RESULT:      -7.9      5.417      9.038
REMARK  Name = 
REMARK  2 active torsions:
REMARK  status: ('A' for Active; 'I' for Inactive)
REMARK    1  A    between atoms: C_2  and  C_14
REMARK    2  A    between atoms: C_17  and  C_18
REMARK                            x       y       z     vdW  Elec       q    Type
REMARK                         _______ _______ _______ _____ _____    ______ ____
ROOT
ATOM      1  O   UNL     1       1.801   9.010  18.376  0.00  0.00    +0.000 OA
ATOM      2  C   UNL     1       1.589   8.568  19.504  0.00  0.00    +0.000 C 
ATOM      3  N   UNL     1       2.009   7.358  20.022  0.00  0.00    +0.000 N 
ATOM      4  C   UNL     1       2.804   6.463  19.284  0.00  0.00    +0.000 A 
ATOM      5  C   UNL     1       2.878   5.140  19.694  0.00  0.00    +0.000 A 
ATOM      6  C   UNL     1       3.608   4.241  18.915  0.00  0.00    +0.000 A 
ATOM      7  C   UNL     1       4.274   4.692  17.766  0.00  0.00    +0.000 A 
ATOM      8  C   UNL     1       5.030   3.840  16.942  0.00  0.00    +0.000 A 
ATOM      9  C   UNL     1       5.691   4.347  15.822  0.00  0.00    +0.000 A 
ATOM     10  C   UNL     1       5.594   5.702  15.518  0.00  0.00    +0.000 A 
ATOM     11  C   UNL     1       4.831   6.539  16.332  0.00  0.00    +0.000 A 
ATOM     12  C   UNL     1       4.170   6.057  17.453  0.00  0.00    +0.000 A 
ATOM     13  N   UNL     1       3.455   6.908  18.196  0.00  0.00    +0.000 NA
ATOM     14  H   UNL     1       1.616   7.020  20.887  0.00  0.00    +0.000 HD
ENDROOT
BRANCH   2  15
ATOM     15  C   UNL     1       0.717   9.394  20.356  0.00  0.00    +0.000 A 
ATOM     16  C   UNL     1      -0.311  10.123  19.756  0.00  0.00    +0.000 A 
ATOM     17  C   UNL     1      -1.074  11.000  20.518  0.00  0.00    +0.000 A 
ATOM     18  C   UNL     1      -0.795  11.134  21.880  0.00  0.00    +0.000 A 
ATOM     19  N   UNL     1       0.195  10.404  22.484  0.00  0.00    +0.000 NA
ATOM     20  C   UNL     1       0.933   9.568  21.711  0.00  0.00    +0.000 A 
BRANCH  18  21
ATOM     21  C   UNL     1      -1.587  12.143  22.707  0.00  0.00    +0.000 C 
ATOM     22  F   UNL     1      -2.432  11.554  23.607  0.00  0.00    +0.000 F 
ATOM     23  F   UNL     1      -0.795  12.972  23.443  0.00  0.00    +0.000 F 
ATOM     24  F   UNL     1      -2.380  12.951  21.946  0.00  0.00    +0.000 F 
ENDBRANCH  18  21
ENDBRANCH   2  15
TORSDOF 2
ENDMDL
MODEL 8
REMARK VINA RESULT:      -7.8      5.678      9.180
REMARK  Name = 
REMARK  2 active torsions:
REMARK  status: ('A' for Active; 'I' for Inactive)
REMARK    1  A    between atoms: C_2  and  C_14
REMARK    2  A    between atoms: C_17  and  C_18
REMARK                            x       y       z     vdW  Elec       q    Type
REMARK                         _______ _______ _______ _____ _____    ______ ____
ROOT
ATOM      1  O   UNL     1       1.443   9.042  19.016  0.00  0.00    +0.000 OA
ATOM      2  C   UNL     1       1.166   8.689  20.161  0.00  0.00    +0.000 C 
ATOM      3  N   UNL     1       1.477   7.486  20.765  0.00  0.00    +0.000 N 
ATOM      4  C   UNL     1       2.221   6.490  20.109  0.00  0.00    +0.000 A 
ATOM      5  C   UNL     1       2.183   5.193  20.601  0.00  0.00    +0.000 A 
ATOM      6  C   UNL     1       2.863   4.196  19.901  0.00  0.00    +0.000 A 
ATOM      7  C   UNL     1       3.594   4.522  18.750  0.00  0.00    +0.000 A 
ATOM      8  C   UNL     1       4.306   3.566  18.004  0.00  0.00    +0.000 A 
ATOM      9  C   UNL     1       5.035   3.951  16.878  0.00  0.00    +0.000 A 
ATOM     10  C   UNL     1       5.051   5.287  16.490  0.00  0.00    +0.000 A 
ATOM     11  C   UNL     1       4.331   6.229  17.226  0.00  0.00    +0.000 A 
ATOM     12  C   UNL     1       3.604   5.869  18.352  0.00  0.00    +0.000 A 
ATOM     13  N   UNL     1       2.935   6.816  19.018  0.00  0.00    +0.000 NA
ATOM     14  H   UNL     1       1.035   7.233  21.635  0.00  0.00    +0.000 HD
ENDROOT
BRANCH   2  15
ATOM     15  C   UNL     1       0.336   9.630  20.933  0.00  0.00    +0.000 A 
ATOM     16  C   UNL     1      -0.477  10.530  20.241  0.00  0.00    +0.000 A 
ATOM     17  C   UNL     1      -1.181  11.505  20.938  0.00  0.00    +0.000 A 
ATOM     18  C   UNL     1      -1.059  11.564  22.328  0.00  0.00    +0.000 A 
ATOM     19  N   UNL     1      -0.286  10.669  23.020  0.00  0.00    +0.000 NA
ATOM     20  C   UNL     1       0.402   9.739  22.310  0.00  0.00    +0.000 A 
BRANCH  18  21
ATOM     21  C   UNL     1      -1.779  12.672  23.092  0.00  0.00    +0.000 C 
ATOM     22  F   UNL     1      -0.943  13.411  23.882  0.00  0.00    +0.000 F 
ATOM     23  F   UNL     1      -2.395  13.573  22.274  0.00  0.00    +0.000 F 
ATOM     24  F   UNL     1      -2.745  12.200  23.933  0.00  0.00    +0.000 F 
ENDBRANCH  18  21
ENDBRANCH   2  15
TORSDOF 2
ENDMDL
MODEL 9
REMARK VINA RESULT:      -7.7      1.531      2.620
REMARK  Name = 
REMARK  2 active torsions:
REMARK  status: ('A' for Active; 'I' for Inactive)
REMARK    1  A    between atoms: C_2  and  C_14
REMARK    2  A    between atoms: C_17  and  C_18
REMARK                            x       y       z     vdW  Elec       q    Type
REMARK                         _______ _______ _______ _____ _____    ______ ____
ROOT
ATOM      1  O   UNL     1       1.678   9.252  18.456  0.00  0.00    +0.000 OA
ATOM      2  C   UNL     1       1.847   8.273  19.180  0.00  0.00    +0.000 C 
ATOM      3  N   UNL     1       1.377   8.093  20.467  0.00  0.00    +0.000 N 
ATOM      4  C   UNL     1       0.577   9.051  21.113  0.00  0.00    +0.000 A 
ATOM      5  C   UNL     1       0.452   8.997  22.494  0.00  0.00    +0.000 A 
ATOM      6  C   UNL     1      -0.282   9.995  23.135  0.00  0.00    +0.000 A 
ATOM      7  C   UNL     1      -0.903  11.001  22.381  0.00  0.00    +0.000 A 
ATOM      8  C   UNL     1      -1.662  12.031  22.966  0.00  0.00    +0.000 A 
ATOM      9  C   UNL     1      -2.277  12.994  22.164  0.00  0.00    +0.000 A 
ATOM     10  C   UNL     1      -2.132  12.936  20.781  0.00  0.00    +0.000 A 
ATOM     11  C   UNL     1      -1.367  11.920  20.209  0.00  0.00    +0.000 A 
ATOM     12  C   UNL     1      -0.751  10.949  20.986  0.00  0.00    +0.000 A 
ATOM     13  N   UNL     1      -0.032   9.999  20.381  0.00  0.00    +0.000 NA
ATOM     14  H   UNL     1       1.737   7.337  21.030  0.00  0.00    +0.000 HD
ENDROOT
BRANCH   2  15
ATOM     15  C   UNL     1       2.719   7.220  18.633  0.00  0.00    +0.000 A 
ATOM     16  C   UNL     1       3.597   7.549  17.598  0.00  0.00    +0.000 A 
ATOM     17  C   UNL     1       4.347   6.553  16.983  0.00  0.00    +0.000 A 
ATOM     18  C   UNL     1       4.206   5.233  17.418  0.00  0.00    +0.000 A 
ATOM     19  N   UNL     1       3.367   4.903  18.451  0.00  0.00    +0.000 NA
ATOM     20  C   UNL     1       2.636   5.895  19.019  0.00  0.00    +0.000 A 
BRANCH  18  21
ATOM     21  C   UNL     1       4.979   4.127  16.705  0.00  0.00    +0.000 C 
ATOM     22  F   UNL     1       6.304   4.095  17.040  0.00  0.00    +0.000 F 
ATOM     23  F   UNL     1       4.505   2.879  16.982  0.00  0.00    +0.000 F 
ATOM     24  F   UNL     1       4.955   4.250  15.346  0.00  0.00    +0.000 F 
ENDBRANCH  18  21
ENDBRANCH   2  15
TORSDOF 2
ENDMDL
