MODEL 1
REMARK VINA RESULT:      -9.1      0.000      0.000
REMARK  Name = 
REMARK  5 active torsions:
REMARK  status: ('A' for Active; 'I' for Inactive)
REMARK    1  A    between atoms: C_1  and  N_2
REMARK    2  A    between atoms: N_2  and  C_3
REMARK    3  A    between atoms: C_3  and  C_4
REMARK    4  A    between atoms: C_14  and  C_16
REMARK    5  A    between atoms: C_19  and  N_20
REMARK                            x       y       z     vdW  Elec       q    Type
REMARK                         _______ _______ _______ _____ _____    ______ ____
ROOT
ATOM      1  C   UNL     1      -0.935  12.812  18.277  0.00  0.00    +0.000 C 
ATOM      2  N   UNL     1      -0.609  11.401  18.441  0.00  0.00    +0.000 N 
ATOM      3  C   UNL     1       0.630  11.136  19.053  0.00  0.00    +0.000 C 
ATOM      4  O   UNL     1       1.356  12.031  19.489  0.00  0.00    +0.000 OA
ENDROOT
BRANCH   3   5
ATOM      5  C   UNL     1       1.153   9.743  19.139  0.00  0.00    +0.000 A 
ATOM      6  C   UNL     1       1.734   9.164  18.018  0.00  0.00    +0.000 A 
ATOM      7  C   UNL     1       2.242   7.882  18.073  0.00  0.00    +0.000 A 
ATOM      8  C   UNL     1       2.292   7.199  19.292  0.00  0.00    +0.000 A 
ATOM      9  C   UNL     1       1.752   7.756  20.451  0.00  0.00    +0.000 A 
ATOM     10  C   UNL     1       1.183   9.045  20.363  0.00  0.00    +0.000 A 
BRANCH   8  11
ATOM     11  N   UNL     1       2.974   5.958  19.256  0.00  0.00    +0.000 N 
ATOM     12  C   UNL     1       4.046   5.760  18.402  0.00  0.00    +0.000 A 
ATOM     13  N   UNL     1       3.992   4.596  17.795  0.00  0.00    +0.000 NA
ATOM     14  C   UNL     1       2.913   3.972  18.356  0.00  0.00    +0.000 A 
ATOM     15  C   UNL     1       2.318   2.759  17.990  0.00  0.00    +0.000 A 
ATOM     16  C   UNL     1       1.241   2.286  18.743  0.00  0.00    +0.000 A 
ATOM     17  C   UNL     1       0.789   2.991  19.861  0.00  0.00    +0.000 A 
ATOM     18  C   UNL     1       1.330   4.237  20.209  0.00  0.00    +0.000 A 
ATOM     19  C   UNL     1       2.367   4.722  19.404  0.00  0.00    +0.000 A 
ENDBRANCH   8  11
ENDBRANCH   3   5
BRANCH   2  20
ATOM     20  C   UNL     1      -1.738  10.453  18.390  0.00  0.00    +0.000 C 
BRANCH  20  21
ATOM     21  C   UNL     1      -3.080  11.052  17.987  0.00  0.00    +0.000 A 
ATOM     22  C   UNL     1      -3.538  11.081  16.659  0.00  0.00    +0.000 A 
ATOM     23  C   UNL     1      -4.775  11.644  16.335  0.00  0.00    +0.000 A 
ATOM     24  C   UNL     1      -5.575  12.207  17.327  0.00  0.00    +0.000 A 
ATOM     25  C   UNL     1      -5.149  12.160  18.657  0.00  0.00    +0.000 A 
ATOM     26  C   UNL     1      -3.907  11.611  18.979  0.00  0.00    +0.000 A 
ATOM     27  O   UNL     1      -5.904  12.645  19.698  0.00  0.00    +0.000 OA
ATOM     28  C   UNL     1      -7.258  12.904  19.302  0.00  0.00    +0.000 C 
ATOM     29  C   UNL     1      -7.298  13.609  17.955  0.00  0.00    +0.000 C 
ATOM     30  O   UNL     1      -6.755  12.766  16.934  0.00  0.00    +0.000 OA
ENDBRANCH  20  21
ENDBRANCH   2  20
TORSDOF 4
ENDMDL
MODEL 2
REMARK VINA RESULT:      -9.1      3.968     10.049
REMARK  Name = 
REMARK  5 active torsions:
REMARK  status: ('A' for Active; 'I' for Inactive)
REMARK    1  A    between atoms: C_1  and  N_2
REMARK    2  A    between atoms: N_2  and  C_3
REMARK    3  A    between atoms: C_3  and  C_4
REMARK    4  A    between atoms: C_14  and  C_16
REMARK    5  A    between atoms: C_19  and  N_20
REMARK                            x       y       z     vdW  Elec       q    Type
REMARK                         _______ _______ _______ _____ _____    ______ ____
ROOT
ATOM      1  C   UNL     1       3.676   2.750  19.888  0.00  0.00    +0.000 C 
ATOM      2  N   UNL     1       3.621   4.195  19.703  0.00  0.00    +0.000 N 
ATOM      3  C   UNL     1       2.356   4.779  19.904  0.00  0.00    +0.000 C 
ATOM      4  O   UNL     1       1.381   4.129  20.285  0.00  0.00    +0.000 OA
ENDROOT
BRANCH   3   5
ATOM      5  C   UNL     1       2.127   6.219  19.595  0.00  0.00    +0.000 A 
ATOM      6  C   UNL     1       2.295   6.670  18.292  0.00  0.00    +0.000 A 
ATOM      7  C   UNL     1       2.073   7.994  17.973  0.00  0.00    +0.000 A 
ATOM      8  C   UNL     1       1.554   8.870  18.932  0.00  0.00    +0.000 A 
ATOM      9  C   UNL     1       1.336   8.451  20.244  0.00  0.00    +0.000 A 
ATOM     10  C   UNL     1       1.625   7.107  20.567  0.00  0.00    +0.000 A 
BRANCH   8  11
ATOM     11  N   UNL     1       1.222  10.159  18.449  0.00  0.00    +0.000 N 
ATOM     12  C   UNL     1       1.981  11.265  18.795  0.00  0.00    +0.000 A 
ATOM     13  N   UNL     1       1.239  12.301  19.113  0.00  0.00    +0.000 NA
ATOM     14  C   UNL     1      -0.040  11.890  18.856  0.00  0.00    +0.000 A 
ATOM     15  C   UNL     1      -1.242  12.550  19.139  0.00  0.00    +0.000 A 
ATOM     16  C   UNL     1      -2.442  11.958  18.741  0.00  0.00    +0.000 A 
ATOM     17  C   UNL     1      -2.443  10.748  18.042  0.00  0.00    +0.000 A 
ATOM     18  C   UNL     1      -1.256  10.041  17.802  0.00  0.00    +0.000 A 
ATOM     19  C   UNL     1      -0.070  10.623  18.265  0.00  0.00    +0.000 A 
ENDBRANCH   8  11
ENDBRANCH   3   5
BRANCH   2  20
ATOM     20  C   UNL     1       4.902   4.920  19.783  0.00  0.00    +0.000 C 
BRANCH  20  21
ATOM     21  C   UNL     1       5.657   5.068  18.468  0.00  0.00    +0.000 A 
ATOM     22  C   UNL     1       6.802   5.871  18.329  0.00  0.00    +0.000 A 
ATOM     23  C   UNL     1       7.460   5.980  17.101  0.00  0.00    +0.000 A 
ATOM     24  C   UNL     1       6.980   5.305  15.981  0.00  0.00    +0.000 A 
ATOM     25  C   UNL     1       5.860   4.479  16.108  0.00  0.00    +0.000 A 
ATOM     26  C   UNL     1       5.194   4.381  17.331  0.00  0.00    +0.000 A 
ATOM     27  O   UNL     1       5.358   3.739  15.064  0.00  0.00    +0.000 OA
ATOM     28  C   UNL     1       6.275   3.678  13.963  0.00  0.00    +0.000 C 
ATOM     29  C   UNL     1       6.878   5.046  13.689  0.00  0.00    +0.000 C 
ATOM     30  O   UNL     1       7.655   5.483  14.809  0.00  0.00    +0.000 OA
ENDBRANCH  20  21
ENDBRANCH   2  20
TORSDOF 4
ENDMDL
MODEL 3
REMARK VINA RESULT:      -9.1      4.569     10.299
REMARK  Name = 
REMARK  5 active torsions:
REMARK  status: ('A' for Active; 'I' for Inactive)
REMARK    1  A    between atoms: C_1  and  N_2
REMARK    2  A    between atoms: N_2  and  C_3
REMARK    3  A    between atoms: C_3  and  C_4
REMARK    4  A    between atoms: C_14  and  C_16
REMARK    5  A    between atoms: C_19  and  N_20
REMARK                            x       y       z     vdW  Elec       q    Type
REMARK                         _______ _______ _______ _____ _____    ______ ____
ROOT
ATOM      1  C   UNL     1       3.379   1.548  18.306  0.00  0.00    +0.000 C 
ATOM      2  N   UNL     1       3.359   2.943  18.727  0.00  0.00    +0.000 N 
ATOM      3  C   UNL     1       2.105   3.430  19.139  0.00  0.00    +0.000 C 
ATOM      4  O   UNL     1       1.108   2.709  19.211  0.00  0.00    +0.000 OA
ENDROOT
BRANCH   3   5
ATOM      5  C   UNL     1       1.914   4.876  19.443  0.00  0.00    +0.000 A 
ATOM      6  C   UNL     1       1.374   5.248  20.668  0.00  0.00    +0.000 A 
ATOM      7  C   UNL     1       1.201   6.580  20.985  0.00  0.00    +0.000 A 
ATOM      8  C   UNL     1       1.686   7.573  20.129  0.00  0.00    +0.000 A 
ATOM      9  C   UNL     1       2.268   7.246  18.904  0.00  0.00    +0.000 A 
ATOM     10  C   UNL     1       2.382   5.878  18.570  0.00  0.00    +0.000 A 
BRANCH   8  11
ATOM     11  N   UNL     1       1.592   8.895  20.629  0.00  0.00    +0.000 N 
ATOM     12  C   UNL     1       1.618   9.143  21.991  0.00  0.00    +0.000 A 
ATOM     13  N   UNL     1       0.712  10.022  22.355  0.00  0.00    +0.000 NA
ATOM     14  C   UNL     1       0.157  10.442  21.178  0.00  0.00    +0.000 A 
ATOM     15  C   UNL     1      -0.947  11.280  20.983  0.00  0.00    +0.000 A 
ATOM     16  C   UNL     1      -1.312  11.617  19.678  0.00  0.00    +0.000 A 
ATOM     17  C   UNL     1      -0.568  11.156  18.588  0.00  0.00    +0.000 A 
ATOM     18  C   UNL     1       0.505  10.269  18.758  0.00  0.00    +0.000 A 
ATOM     19  C   UNL     1       0.814   9.894  20.070  0.00  0.00    +0.000 A 
ENDBRANCH   8  11
ENDBRANCH   3   5
BRANCH   2  20
ATOM     20  C   UNL     1       4.655   3.535  19.109  0.00  0.00    +0.000 C 
BRANCH  20  21
ATOM     21  C   UNL     1       5.530   4.002  17.953  0.00  0.00    +0.000 A 
ATOM     22  C   UNL     1       6.710   4.743  18.136  0.00  0.00    +0.000 A 
ATOM     23  C   UNL     1       7.479   5.154  17.044  0.00  0.00    +0.000 A 
ATOM     24  C   UNL     1       7.080   4.849  15.745  0.00  0.00    +0.000 A 
ATOM     25  C   UNL     1       5.926   4.086  15.546  0.00  0.00    +0.000 A 
ATOM     26  C   UNL     1       5.149   3.689  16.635  0.00  0.00    +0.000 A 
ATOM     27  O   UNL     1       5.496   3.699  14.299  0.00  0.00    +0.000 OA
ATOM     28  C   UNL     1       6.506   3.895  13.300  0.00  0.00    +0.000 C 
ATOM     29  C   UNL     1       7.177   5.248  13.473  0.00  0.00    +0.000 C 
ATOM     30  O   UNL     1       7.864   5.308  14.727  0.00  0.00    +0.000 OA
ENDBRANCH  20  21
ENDBRANCH   2  20
TORSDOF 4
ENDMDL
MODEL 4
REMARK VINA RESULT:      -8.9      4.340     10.179
REMARK  Name = 
REMARK  5 active torsions:
REMARK  status: ('A' for Active; 'I' for Inactive)
REMARK    1  A    between atoms: C_1  and  N_2
REMARK    2  A    between atoms: N_2  and  C_3
REMARK    3  A    between atoms: C_3  and  C_4
REMARK    4  A    between atoms: C_14  and  C_16
REMARK    5  A    between atoms: C_19  and  N_20
REMARK                            x       y       z     vdW  Elec       q    Type
REMARK                         _______ _______ _______ _____ _____    ______ ____
ROOT
ATOM      1  C   UNL     1       3.208   1.601  18.523  0.00  0.00    +0.000 C 
ATOM      2  N   UNL     1       3.287   3.002  18.914  0.00  0.00    +0.000 N 
ATOM      3  C   UNL     1       2.069   3.588  19.306  0.00  0.00    +0.000 C 
ATOM      4  O   UNL     1       1.022   2.942  19.388  0.00  0.00    +0.000 OA
ENDROOT
BRANCH   3   5
ATOM      5  C   UNL     1       1.982   5.050  19.579  0.00  0.00    +0.000 A 
ATOM      6  C   UNL     1       2.262   5.950  18.558  0.00  0.00    +0.000 A 
ATOM      7  C   UNL     1       2.173   7.310  18.776  0.00  0.00    +0.000 A 
ATOM      8  C   UNL     1       1.676   7.795  19.990  0.00  0.00    +0.000 A 
ATOM      9  C   UNL     1       1.349   6.926  21.031  0.00  0.00    +0.000 A 
ATOM     10  C   UNL     1       1.503   5.540  20.810  0.00  0.00    +0.000 A 
BRANCH   8  11
ATOM     11  N   UNL     1       1.484   9.197  20.042  0.00  0.00    +0.000 N 
ATOM     12  C   UNL     1       1.673   9.897  21.222  0.00  0.00    +0.000 A 
ATOM     13  N   UNL     1       0.722  10.778  21.438  0.00  0.00    +0.000 NA
ATOM     14  C   UNL     1      -0.046  10.728  20.307  0.00  0.00    +0.000 A 
ATOM     15  C   UNL     1      -1.267  11.364  20.053  0.00  0.00    +0.000 A 
ATOM     16  C   UNL     1      -1.856  11.207  18.797  0.00  0.00    +0.000 A 
ATOM     17  C   UNL     1      -1.224  10.458  17.801  0.00  0.00    +0.000 A 
ATOM     18  C   UNL     1      -0.032   9.763  18.054  0.00  0.00    +0.000 A 
ATOM     19  C   UNL     1       0.509   9.885  19.339  0.00  0.00    +0.000 A 
ENDBRANCH   8  11
ENDBRANCH   3   5
BRANCH   2  20
ATOM     20  C   UNL     1       4.620   3.508  19.291  0.00  0.00    +0.000 C 
BRANCH  20  21
ATOM     21  C   UNL     1       5.485   4.002  18.139  0.00  0.00    +0.000 A 
ATOM     22  C   UNL     1       6.642   4.778  18.327  0.00  0.00    +0.000 A 
ATOM     23  C   UNL     1       7.403   5.214  17.240  0.00  0.00    +0.000 A 
ATOM     24  C   UNL     1       7.017   4.900  15.938  0.00  0.00    +0.000 A 
ATOM     25  C   UNL     1       5.888   4.104  15.734  0.00  0.00    +0.000 A 
ATOM     26  C   UNL     1       5.119   3.681  16.819  0.00  0.00    +0.000 A 
ATOM     27  O   UNL     1       5.474   3.706  14.484  0.00  0.00    +0.000 OA
ATOM     28  C   UNL     1       6.481   3.934  13.489  0.00  0.00    +0.000 C 
ATOM     29  C   UNL     1       7.111   5.307  13.667  0.00  0.00    +0.000 C 
ATOM     30  O   UNL     1       7.791   5.384  14.924  0.00  0.00    +0.000 OA
ENDBRANCH  20  21
ENDBRANCH   2  20
TORSDOF 4
ENDMDL
MODEL 5
REMARK VINA RESULT:      -8.8      4.553     10.117
REMARK  Name = 
REMARK  5 active torsions:
REMARK  status: ('A' for Active; 'I' for Inactive)
REMARK    1  A    between atoms: C_1  and  N_2
REMARK    2  A    between atoms: N_2  and  C_3
REMARK    3  A    between atoms: C_3  and  C_4
REMARK    4  A    between atoms: C_14  and  C_16
REMARK    5  A    between atoms: C_19  and  N_20
REMARK                            x       y       z     vdW  Elec       q    Type
REMARK                         _______ _______ _______ _____ _____    ______ ____
ROOT
ATOM      1  C   UNL     1       3.469   2.623  19.677  0.00  0.00    +0.000 C 
ATOM      2  N   UNL     1       3.480   4.077  19.582  0.00  0.00    +0.000 N 
ATOM      3  C   UNL     1       2.234   4.703  19.780  0.00  0.00    +0.000 C 
ATOM      4  O   UNL     1       1.220   4.073  20.088  0.00  0.00    +0.000 OA
ENDROOT
BRANCH   3   5
ATOM      5  C   UNL     1       2.076   6.167  19.555  0.00  0.00    +0.000 A 
ATOM      6  C   UNL     1       2.267   6.685  18.281  0.00  0.00    +0.000 A 
ATOM      7  C   UNL     1       2.110   8.035  18.040  0.00  0.00    +0.000 A 
ATOM      8  C   UNL     1       1.633   8.877  19.048  0.00  0.00    +0.000 A 
ATOM      9  C   UNL     1       1.393   8.394  20.335  0.00  0.00    +0.000 A 
ATOM     10  C   UNL     1       1.616   7.021  20.578  0.00  0.00    +0.000 A 
BRANCH   8  11
ATOM     11  N   UNL     1       1.365  10.207  18.643  0.00  0.00    +0.000 N 
ATOM     12  C   UNL     1       2.319  10.952  17.971  0.00  0.00    +0.000 A 
ATOM     13  N   UNL     1       2.404  12.182  18.424  0.00  0.00    +0.000 NA
ATOM     14  C   UNL     1       1.395  12.272  19.343  0.00  0.00    +0.000 A 
ATOM     15  C   UNL     1       1.109  13.321  20.225  0.00  0.00    +0.000 A 
ATOM     16  C   UNL     1      -0.013  13.217  21.050  0.00  0.00    +0.000 A 
ATOM     17  C   UNL     1      -0.854  12.103  20.972  0.00  0.00    +0.000 A 
ATOM     18  C   UNL     1      -0.553  11.016  20.140  0.00  0.00    +0.000 A 
ATOM     19  C   UNL     1       0.610  11.114  19.367  0.00  0.00    +0.000 A 
ENDBRANCH   8  11
ENDBRANCH   3   5
BRANCH   2  20
ATOM     20  C   UNL     1       4.786   4.740  19.749  0.00  0.00    +0.000 C 
BRANCH  20  21
ATOM     21  C   UNL     1       5.585   4.948  18.469  0.00  0.00    +0.000 A 
ATOM     22  C   UNL     1       6.728   5.763  18.403  0.00  0.00    +0.000 A 
ATOM     23  C   UNL     1       7.428   5.928  17.205  0.00  0.00    +0.000 A 
ATOM     24  C   UNL     1       6.993   5.298  16.041  0.00  0.00    +0.000 A 
ATOM     25  C   UNL     1       5.876   4.460  16.095  0.00  0.00    +0.000 A 
ATOM     26  C   UNL     1       5.168   4.306  17.287  0.00  0.00    +0.000 A 
ATOM     27  O   UNL     1       5.416   3.761  15.003  0.00  0.00    +0.000 OA
ATOM     28  C   UNL     1       6.372   3.752  13.933  0.00  0.00    +0.000 C 
ATOM     29  C   UNL     1       6.973   5.134  13.738  0.00  0.00    +0.000 C 
ATOM     30  O   UNL     1       7.707   5.528  14.902  0.00  0.00    +0.000 OA
ENDBRANCH  20  21
ENDBRANCH   2  20
TORSDOF 4
ENDMDL
MODEL 6
REMARK VINA RESULT:      -8.7      0.524      1.022
REMARK  Name = 
REMARK  5 active torsions:
REMARK  status: ('A' for Active; 'I' for Inactive)
REMARK    1  A    between atoms: C_1  and  N_2
REMARK    2  A    between atoms: N_2  and  C_3
REMARK    3  A    between atoms: C_3  and  C_4
REMARK    4  A    between atoms: C_14  and  C_16
REMARK    5  A    between atoms: C_19  and  N_20
REMARK                            x       y       z     vdW  Elec       q    Type
REMARK                         _______ _______ _______ _____ _____    ______ ____
ROOT
ATOM      1  C   UNL     1      -0.936  12.722  18.694  0.00  0.00    +0.000 C 
ATOM      2  N   UNL     1      -0.442  11.356  18.580  0.00  0.00    +0.000 N 
ATOM      3  C   UNL     1       0.741  11.083  19.292  0.00  0.00    +0.000 C 
ATOM      4  O   UNL     1       1.280  11.917  20.022  0.00  0.00    +0.000 OA
ENDROOT
BRANCH   3   5
ATOM      5  C   UNL     1       1.436   9.774  19.137  0.00  0.00    +0.000 A 
ATOM      6  C   UNL     1       1.388   8.851  20.174  0.00  0.00    +0.000 A 
ATOM      7  C   UNL     1       2.009   7.624  20.051  0.00  0.00    +0.000 A 
ATOM      8  C   UNL     1       2.584   7.247  18.834  0.00  0.00    +0.000 A 
ATOM      9  C   UNL     1       2.624   8.129  17.754  0.00  0.00    +0.000 A 
ATOM     10  C   UNL     1       2.036   9.403  17.917  0.00  0.00    +0.000 A 
BRANCH   8  11
ATOM     11  N   UNL     1       3.051   5.911  18.779  0.00  0.00    +0.000 N 
ATOM     12  C   UNL     1       3.808   5.466  17.709  0.00  0.00    +0.000 A 
ATOM     13  N   UNL     1       3.428   4.280  17.288  0.00  0.00    +0.000 NA
ATOM     14  C   UNL     1       2.471   3.895  18.185  0.00  0.00    +0.000 A 
ATOM     15  C   UNL     1       1.637   2.772  18.142  0.00  0.00    +0.000 A 
ATOM     16  C   UNL     1       0.756   2.549  19.203  0.00  0.00    +0.000 A 
ATOM     17  C   UNL     1       0.732   3.412  20.302  0.00  0.00    +0.000 A 
ATOM     18  C   UNL     1       1.514   4.575  20.337  0.00  0.00    +0.000 A 
ATOM     19  C   UNL     1       2.344   4.811  19.235  0.00  0.00    +0.000 A 
ENDBRANCH   8  11
ENDBRANCH   3   5
BRANCH   2  20
ATOM     20  C   UNL     1      -1.415  10.336  18.149  0.00  0.00    +0.000 C 
BRANCH  20  21
ATOM     21  C   UNL     1      -2.808  10.856  17.815  0.00  0.00    +0.000 A 
ATOM     22  C   UNL     1      -3.261  11.040  16.498  0.00  0.00    +0.000 A 
ATOM     23  C   UNL     1      -4.545  11.525  16.238  0.00  0.00    +0.000 A 
ATOM     24  C   UNL     1      -5.401  11.853  17.288  0.00  0.00    +0.000 A 
ATOM     25  C   UNL     1      -4.978  11.648  18.604  0.00  0.00    +0.000 A 
ATOM     26  C   UNL     1      -3.690  11.178  18.864  0.00  0.00    +0.000 A 
ATOM     27  O   UNL     1      -5.781  11.896  19.691  0.00  0.00    +0.000 OA
ATOM     28  C   UNL     1      -7.153  12.080  19.312  0.00  0.00    +0.000 C 
ATOM     29  C   UNL     1      -7.256  12.972  18.086  0.00  0.00    +0.000 C 
ATOM     30  O   UNL     1      -6.629  12.349  16.960  0.00  0.00    +0.000 OA
ENDBRANCH  20  21
ENDBRANCH   2  20
TORSDOF 4
ENDMDL
MODEL 7
REMARK VINA RESULT:      -8.6      3.088      5.777
REMARK  Name = 
REMARK  5 active torsions:
REMARK  status: ('A' for Active; 'I' for Inactive)
REMARK    1  A    between atoms: C_1  and  N_2
REMARK    2  A    between atoms: N_2  and  C_3
REMARK    3  A    between atoms: C_3  and  C_4
REMARK    4  A    between atoms: C_14  and  C_16
REMARK    5  A    between atoms: C_19  and  N_20
REMARK                            x       y       z     vdW  Elec       q    Type
REMARK                         _______ _______ _______ _____ _____    ______ ____
ROOT
ATOM      1  C   UNL     1      -1.015  12.625  19.522  0.00  0.00    +0.000 C 
ATOM      2  N   UNL     1       0.017  11.621  19.744  0.00  0.00    +0.000 N 
ATOM      3  C   UNL     1       0.024  10.554  18.826  0.00  0.00    +0.000 C 
ATOM      4  O   UNL     1      -0.737  10.510  17.858  0.00  0.00    +0.000 OA
ENDROOT
BRANCH   3   5
ATOM      5  C   UNL     1       0.924   9.383  19.029  0.00  0.00    +0.000 A 
ATOM      6  C   UNL     1       0.936   8.741  20.261  0.00  0.00    +0.000 A 
ATOM      7  C   UNL     1       1.746   7.644  20.473  0.00  0.00    +0.000 A 
ATOM      8  C   UNL     1       2.468   7.089  19.412  0.00  0.00    +0.000 A 
ATOM      9  C   UNL     1       2.458   7.680  18.149  0.00  0.00    +0.000 A 
ATOM     10  C   UNL     1       1.669   8.837  17.965  0.00  0.00    +0.000 A 
BRANCH   8  11
ATOM     11  N   UNL     1       3.138   5.878  19.711  0.00  0.00    +0.000 N 
ATOM     12  C   UNL     1       4.393   5.612  19.189  0.00  0.00    +0.000 A 
ATOM     13  N   UNL     1       4.498   4.380  18.744  0.00  0.00    +0.000 NA
ATOM     14  C   UNL     1       3.313   3.794  19.091  0.00  0.00    +0.000 A 
ATOM     15  C   UNL     1       2.833   2.525  18.748  0.00  0.00    +0.000 A 
ATOM     16  C   UNL     1       1.601   2.112  19.260  0.00  0.00    +0.000 A 
ATOM     17  C   UNL     1       0.877   2.935  20.127  0.00  0.00    +0.000 A 
ATOM     18  C   UNL     1       1.310   4.233  20.434  0.00  0.00    +0.000 A 
ATOM     19  C   UNL     1       2.516   4.650  19.860  0.00  0.00    +0.000 A 
ENDBRANCH   8  11
ENDBRANCH   3   5
BRANCH   2  20
ATOM     20  C   UNL     1       1.173  12.031  20.562  0.00  0.00    +0.000 C 
BRANCH  20  21
ATOM     21  C   UNL     1       2.035  13.139  19.970  0.00  0.00    +0.000 A 
ATOM     22  C   UNL     1       2.455  13.149  18.629  0.00  0.00    +0.000 A 
ATOM     23  C   UNL     1       3.250  14.185  18.131  0.00  0.00    +0.000 A 
ATOM     24  C   UNL     1       3.657  15.225  18.964  0.00  0.00    +0.000 A 
ATOM     25  C   UNL     1       3.223  15.247  20.291  0.00  0.00    +0.000 A 
ATOM     26  C   UNL     1       2.442  14.205  20.794  0.00  0.00    +0.000 A 
ATOM     27  O   UNL     1       3.537  16.265  21.161  0.00  0.00    +0.000 OA
ATOM     28  C   UNL     1       4.073  17.406  20.477  0.00  0.00    +0.000 C 
ATOM     29  C   UNL     1       5.088  16.976  19.429  0.00  0.00    +0.000 C 
ATOM     30  O   UNL     1       4.456  16.186  18.417  0.00  0.00    +0.000 OA
ENDBRANCH  20  21
ENDBRANCH   2  20
TORSDOF 4
ENDMDL
MODEL 8
REMARK VINA RESULT:      -8.5      0.965      1.591
REMARK  Name = 
REMARK  5 active torsions:
REMARK  status: ('A' for Active; 'I' for Inactive)
REMARK    1  A    between atoms: C_1  and  N_2
REMARK    2  A    between atoms: N_2  and  C_3
REMARK    3  A    between atoms: C_3  and  C_4
REMARK    4  A    between atoms: C_14  and  C_16
REMARK    5  A    between atoms: C_19  and  N_20
REMARK                            x       y       z     vdW  Elec       q    Type
REMARK                         _______ _______ _______ _____ _____    ______ ____
ROOT
ATOM      1  C   UNL     1      -0.623  13.410  18.646  0.00  0.00    +0.000 C 
ATOM      2  N   UNL     1      -0.346  11.999  18.883  0.00  0.00    +0.000 N 
ATOM      3  C   UNL     1       1.011  11.631  18.805  0.00  0.00    +0.000 C 
ATOM      4  O   UNL     1       1.909  12.456  18.627  0.00  0.00    +0.000 OA
ENDROOT
BRANCH   3   5
ATOM      5  C   UNL     1       1.414  10.199  18.871  0.00  0.00    +0.000 A 
ATOM      6  C   UNL     1       2.020   9.611  17.767  0.00  0.00    +0.000 A 
ATOM      7  C   UNL     1       2.420   8.291  17.805  0.00  0.00    +0.000 A 
ATOM      8  C   UNL     1       2.335   7.566  18.998  0.00  0.00    +0.000 A 
ATOM      9  C   UNL     1       1.766   8.127  20.141  0.00  0.00    +0.000 A 
ATOM     10  C   UNL     1       1.308   9.461  20.067  0.00  0.00    +0.000 A 
BRANCH   8  11
ATOM     11  N   UNL     1       2.917   6.275  18.958  0.00  0.00    +0.000 N 
ATOM     12  C   UNL     1       3.789   5.919  17.943  0.00  0.00    +0.000 A 
ATOM     13  N   UNL     1       3.545   4.717  17.474  0.00  0.00    +0.000 NA
ATOM     14  C   UNL     1       2.557   4.232  18.286  0.00  0.00    +0.000 A 
ATOM     15  C   UNL     1       1.826   3.045  18.158  0.00  0.00    +0.000 A 
ATOM     16  C   UNL     1       0.888   2.726  19.141  0.00  0.00    +0.000 A 
ATOM     17  C   UNL     1       0.706   3.557  20.249  0.00  0.00    +0.000 A 
ATOM     18  C   UNL     1       1.382   4.780  20.366  0.00  0.00    +0.000 A 
ATOM     19  C   UNL     1       2.272   5.110  19.337  0.00  0.00    +0.000 A 
ENDBRANCH   8  11
ENDBRANCH   3   5
BRANCH   2  20
ATOM     20  C   UNL     1      -1.382  11.234  19.599  0.00  0.00    +0.000 C 
BRANCH  20  21
ATOM     21  C   UNL     1      -2.780  11.841  19.577  0.00  0.00    +0.000 A 
ATOM     22  C   UNL     1      -3.276  12.659  20.606  0.00  0.00    +0.000 A 
ATOM     23  C   UNL     1      -4.567  13.191  20.545  0.00  0.00    +0.000 A 
ATOM     24  C   UNL     1      -5.398  12.903  19.464  0.00  0.00    +0.000 A 
ATOM     25  C   UNL     1      -4.910  12.116  18.418  0.00  0.00    +0.000 A 
ATOM     26  C   UNL     1      -3.626  11.573  18.485  0.00  0.00    +0.000 A 
ATOM     27  O   UNL     1      -5.648  11.832  17.293  0.00  0.00    +0.000 OA
ATOM     28  C   UNL     1      -6.808  12.669  17.189  0.00  0.00    +0.000 C 
ATOM     29  C   UNL     1      -7.508  12.787  18.534  0.00  0.00    +0.000 C 
ATOM     30  O   UNL     1      -6.655  13.432  19.486  0.00  0.00    +0.000 OA
ENDBRANCH  20  21
ENDBRANCH   2  20
TORSDOF 4
ENDMDL
MODEL 9
REMARK VINA RESULT:      -8.5      4.072     10.183
REMARK  Name = 
REMARK  5 active torsions:
REMARK  status: ('A' for Active; 'I' for Inactive)
REMARK    1  A    between atoms: C_1  and  N_2
REMARK    2  A    between atoms: N_2  and  C_3
REMARK    3  A    between atoms: C_3  and  C_4
REMARK    4  A    between atoms: C_14  and  C_16
REMARK    5  A    between atoms: C_19  and  N_20
REMARK                            x       y       z     vdW  Elec       q    Type
REMARK                         _______ _______ _______ _____ _____    ______ ____
ROOT
ATOM      1  C   UNL     1       4.541   3.242  19.779  0.00  0.00    +0.000 C 
ATOM      2  N   UNL     1       4.158   4.576  19.336  0.00  0.00    +0.000 N 
ATOM      3  C   UNL     1       3.057   5.140  20.006  0.00  0.00    +0.000 C 
ATOM      4  O   UNL     1       2.503   4.579  20.954  0.00  0.00    +0.000 OA
ENDROOT
BRANCH   3   5
ATOM      5  C   UNL     1       2.466   6.428  19.547  0.00  0.00    +0.000 A 
ATOM      6  C   UNL     1       1.916   7.296  20.482  0.00  0.00    +0.000 A 
ATOM      7  C   UNL     1       1.377   8.504  20.088  0.00  0.00    +0.000 A 
ATOM      8  C   UNL     1       1.493   8.924  18.759  0.00  0.00    +0.000 A 
ATOM      9  C   UNL     1       2.070   8.100  17.792  0.00  0.00    +0.000 A 
ATOM     10  C   UNL     1       2.563   6.842  18.203  0.00  0.00    +0.000 A 
BRANCH   8  11
ATOM     11  N   UNL     1       1.043  10.243  18.505  0.00  0.00    +0.000 N 
ATOM     12  C   UNL     1       1.599  11.324  19.168  0.00  0.00    +0.000 A 
ATOM     13  N   UNL     1       0.690  12.177  19.582  0.00  0.00    +0.000 NA
ATOM     14  C   UNL     1      -0.483  11.692  19.072  0.00  0.00    +0.000 A 
ATOM     15  C   UNL     1      -1.789  12.137  19.312  0.00  0.00    +0.000 A 
ATOM     16  C   UNL     1      -2.843  11.517  18.639  0.00  0.00    +0.000 A 
ATOM     17  C   UNL     1      -2.598  10.495  17.718  0.00  0.00    +0.000 A 
ATOM     18  C   UNL     1      -1.305   9.994  17.508  0.00  0.00    +0.000 A 
ATOM     19  C   UNL     1      -0.271  10.589  18.240  0.00  0.00    +0.000 A 
ENDBRANCH   8  11
ENDBRANCH   3   5
BRANCH   2  20
ATOM     20  C   UNL     1       5.181   5.348  18.607  0.00  0.00    +0.000 C 
BRANCH  20  21
ATOM     21  C   UNL     1       5.393   4.950  17.152  0.00  0.00    +0.000 A 
ATOM     22  C   UNL     1       4.505   4.118  16.449  0.00  0.00    +0.000 A 
ATOM     23  C   UNL     1       4.741   3.774  15.115  0.00  0.00    +0.000 A 
ATOM     24  C   UNL     1       5.878   4.240  14.458  0.00  0.00    +0.000 A 
ATOM     25  C   UNL     1       6.756   5.092  15.132  0.00  0.00    +0.000 A 
ATOM     26  C   UNL     1       6.528   5.424  16.469  0.00  0.00    +0.000 A 
ATOM     27  O   UNL     1       7.870   5.636  14.537  0.00  0.00    +0.000 OA
ATOM     28  C   UNL     1       7.844   5.480  13.112  0.00  0.00    +0.000 C 
ATOM     29  C   UNL     1       7.403   4.075  12.733  0.00  0.00    +0.000 C 
ATOM     30  O   UNL     1       6.060   3.840  13.167  0.00  0.00    +0.000 OA
ENDBRANCH  20  21
ENDBRANCH   2  20
TORSDOF 4
ENDMDL
