MODEL 1
REMARK VINA RESULT:      -8.1      0.000      0.000
REMARK  Name = 
REMARK  5 active torsions:
REMARK  status: ('A' for Active; 'I' for Inactive)
REMARK    1  A    between atoms: C_1  and  C_2
REMARK    2  A    between atoms: C_2  and  C_3
REMARK    3  A    between atoms: N_17  and  C_18
REMARK    4  A    between atoms: C_18  and  C_19
REMARK    5  A    between atoms: C_23  and  C_24
REMARK                            x       y       z     vdW  Elec       q    Type
REMARK                         _______ _______ _______ _____ _____    ______ ____
ROOT
ATOM      1  C   UNL     1      -1.378  10.673  18.900  0.00  0.00    +0.000 C 
ATOM      2  C   UNL     1       0.125  10.465  19.032  0.00  0.00    +0.000 C 
ATOM      3  N   UNL     1       0.696   9.965  17.795  0.00  0.00    +0.000 N 
ATOM      4  C   UNL     1       1.648   8.998  18.040  0.00  0.00    +0.000 C 
ATOM      5  O   UNL     1       2.456   8.620  17.206  0.00  0.00    +0.000 OA
ATOM      6  N   UNL     1       1.541   8.605  19.334  0.00  0.00    +0.000 N 
ATOM      7  C   UNL     1       0.514   9.272  19.946  0.00  0.00    +0.000 C 
ATOM      8  O   UNL     1       0.087   9.059  21.072  0.00  0.00    +0.000 OA
ATOM      9  H   UNL     1       0.710  10.474  16.921  0.00  0.00    +0.000 HD
ENDROOT
BRANCH   2  10
ATOM     10  C   UNL     1       0.857  11.711  19.560  0.00  0.00    +0.000 A 
ATOM     11  C   UNL     1       0.441  12.393  20.718  0.00  0.00    +0.000 A 
ATOM     12  C   UNL     1       1.048  13.590  21.103  0.00  0.00    +0.000 A 
ATOM     13  C   UNL     1       2.059  14.144  20.323  0.00  0.00    +0.000 A 
ATOM     14  C   UNL     1       2.500  13.478  19.181  0.00  0.00    +0.000 A 
ATOM     15  C   UNL     1       1.924  12.258  18.818  0.00  0.00    +0.000 A 
ATOM     16  O   UNL     1       3.537  13.932  18.413  0.00  0.00    +0.000 OA
ATOM     17  C   UNL     1       3.228  15.178  17.781  0.00  0.00    +0.000 C 
ATOM     18  C   UNL     1       3.423  16.367  18.713  0.00  0.00    +0.000 C 
ATOM     19  C   UNL     1       2.396  16.374  19.835  0.00  0.00    +0.000 C 
ATOM     20  O   UNL     1       2.616  15.311  20.763  0.00  0.00    +0.000 OA
ENDBRANCH   2  10
BRANCH   6  21
ATOM     21  C   UNL     1       2.470   7.738  20.015  0.00  0.00    +0.000 C 
BRANCH  21  22
ATOM     22  C   UNL     1       2.185   6.277  19.790  0.00  0.00    +0.000 A 
ATOM     23  C   UNL     1       1.323   5.585  20.647  0.00  0.00    +0.000 A 
ATOM     24  C   UNL     1       1.061   4.233  20.443  0.00  0.00    +0.000 A 
ATOM     25  C   UNL     1       1.670   3.555  19.385  0.00  0.00    +0.000 A 
ATOM     26  C   UNL     1       2.546   4.225  18.520  0.00  0.00    +0.000 A 
ATOM     27  C   UNL     1       2.792   5.590  18.727  0.00  0.00    +0.000 A 
BRANCH  26  28
ATOM     28  C   UNL     1       3.227   3.506  17.381  0.00  0.00    +0.000 C 
ATOM     29  F   UNL     1       2.358   2.995  16.463  0.00  0.00    +0.000 F 
ATOM     30  F   UNL     1       4.072   4.315  16.685  0.00  0.00    +0.000 F 
ATOM     31  F   UNL     1       3.978   2.452  17.803  0.00  0.00    +0.000 F 
ENDBRANCH  26  28
ENDBRANCH  21  22
ENDBRANCH   6  21
TORSDOF 4
ENDMDL
MODEL 2
REMARK VINA RESULT:      -7.8      4.191      6.612
REMARK  Name = 
REMARK  5 active torsions:
REMARK  status: ('A' for Active; 'I' for Inactive)
REMARK    1  A    between atoms: C_1  and  C_2
REMARK    2  A    between atoms: C_2  and  C_3
REMARK    3  A    between atoms: N_17  and  C_18
REMARK    4  A    between atoms: C_18  and  C_19
REMARK    5  A    between atoms: C_23  and  C_24
REMARK                            x       y       z     vdW  Elec       q    Type
REMARK                         _______ _______ _______ _____ _____    ______ ____
ROOT
ATOM      1  C   UNL     1       2.030   2.500  21.409  0.00  0.00    +0.000 C 
ATOM      2  C   UNL     1       2.336   3.196  20.090  0.00  0.00    +0.000 C 
ATOM      3  N   UNL     1       1.524   2.661  19.013  0.00  0.00    +0.000 N 
ATOM      4  C   UNL     1       2.256   2.531  17.853  0.00  0.00    +0.000 C 
ATOM      5  O   UNL     1       1.753   2.365  16.752  0.00  0.00    +0.000 OA
ATOM      6  N   UNL     1       3.572   2.660  18.156  0.00  0.00    +0.000 N 
ATOM      7  C   UNL     1       3.730   2.844  19.504  0.00  0.00    +0.000 C 
ATOM      8  O   UNL     1       4.794   2.874  20.107  0.00  0.00    +0.000 OA
ATOM      9  H   UNL     1       0.516   2.728  18.967  0.00  0.00    +0.000 HD
ENDROOT
BRANCH   2  10
ATOM     10  C   UNL     1       2.251   4.729  20.190  0.00  0.00    +0.000 A 
ATOM     11  C   UNL     1       1.471   5.378  21.166  0.00  0.00    +0.000 A 
ATOM     12  C   UNL     1       1.315   6.765  21.154  0.00  0.00    +0.000 A 
ATOM     13  C   UNL     1       1.907   7.527  20.152  0.00  0.00    +0.000 A 
ATOM     14  C   UNL     1       2.699   6.910  19.185  0.00  0.00    +0.000 A 
ATOM     15  C   UNL     1       2.892   5.527  19.220  0.00  0.00    +0.000 A 
ATOM     16  O   UNL     1       3.366   7.610  18.217  0.00  0.00    +0.000 OA
ATOM     17  C   UNL     1       2.468   8.266  17.317  0.00  0.00    +0.000 C 
ATOM     18  C   UNL     1       1.941   9.580  17.876  0.00  0.00    +0.000 C 
ATOM     19  C   UNL     1       1.014   9.354  19.061  0.00  0.00    +0.000 C 
ATOM     20  O   UNL     1       1.722   8.880  20.206  0.00  0.00    +0.000 OA
ENDBRANCH   2  10
BRANCH   6  21
ATOM     21  C   UNL     1       4.639   2.755  17.190  0.00  0.00    +0.000 C 
BRANCH  21  22
ATOM     22  C   UNL     1       5.275   4.118  17.148  0.00  0.00    +0.000 A 
ATOM     23  C   UNL     1       4.901   5.043  16.169  0.00  0.00    +0.000 A 
ATOM     24  C   UNL     1       5.492   6.304  16.127  0.00  0.00    +0.000 A 
ATOM     25  C   UNL     1       6.475   6.646  17.057  0.00  0.00    +0.000 A 
ATOM     26  C   UNL     1       6.874   5.731  18.041  0.00  0.00    +0.000 A 
ATOM     27  C   UNL     1       6.262   4.470  18.083  0.00  0.00    +0.000 A 
BRANCH  26  28
ATOM     28  C   UNL     1       7.946   6.077  19.045  0.00  0.00    +0.000 C 
ATOM     29  F   UNL     1       8.585   7.251  18.777  0.00  0.00    +0.000 F 
ATOM     30  F   UNL     1       7.456   6.200  20.310  0.00  0.00    +0.000 F 
ATOM     31  F   UNL     1       8.924   5.132  19.112  0.00  0.00    +0.000 F 
ENDBRANCH  26  28
ENDBRANCH  21  22
ENDBRANCH   6  21
TORSDOF 4
ENDMDL
MODEL 3
REMARK VINA RESULT:      -7.7      3.662      6.109
REMARK  Name = 
REMARK  5 active torsions:
REMARK  status: ('A' for Active; 'I' for Inactive)
REMARK    1  A    between atoms: C_1  and  C_2
REMARK    2  A    between atoms: C_2  and  C_3
REMARK    3  A    between atoms: N_17  and  C_18
REMARK    4  A    between atoms: C_18  and  C_19
REMARK    5  A    between atoms: C_23  and  C_24
REMARK                            x       y       z     vdW  Elec       q    Type
REMARK                         _______ _______ _______ _____ _____    ______ ____
ROOT
ATOM      1  C   UNL     1       0.872   2.976  20.780  0.00  0.00    +0.000 C 
ATOM      2  C   UNL     1       1.749   3.688  19.759  0.00  0.00    +0.000 C 
ATOM      3  N   UNL     1       1.356   3.352  18.404  0.00  0.00    +0.000 N 
ATOM      4  C   UNL     1       2.457   3.172  17.594  0.00  0.00    +0.000 C 
ATOM      5  O   UNL     1       2.402   3.152  16.375  0.00  0.00    +0.000 OA
ATOM      6  N   UNL     1       3.559   3.072  18.380  0.00  0.00    +0.000 N 
ATOM      7  C   UNL     1       3.205   3.151  19.701  0.00  0.00    +0.000 C 
ATOM      8  O   UNL     1       3.947   2.977  20.657  0.00  0.00    +0.000 OA
ATOM      9  H   UNL     1       0.462   3.581  17.991  0.00  0.00    +0.000 HD
ENDROOT
BRANCH   2  10
ATOM     10  C   UNL     1       1.826   5.207  19.994  0.00  0.00    +0.000 A 
ATOM     11  C   UNL     1       1.267   5.822  21.129  0.00  0.00    +0.000 A 
ATOM     12  C   UNL     1       1.244   7.212  21.253  0.00  0.00    +0.000 A 
ATOM     13  C   UNL     1       1.748   8.014  20.235  0.00  0.00    +0.000 A 
ATOM     14  C   UNL     1       2.323   7.428  19.108  0.00  0.00    +0.000 A 
ATOM     15  C   UNL     1       2.387   6.037  19.001  0.00  0.00    +0.000 A 
ATOM     16  O   UNL     1       2.900   8.159  18.106  0.00  0.00    +0.000 OA
ATOM     17  C   UNL     1       1.944   8.967  17.415  0.00  0.00    +0.000 C 
ATOM     18  C   UNL     1       1.634  10.262  18.153  0.00  0.00    +0.000 C 
ATOM     19  C   UNL     1       0.878  10.002  19.448  0.00  0.00    +0.000 C 
ATOM     20  O   UNL     1       1.702   9.366  20.425  0.00  0.00    +0.000 OA
ENDBRANCH   2  10
BRANCH   6  21
ATOM     21  C   UNL     1       4.918   3.050  17.901  0.00  0.00    +0.000 C 
BRANCH  21  22
ATOM     22  C   UNL     1       5.159   4.011  16.768  0.00  0.00    +0.000 A 
ATOM     23  C   UNL     1       5.036   5.389  16.972  0.00  0.00    +0.000 A 
ATOM     24  C   UNL     1       5.255   6.279  15.923  0.00  0.00    +0.000 A 
ATOM     25  C   UNL     1       5.585   5.797  14.655  0.00  0.00    +0.000 A 
ATOM     26  C   UNL     1       5.702   4.419  14.424  0.00  0.00    +0.000 A 
ATOM     27  C   UNL     1       5.494   3.533  15.491  0.00  0.00    +0.000 A 
BRANCH  26  28
ATOM     28  C   UNL     1       6.042   3.879  13.057  0.00  0.00    +0.000 C 
ATOM     29  F   UNL     1       4.988   3.883  12.192  0.00  0.00    +0.000 F 
ATOM     30  F   UNL     1       7.028   4.591  12.446  0.00  0.00    +0.000 F 
ATOM     31  F   UNL     1       6.480   2.590  13.098  0.00  0.00    +0.000 F 
ENDBRANCH  26  28
ENDBRANCH  21  22
ENDBRANCH   6  21
TORSDOF 4
ENDMDL
MODEL 4
REMARK VINA RESULT:      -7.6      0.893      1.000
REMARK  Name = 
REMARK  5 active torsions:
REMARK  status: ('A' for Active; 'I' for Inactive)
REMARK    1  A    between atoms: C_1  and  C_2
REMARK    2  A    between atoms: C_2  and  C_3
REMARK    3  A    between atoms: N_17  and  C_18
REMARK    4  A    between atoms: C_18  and  C_19
REMARK    5  A    between atoms: C_23  and  C_24
REMARK                            x       y       z     vdW  Elec       q    Type
REMARK                         _______ _______ _______ _____ _____    ______ ____
ROOT
ATOM      1  C   UNL     1      -0.815  10.490  17.996  0.00  0.00    +0.000 C 
ATOM      2  C   UNL     1       0.555  10.226  18.605  0.00  0.00    +0.000 C 
ATOM      3  N   UNL     1       1.428   9.553  17.662  0.00  0.00    +0.000 N 
ATOM      4  C   UNL     1       2.178   8.577  18.284  0.00  0.00    +0.000 C 
ATOM      5  O   UNL     1       3.164   8.061  17.782  0.00  0.00    +0.000 OA
ATOM      6  N   UNL     1       1.654   8.350  19.515  0.00  0.00    +0.000 N 
ATOM      7  C   UNL     1       0.550   9.135  19.711  0.00  0.00    +0.000 C 
ATOM      8  O   UNL     1      -0.212   9.081  20.665  0.00  0.00    +0.000 OA
ATOM      9  H   UNL     1       1.746   9.951  16.789  0.00  0.00    +0.000 HD
ENDROOT
BRANCH   2  10
ATOM     10  C   UNL     1       1.196  11.489  19.206  0.00  0.00    +0.000 A 
ATOM     11  C   UNL     1       0.759  12.050  20.420  0.00  0.00    +0.000 A 
ATOM     12  C   UNL     1       1.276  13.264  20.876  0.00  0.00    +0.000 A 
ATOM     13  C   UNL     1       2.213  13.956  20.116  0.00  0.00    +0.000 A 
ATOM     14  C   UNL     1       2.675  13.412  18.918  0.00  0.00    +0.000 A 
ATOM     15  C   UNL     1       2.192  12.177  18.481  0.00  0.00    +0.000 A 
ATOM     16  O   UNL     1       3.647  14.007  18.161  0.00  0.00    +0.000 OA
ATOM     17  C   UNL     1       3.217  15.263  17.630  0.00  0.00    +0.000 C 
ATOM     18  C   UNL     1       3.340  16.395  18.640  0.00  0.00    +0.000 C 
ATOM     19  C   UNL     1       2.350  16.236  19.784  0.00  0.00    +0.000 C 
ATOM     20  O   UNL     1       2.684  15.132  20.626  0.00  0.00    +0.000 OA
ENDBRANCH   2  10
BRANCH   6  21
ATOM     21  C   UNL     1       2.259   7.526  20.532  0.00  0.00    +0.000 C 
BRANCH  21  22
ATOM     22  C   UNL     1       2.158   6.054  20.236  0.00  0.00    +0.000 A 
ATOM     23  C   UNL     1       0.966   5.364  20.479  0.00  0.00    +0.000 A 
ATOM     24  C   UNL     1       0.873   4.001  20.209  0.00  0.00    +0.000 A 
ATOM     25  C   UNL     1       1.977   3.312  19.704  0.00  0.00    +0.000 A 
ATOM     26  C   UNL     1       3.185   3.980  19.462  0.00  0.00    +0.000 A 
ATOM     27  C   UNL     1       3.264   5.356  19.725  0.00  0.00    +0.000 A 
BRANCH  26  28
ATOM     28  C   UNL     1       4.394   3.249  18.932  0.00  0.00    +0.000 C 
ATOM     29  F   UNL     1       4.275   2.877  17.625  0.00  0.00    +0.000 F 
ATOM     30  F   UNL     1       5.529   3.997  19.004  0.00  0.00    +0.000 F 
ATOM     31  F   UNL     1       4.654   2.103  19.618  0.00  0.00    +0.000 F 
ENDBRANCH  26  28
ENDBRANCH  21  22
ENDBRANCH   6  21
TORSDOF 4
ENDMDL
MODEL 5
REMARK VINA RESULT:      -7.6      1.368      1.872
REMARK  Name = 
REMARK  5 active torsions:
REMARK  status: ('A' for Active; 'I' for Inactive)
REMARK    1  A    between atoms: C_1  and  C_2
REMARK    2  A    between atoms: C_2  and  C_3
REMARK    3  A    between atoms: N_17  and  C_18
REMARK    4  A    between atoms: C_18  and  C_19
REMARK    5  A    between atoms: C_23  and  C_24
REMARK                            x       y       z     vdW  Elec       q    Type
REMARK                         _______ _______ _______ _____ _____    ______ ____
ROOT
ATOM      1  C   UNL     1      -1.583  10.578  18.840  0.00  0.00    +0.000 C 
ATOM      2  C   UNL     1      -0.077  10.472  19.034  0.00  0.00    +0.000 C 
ATOM      3  N   UNL     1       0.589  10.118  17.795  0.00  0.00    +0.000 N 
ATOM      4  C   UNL     1       1.602   9.209  18.015  0.00  0.00    +0.000 C 
ATOM      5  O   UNL     1       2.474   8.960  17.197  0.00  0.00    +0.000 OA
ATOM      6  N   UNL     1       1.466   8.705  19.267  0.00  0.00    +0.000 N 
ATOM      7  C   UNL     1       0.362   9.242  19.874  0.00  0.00    +0.000 C 
ATOM      8  O   UNL     1      -0.099   8.907  20.956  0.00  0.00    +0.000 OA
ATOM      9  H   UNL     1       0.603  10.695  16.965  0.00  0.00    +0.000 HD
ENDROOT
BRANCH   2  10
ATOM     10  C   UNL     1       0.529  11.723  19.695  0.00  0.00    +0.000 A 
ATOM     11  C   UNL     1       0.007  12.277  20.878  0.00  0.00    +0.000 A 
ATOM     12  C   UNL     1       0.500  13.481  21.384  0.00  0.00    +0.000 A 
ATOM     13  C   UNL     1       1.499  14.169  20.705  0.00  0.00    +0.000 A 
ATOM     14  C   UNL     1       2.046  13.631  19.540  0.00  0.00    +0.000 A 
ATOM     15  C   UNL     1       1.585  12.406  19.055  0.00  0.00    +0.000 A 
ATOM     16  O   UNL     1       3.079  14.222  18.866  0.00  0.00    +0.000 OA
ATOM     17  C   UNL     1       2.704  15.488  18.315  0.00  0.00    +0.000 C 
ATOM     18  C   UNL     1       2.761  16.610  19.344  0.00  0.00    +0.000 C 
ATOM     19  C   UNL     1       1.684  16.451  20.407  0.00  0.00    +0.000 C 
ATOM     20  O   UNL     1       1.942  15.336  21.261  0.00  0.00    +0.000 OA
ENDBRANCH   2  10
BRANCH   6  21
ATOM     21  C   UNL     1       2.428   7.858  19.927  0.00  0.00    +0.000 C 
BRANCH  21  22
ATOM     22  C   UNL     1       2.531   6.491  19.307  0.00  0.00    +0.000 A 
ATOM     23  C   UNL     1       3.313   6.290  18.165  0.00  0.00    +0.000 A 
ATOM     24  C   UNL     1       3.406   5.025  17.587  0.00  0.00    +0.000 A 
ATOM     25  C   UNL     1       2.706   3.952  18.140  0.00  0.00    +0.000 A 
ATOM     26  C   UNL     1       1.907   4.132  19.278  0.00  0.00    +0.000 A 
ATOM     27  C   UNL     1       1.831   5.406  19.859  0.00  0.00    +0.000 A 
BRANCH  26  28
ATOM     28  C   UNL     1       1.130   2.987  19.879  0.00  0.00    +0.000 C 
ATOM     29  F   UNL     1      -0.001   2.672  19.186  0.00  0.00    +0.000 F 
ATOM     30  F   UNL     1       1.859   1.839  19.944  0.00  0.00    +0.000 F 
ATOM     31  F   UNL     1       0.722   3.244  21.152  0.00  0.00    +0.000 F 
ENDBRANCH  26  28
ENDBRANCH  21  22
ENDBRANCH   6  21
TORSDOF 4
ENDMDL
MODEL 6
REMARK VINA RESULT:      -7.5      1.356      1.409
REMARK  Name = 
REMARK  5 active torsions:
REMARK  status: ('A' for Active; 'I' for Inactive)
REMARK    1  A    between atoms: C_1  and  C_2
REMARK    2  A    between atoms: C_2  and  C_3
REMARK    3  A    between atoms: N_17  and  C_18
REMARK    4  A    between atoms: C_18  and  C_19
REMARK    5  A    between atoms: C_23  and  C_24
REMARK                            x       y       z     vdW  Elec       q    Type
REMARK                         _______ _______ _______ _____ _____    ______ ____
ROOT
ATOM      1  C   UNL     1      -1.935  10.628  18.709  0.00  0.00    +0.000 C 
ATOM      2  C   UNL     1      -0.442  10.631  19.008  0.00  0.00    +0.000 C 
ATOM      3  N   UNL     1       0.330  10.284  17.830  0.00  0.00    +0.000 N 
ATOM      4  C   UNL     1       1.383   9.454  18.150  0.00  0.00    +0.000 C 
ATOM      5  O   UNL     1       2.325   9.239  17.403  0.00  0.00    +0.000 OA
ATOM      6  N   UNL     1       1.193   8.982  19.408  0.00  0.00    +0.000 N 
ATOM      7  C   UNL     1       0.017   9.461  19.919  0.00  0.00    +0.000 C 
ATOM      8  O   UNL     1      -0.495   9.130  20.979  0.00  0.00    +0.000 OA
ATOM      9  H   UNL     1       0.364  10.835  16.983  0.00  0.00    +0.000 HD
ENDROOT
BRANCH   2  10
ATOM     10  C   UNL     1       0.033  11.940  19.662  0.00  0.00    +0.000 A 
ATOM     11  C   UNL     1       0.019  12.133  21.056  0.00  0.00    +0.000 A 
ATOM     12  C   UNL     1       0.338  13.374  21.612  0.00  0.00    +0.000 A 
ATOM     13  C   UNL     1       0.647  14.451  20.788  0.00  0.00    +0.000 A 
ATOM     14  C   UNL     1       0.686  14.280  19.405  0.00  0.00    +0.000 A 
ATOM     15  C   UNL     1       0.408  13.029  18.848  0.00  0.00    +0.000 A 
ATOM     16  O   UNL     1       1.052  15.279  18.545  0.00  0.00    +0.000 OA
ATOM     17  C   UNL     1       0.122  16.366  18.562  0.00  0.00    +0.000 C 
ATOM     18  C   UNL     1       0.356  17.314  19.731  0.00  0.00    +0.000 C 
ATOM     19  C   UNL     1       0.022  16.656  21.061  0.00  0.00    +0.000 C 
ATOM     20  O   UNL     1       0.960  15.633  21.398  0.00  0.00    +0.000 OA
ENDBRANCH   2  10
BRANCH   6  21
ATOM     21  C   UNL     1       2.161   8.223  20.161  0.00  0.00    +0.000 C 
BRANCH  21  22
ATOM     22  C   UNL     1       2.071   6.742  19.911  0.00  0.00    +0.000 A 
ATOM     23  C   UNL     1       1.310   5.927  20.755  0.00  0.00    +0.000 A 
ATOM     24  C   UNL     1       1.229   4.555  20.527  0.00  0.00    +0.000 A 
ATOM     25  C   UNL     1       1.921   3.983  19.458  0.00  0.00    +0.000 A 
ATOM     26  C   UNL     1       2.699   4.778  18.605  0.00  0.00    +0.000 A 
ATOM     27  C   UNL     1       2.762   6.160  18.836  0.00  0.00    +0.000 A 
BRANCH  26  28
ATOM     28  C   UNL     1       3.466   4.176  17.454  0.00  0.00    +0.000 C 
ATOM     29  F   UNL     1       2.700   3.402  16.634  0.00  0.00    +0.000 F 
ATOM     30  F   UNL     1       4.032   5.120  16.654  0.00  0.00    +0.000 F 
ATOM     31  F   UNL     1       4.486   3.374  17.869  0.00  0.00    +0.000 F 
ENDBRANCH  26  28
ENDBRANCH  21  22
ENDBRANCH   6  21
TORSDOF 4
ENDMDL
MODEL 7
REMARK VINA RESULT:      -7.5      1.535      2.040
REMARK  Name = 
REMARK  5 active torsions:
REMARK  status: ('A' for Active; 'I' for Inactive)
REMARK    1  A    between atoms: C_1  and  C_2
REMARK    2  A    between atoms: C_2  and  C_3
REMARK    3  A    between atoms: N_17  and  C_18
REMARK    4  A    between atoms: C_18  and  C_19
REMARK    5  A    between atoms: C_23  and  C_24
REMARK                            x       y       z     vdW  Elec       q    Type
REMARK                         _______ _______ _______ _____ _____    ______ ____
ROOT
ATOM      1  C   UNL     1      -1.484  10.673  18.901  0.00  0.00    +0.000 C 
ATOM      2  C   UNL     1       0.015  10.478  19.083  0.00  0.00    +0.000 C 
ATOM      3  N   UNL     1       0.652  10.104  17.834  0.00  0.00    +0.000 N 
ATOM      4  C   UNL     1       1.612   9.135  18.033  0.00  0.00    +0.000 C 
ATOM      5  O   UNL     1       2.463   8.848  17.207  0.00  0.00    +0.000 OA
ATOM      6  N   UNL     1       1.455   8.623  19.280  0.00  0.00    +0.000 N 
ATOM      7  C   UNL     1       0.388   9.213  19.902  0.00  0.00    +0.000 C 
ATOM      8  O   UNL     1      -0.084   8.890  20.983  0.00  0.00    +0.000 OA
ATOM      9  H   UNL     1       0.694  10.692  17.012  0.00  0.00    +0.000 HD
ENDROOT
BRANCH   2  10
ATOM     10  C   UNL     1       0.697  11.682  19.756  0.00  0.00    +0.000 A 
ATOM     11  C   UNL     1       0.202  12.263  20.939  0.00  0.00    +0.000 A 
ATOM     12  C   UNL     1       0.769  13.429  21.457  0.00  0.00    +0.000 A 
ATOM     13  C   UNL     1       1.817  14.054  20.790  0.00  0.00    +0.000 A 
ATOM     14  C   UNL     1       2.337  13.488  19.626  0.00  0.00    +0.000 A 
ATOM     15  C   UNL     1       1.800  12.298  19.129  0.00  0.00    +0.000 A 
ATOM     16  O   UNL     1       3.412  14.014  18.964  0.00  0.00    +0.000 OA
ATOM     17  C   UNL     1       3.126  15.305  18.419  0.00  0.00    +0.000 C 
ATOM     18  C   UNL     1       3.247  16.414  19.455  0.00  0.00    +0.000 C 
ATOM     19  C   UNL     1       2.154  16.320  20.508  0.00  0.00    +0.000 C 
ATOM     20  O   UNL     1       2.331  15.185  21.358  0.00  0.00    +0.000 OA
ENDBRANCH   2  10
BRANCH   6  21
ATOM     21  C   UNL     1       2.370   7.711  19.921  0.00  0.00    +0.000 C 
BRANCH  21  22
ATOM     22  C   UNL     1       2.186   6.284  19.481  0.00  0.00    +0.000 A 
ATOM     23  C   UNL     1       2.068   5.973  18.122  0.00  0.00    +0.000 A 
ATOM     24  C   UNL     1       1.893   4.653  17.714  0.00  0.00    +0.000 A 
ATOM     25  C   UNL     1       1.820   3.632  18.664  0.00  0.00    +0.000 A 
ATOM     26  C   UNL     1       1.924   3.922  20.031  0.00  0.00    +0.000 A 
ATOM     27  C   UNL     1       2.114   5.252  20.430  0.00  0.00    +0.000 A 
BRANCH  26  28
ATOM     28  C   UNL     1       1.832   2.834  21.072  0.00  0.00    +0.000 C 
ATOM     29  F   UNL     1       2.907   2.789  21.911  0.00  0.00    +0.000 F 
ATOM     30  F   UNL     1       0.740   2.970  21.874  0.00  0.00    +0.000 F 
ATOM     31  F   UNL     1       1.742   1.591  20.523  0.00  0.00    +0.000 F 
ENDBRANCH  26  28
ENDBRANCH  21  22
ENDBRANCH   6  21
TORSDOF 4
ENDMDL
MODEL 8
REMARK VINA RESULT:      -7.5      5.791      8.816
REMARK  Name = 
REMARK  5 active torsions:
REMARK  status: ('A' for Active; 'I' for Inactive)
REMARK    1  A    between atoms: C_1  and  C_2
REMARK    2  A    between atoms: C_2  and  C_3
REMARK    3  A    between atoms: N_17  and  C_18
REMARK    4  A    between atoms: C_18  and  C_19
REMARK    5  A    between atoms: C_23  and  C_24
REMARK                            x       y       z     vdW  Elec       q    Type
REMARK                         _______ _______ _______ _____ _____    ______ ____
ROOT
ATOM      1  C   UNL     1      -1.699  10.084  17.048  0.00  0.00    +0.000 C 
ATOM      2  C   UNL     1      -1.609  11.168  18.113  0.00  0.00    +0.000 C 
ATOM      3  N   UNL     1      -0.809  12.289  17.655  0.00  0.00    +0.000 N 
ATOM      4  C   UNL     1       0.003  12.767  18.661  0.00  0.00    +0.000 C 
ATOM      5  O   UNL     1       0.562  13.852  18.618  0.00  0.00    +0.000 OA
ATOM      6  N   UNL     1       0.020  11.860  19.670  0.00  0.00    +0.000 N 
ATOM      7  C   UNL     1      -0.742  10.772  19.339  0.00  0.00    +0.000 C 
ATOM      8  O   UNL     1      -0.835   9.736  19.981  0.00  0.00    +0.000 OA
ATOM      9  H   UNL     1      -1.051  12.888  16.877  0.00  0.00    +0.000 HD
ENDROOT
BRANCH   2  10
ATOM     10  C   UNL     1      -2.987  11.603  18.641  0.00  0.00    +0.000 A 
ATOM     11  C   UNL     1      -3.144  12.674  19.540  0.00  0.00    +0.000 A 
ATOM     12  C   UNL     1      -4.390  12.966  20.098  0.00  0.00    +0.000 A 
ATOM     13  C   UNL     1      -5.495  12.177  19.794  0.00  0.00    +0.000 A 
ATOM     14  C   UNL     1      -5.368  11.121  18.892  0.00  0.00    +0.000 A 
ATOM     15  C   UNL     1      -4.132  10.854  18.300  0.00  0.00    +0.000 A 
ATOM     16  O   UNL     1      -6.430  10.353  18.497  0.00  0.00    +0.000 OA
ATOM     17  C   UNL     1      -6.973   9.595  19.581  0.00  0.00    +0.000 C 
ATOM     18  C   UNL     1      -7.916  10.415  20.451  0.00  0.00    +0.000 C 
ATOM     19  C   UNL     1      -7.171  11.491  21.225  0.00  0.00    +0.000 C 
ATOM     20  O   UNL     1      -6.686  12.524  20.366  0.00  0.00    +0.000 OA
ENDBRANCH   2  10
BRANCH   6  21
ATOM     21  C   UNL     1       0.615  12.075  20.965  0.00  0.00    +0.000 C 
BRANCH  21  22
ATOM     22  C   UNL     1      -0.223  12.947  21.861  0.00  0.00    +0.000 A 
ATOM     23  C   UNL     1       0.173  14.258  22.143  0.00  0.00    +0.000 A 
ATOM     24  C   UNL     1      -0.600  15.065  22.975  0.00  0.00    +0.000 A 
ATOM     25  C   UNL     1      -1.771  14.561  23.544  0.00  0.00    +0.000 A 
ATOM     26  C   UNL     1      -2.182  13.247  23.285  0.00  0.00    +0.000 A 
ATOM     27  C   UNL     1      -1.403  12.448  22.435  0.00  0.00    +0.000 A 
BRANCH  26  28
ATOM     28  C   UNL     1      -3.436  12.680  23.903  0.00  0.00    +0.000 C 
ATOM     29  F   UNL     1      -4.515  12.707  23.070  0.00  0.00    +0.000 F 
ATOM     30  F   UNL     1      -3.290  11.380  24.281  0.00  0.00    +0.000 F 
ATOM     31  F   UNL     1      -3.818  13.356  25.022  0.00  0.00    +0.000 F 
ENDBRANCH  26  28
ENDBRANCH  21  22
ENDBRANCH   6  21
TORSDOF 4
ENDMDL
MODEL 9
REMARK VINA RESULT:      -7.4      4.185      6.605
REMARK  Name = 
REMARK  5 active torsions:
REMARK  status: ('A' for Active; 'I' for Inactive)
REMARK    1  A    between atoms: C_1  and  C_2
REMARK    2  A    between atoms: C_2  and  C_3
REMARK    3  A    between atoms: N_17  and  C_18
REMARK    4  A    between atoms: C_18  and  C_19
REMARK    5  A    between atoms: C_23  and  C_24
REMARK                            x       y       z     vdW  Elec       q    Type
REMARK                         _______ _______ _______ _____ _____    ______ ____
ROOT
ATOM      1  C   UNL     1       2.005   2.572  21.384  0.00  0.00    +0.000 C 
ATOM      2  C   UNL     1       2.457   3.259  20.103  0.00  0.00    +0.000 C 
ATOM      3  N   UNL     1       1.781   2.706  18.944  0.00  0.00    +0.000 N 
ATOM      4  C   UNL     1       2.645   2.572  17.879  0.00  0.00    +0.000 C 
ATOM      5  O   UNL     1       2.276   2.391  16.729  0.00  0.00    +0.000 OA
ATOM      6  N   UNL     1       3.916   2.717  18.332  0.00  0.00    +0.000 N 
ATOM      7  C   UNL     1       3.913   2.914  19.687  0.00  0.00    +0.000 C 
ATOM      8  O   UNL     1       4.898   2.961  20.410  0.00  0.00    +0.000 OA
ATOM      9  H   UNL     1       0.785   2.762  18.779  0.00  0.00    +0.000 HD
ENDROOT
BRANCH   2  10
ATOM     10  C   UNL     1       2.348   4.792  20.176  0.00  0.00    +0.000 A 
ATOM     11  C   UNL     1       1.556   5.445  21.140  0.00  0.00    +0.000 A 
ATOM     12  C   UNL     1       1.379   6.829  21.103  0.00  0.00    +0.000 A 
ATOM     13  C   UNL     1       1.960   7.583  20.089  0.00  0.00    +0.000 A 
ATOM     14  C   UNL     1       2.764   6.962  19.134  0.00  0.00    +0.000 A 
ATOM     15  C   UNL     1       2.978   5.583  19.193  0.00  0.00    +0.000 A 
ATOM     16  O   UNL     1       3.422   7.656  18.156  0.00  0.00    +0.000 OA
ATOM     17  C   UNL     1       2.515   8.282  17.243  0.00  0.00    +0.000 C 
ATOM     18  C   UNL     1       1.966   9.597  17.778  0.00  0.00    +0.000 C 
ATOM     19  C   UNL     1       1.041   9.377  18.965  0.00  0.00    +0.000 C 
ATOM     20  O   UNL     1       1.754   8.933  20.120  0.00  0.00    +0.000 OA
ENDBRANCH   2  10
BRANCH   6  21
ATOM     21  C   UNL     1       5.087   2.813  17.497  0.00  0.00    +0.000 C 
BRANCH  21  22
ATOM     22  C   UNL     1       5.290   4.190  16.924  0.00  0.00    +0.000 A 
ATOM     23  C   UNL     1       4.622   4.577  15.758  0.00  0.00    +0.000 A 
ATOM     24  C   UNL     1       4.812   5.850  15.226  0.00  0.00    +0.000 A 
ATOM     25  C   UNL     1       5.685   6.744  15.848  0.00  0.00    +0.000 A 
ATOM     26  C   UNL     1       6.374   6.374  17.011  0.00  0.00    +0.000 A 
ATOM     27  C   UNL     1       6.164   5.095  17.547  0.00  0.00    +0.000 A 
BRANCH  26  28
ATOM     28  C   UNL     1       7.333   7.322  17.689  0.00  0.00    +0.000 C 
ATOM     29  F   UNL     1       7.896   6.810  18.821  0.00  0.00    +0.000 F 
ATOM     30  F   UNL     1       8.372   7.676  16.884  0.00  0.00    +0.000 F 
ATOM     31  F   UNL     1       6.738   8.486  18.068  0.00  0.00    +0.000 F 
ENDBRANCH  26  28
ENDBRANCH  21  22
ENDBRANCH   6  21
TORSDOF 4
ENDMDL
