MODEL 1
REMARK VINA RESULT:      -8.3      0.000      0.000
REMARK  Name = 
REMARK  6 active torsions:
REMARK  status: ('A' for Active; 'I' for Inactive)
REMARK    1  A    between atoms: C_2  and  C_16
REMARK    2  A    between atoms: N_3  and  C_4
REMARK    3  A    between atoms: C_10  and  N_11
REMARK    4  A    between atoms: C_19  and  C_20
REMARK    5  A    between atoms: C_20  and  O_21
REMARK    6  A    between atoms: O_21  and  C_22
REMARK                            x       y       z     vdW  Elec       q    Type
REMARK                         _______ _______ _______ _____ _____    ______ ____
ROOT
ATOM      1  O   UNL     1       4.212   2.822  17.713  0.00  0.00    +0.000 OA
ATOM      2  C   UNL     1       3.833   3.990  17.805  0.00  0.00    +0.000 C 
ATOM      3  N   UNL     1       4.306   5.012  16.986  0.00  0.00    +0.000 N 
ATOM      4  H   UNL     1       4.131   5.971  17.295  0.00  0.00    +0.000 HD
ENDROOT
BRANCH   3   5
ATOM      5  C   UNL     1       5.224   4.837  15.905  0.00  0.00    +0.000 A 
ATOM      6  C   UNL     1       4.768   4.334  14.670  0.00  0.00    +0.000 A 
ATOM      7  C   UNL     1       5.637   4.068  13.615  0.00  0.00    +0.000 A 
ATOM      8 CL   UNL     1       5.036   3.386  12.155  0.00  0.00    +0.000 Cl
ATOM      9  C   UNL     1       6.988   4.342  13.742  0.00  0.00    +0.000 A 
ATOM     10  C   UNL     1       7.466   4.896  14.929  0.00  0.00    +0.000 A 
ATOM     11  C   UNL     1       6.602   5.148  16.022  0.00  0.00    +0.000 A 
BRANCH  11  12
ATOM     12  N   UNL     1       7.172   5.663  17.221  0.00  0.00    +0.000 N 
ATOM     13  C   UNL     1       7.619   6.944  17.480  0.00  0.00    +0.000 A 
ATOM     14  N   UNL     1       8.120   7.027  18.688  0.00  0.00    +0.000 NA
ATOM     15  C   UNL     1       7.960   5.763  19.166  0.00  0.00    +0.000 A 
ATOM     16  N   UNL     1       7.373   4.902  18.329  0.00  0.00    +0.000 NA
ENDBRANCH  11  12
ENDBRANCH   3   5
BRANCH   2  17
ATOM     17  C   UNL     1       2.882   4.342  18.843  0.00  0.00    +0.000 A 
ATOM     18  C   UNL     1       1.855   3.554  19.334  0.00  0.00    +0.000 A 
ATOM     19  C   UNL     1       1.154   4.324  20.277  0.00  0.00    +0.000 A 
ATOM     20  C   UNL     1       1.769   5.558  20.298  0.00  0.00    +0.000 A 
ATOM     21  O   UNL     1       2.843   5.574  19.442  0.00  0.00    +0.000 OA
BRANCH  20  22
ATOM     22  C   UNL     1       1.378   6.827  20.965  0.00  0.00    +0.000 C 
BRANCH  22  23
ATOM     23  O   UNL     1       1.957   7.918  20.248  0.00  0.00    +0.000 OA
BRANCH  23  24
ATOM     24  C   UNL     1       1.125   8.993  20.046  0.00  0.00    +0.000 A 
ATOM     25  C   UNL     1       0.416   9.411  21.178  0.00  0.00    +0.000 A 
ATOM     26  C   UNL     1      -0.463  10.498  21.108  0.00  0.00    +0.000 A 
ATOM     27  C   UNL     1      -0.648  11.176  19.905  0.00  0.00    +0.000 A 
ATOM     28  C   UNL     1       0.046  10.765  18.770  0.00  0.00    +0.000 A 
ATOM     29  C   UNL     1       0.924   9.687  18.846  0.00  0.00    +0.000 A 
ATOM     30  F   UNL     1       1.563   9.345  17.718  0.00  0.00    +0.000 F 
ENDBRANCH  23  24
ENDBRANCH  22  23
ENDBRANCH  20  22
ENDBRANCH   2  17
TORSDOF 6
ENDMDL
MODEL 2
REMARK VINA RESULT:      -8.2      2.996      4.887
REMARK  Name = 
REMARK  6 active torsions:
REMARK  status: ('A' for Active; 'I' for Inactive)
REMARK    1  A    between atoms: C_2  and  C_16
REMARK    2  A    between atoms: N_3  and  C_4
REMARK    3  A    between atoms: C_10  and  N_11
REMARK    4  A    between atoms: C_19  and  C_20
REMARK    5  A    between atoms: C_20  and  O_21
REMARK    6  A    between atoms: O_21  and  C_22
REMARK                            x       y       z     vdW  Elec       q    Type
REMARK                         _______ _______ _______ _____ _____    ______ ____
ROOT
ATOM      1  O   UNL     1       2.463   8.220  17.863  0.00  0.00    +0.000 OA
ATOM      2  C   UNL     1       2.230   7.762  18.982  0.00  0.00    +0.000 C 
ATOM      3  N   UNL     1       2.597   6.476  19.370  0.00  0.00    +0.000 N 
ATOM      4  H   UNL     1       2.148   6.100  20.209  0.00  0.00    +0.000 HD
ENDROOT
BRANCH   3   5
ATOM      5  C   UNL     1       3.337   5.556  18.565  0.00  0.00    +0.000 A 
ATOM      6  C   UNL     1       4.050   6.022  17.441  0.00  0.00    +0.000 A 
ATOM      7  C   UNL     1       4.716   5.155  16.579  0.00  0.00    +0.000 A 
ATOM      8 CL   UNL     1       5.509   5.771  15.182  0.00  0.00    +0.000 Cl
ATOM      9  C   UNL     1       4.734   3.796  16.837  0.00  0.00    +0.000 A 
ATOM     10  C   UNL     1       4.090   3.306  17.972  0.00  0.00    +0.000 A 
ATOM     11  C   UNL     1       3.384   4.168  18.846  0.00  0.00    +0.000 A 
BRANCH  11  12
ATOM     12  N   UNL     1       2.704   3.588  19.955  0.00  0.00    +0.000 N 
ATOM     13  C   UNL     1       3.218   2.786  20.956  0.00  0.00    +0.000 A 
ATOM     14  N   UNL     1       2.273   2.409  21.781  0.00  0.00    +0.000 NA
ATOM     15  C   UNL     1       1.166   3.009  21.264  0.00  0.00    +0.000 A 
ATOM     16  N   UNL     1       1.372   3.751  20.171  0.00  0.00    +0.000 NA
ENDBRANCH  11  12
ENDBRANCH   3   5
BRANCH   2  17
ATOM     17  C   UNL     1       1.500   8.574  19.937  0.00  0.00    +0.000 A 
ATOM     18  C   UNL     1       1.188   8.244  21.245  0.00  0.00    +0.000 A 
ATOM     19  C   UNL     1       0.419   9.298  21.768  0.00  0.00    +0.000 A 
ATOM     20  C   UNL     1       0.275  10.211  20.744  0.00  0.00    +0.000 A 
ATOM     21  O   UNL     1       0.952   9.791  19.626  0.00  0.00    +0.000 OA
BRANCH  20  22
ATOM     22  C   UNL     1      -0.566  11.432  20.646  0.00  0.00    +0.000 C 
BRANCH  22  23
ATOM     23  O   UNL     1      -0.718  11.771  19.266  0.00  0.00    +0.000 OA
BRANCH  23  24
ATOM     24  C   UNL     1      -1.898  11.362  18.690  0.00  0.00    +0.000 A 
ATOM     25  C   UNL     1      -3.037  12.047  19.128  0.00  0.00    +0.000 A 
ATOM     26  C   UNL     1      -4.301  11.730  18.618  0.00  0.00    +0.000 A 
ATOM     27  C   UNL     1      -4.441  10.720  17.667  0.00  0.00    +0.000 A 
ATOM     28  C   UNL     1      -3.317  10.027  17.229  0.00  0.00    +0.000 A 
ATOM     29  C   UNL     1      -2.061  10.350  17.736  0.00  0.00    +0.000 A 
ATOM     30  F   UNL     1      -1.019   9.647  17.269  0.00  0.00    +0.000 F 
ENDBRANCH  23  24
ENDBRANCH  22  23
ENDBRANCH  20  22
ENDBRANCH   2  17
TORSDOF 6
ENDMDL
MODEL 3
REMARK VINA RESULT:      -8.1      1.107      1.556
REMARK  Name = 
REMARK  6 active torsions:
REMARK  status: ('A' for Active; 'I' for Inactive)
REMARK    1  A    between atoms: C_2  and  C_16
REMARK    2  A    between atoms: N_3  and  C_4
REMARK    3  A    between atoms: C_10  and  N_11
REMARK    4  A    between atoms: C_19  and  C_20
REMARK    5  A    between atoms: C_20  and  O_21
REMARK    6  A    between atoms: O_21  and  C_22
REMARK                            x       y       z     vdW  Elec       q    Type
REMARK                         _______ _______ _______ _____ _____    ______ ____
ROOT
ATOM      1  O   UNL     1       4.459   2.476  17.359  0.00  0.00    +0.000 OA
ATOM      2  C   UNL     1       4.024   3.614  17.539  0.00  0.00    +0.000 C 
ATOM      3  N   UNL     1       4.416   4.710  16.775  0.00  0.00    +0.000 N 
ATOM      4  H   UNL     1       4.203   5.637  17.151  0.00  0.00    +0.000 HD
ENDROOT
BRANCH   3   5
ATOM      5  C   UNL     1       5.306   4.654  15.658  0.00  0.00    +0.000 A 
ATOM      6  C   UNL     1       4.873   4.089  14.442  0.00  0.00    +0.000 A 
ATOM      7  C   UNL     1       5.728   3.937  13.353  0.00  0.00    +0.000 A 
ATOM      8 CL   UNL     1       5.166   3.174  11.917  0.00  0.00    +0.000 Cl
ATOM      9  C   UNL     1       7.034   4.389  13.427  0.00  0.00    +0.000 A 
ATOM     10  C   UNL     1       7.480   5.007  14.594  0.00  0.00    +0.000 A 
ATOM     11  C   UNL     1       6.634   5.147  15.721  0.00  0.00    +0.000 A 
BRANCH  11  12
ATOM     12  N   UNL     1       7.177   5.739  16.897  0.00  0.00    +0.000 N 
ATOM     13  C   UNL     1       7.534   5.126  18.082  0.00  0.00    +0.000 A 
ATOM     14  N   UNL     1       7.957   6.008  18.953  0.00  0.00    +0.000 NA
ATOM     15  C   UNL     1       7.859   7.179  18.266  0.00  0.00    +0.000 A 
ATOM     16  N   UNL     1       7.412   7.073  17.010  0.00  0.00    +0.000 NA
ENDBRANCH  11  12
ENDBRANCH   3   5
BRANCH   2  17
ATOM     17  C   UNL     1       3.091   3.847  18.625  0.00  0.00    +0.000 A 
ATOM     18  C   UNL     1       2.191   2.940  19.160  0.00  0.00    +0.000 A 
ATOM     19  C   UNL     1       1.450   3.619  20.142  0.00  0.00    +0.000 A 
ATOM     20  C   UNL     1       1.914   4.918  20.142  0.00  0.00    +0.000 A 
ATOM     21  O   UNL     1       2.934   5.064  19.234  0.00  0.00    +0.000 OA
BRANCH  20  22
ATOM     22  C   UNL     1       1.407   6.129  20.838  0.00  0.00    +0.000 C 
BRANCH  22  23
ATOM     23  O   UNL     1       2.238   7.238  20.488  0.00  0.00    +0.000 OA
BRANCH  23  24
ATOM     24  C   UNL     1       1.577   8.315  19.948  0.00  0.00    +0.000 A 
ATOM     25  C   UNL     1       1.846   8.555  18.595  0.00  0.00    +0.000 A 
ATOM     26  C   UNL     1       1.235   9.621  17.925  0.00  0.00    +0.000 A 
ATOM     27  C   UNL     1       0.352  10.463  18.600  0.00  0.00    +0.000 A 
ATOM     28  C   UNL     1       0.082  10.238  19.946  0.00  0.00    +0.000 A 
ATOM     29  C   UNL     1       0.688   9.174  20.608  0.00  0.00    +0.000 A 
ATOM     30  F   UNL     1       0.383   9.011  21.904  0.00  0.00    +0.000 F 
ENDBRANCH  23  24
ENDBRANCH  22  23
ENDBRANCH  20  22
ENDBRANCH   2  17
TORSDOF 6
ENDMDL
MODEL 4
REMARK VINA RESULT:      -8.1      2.839      4.855
REMARK  Name = 
REMARK  6 active torsions:
REMARK  status: ('A' for Active; 'I' for Inactive)
REMARK    1  A    between atoms: C_2  and  C_16
REMARK    2  A    between atoms: N_3  and  C_4
REMARK    3  A    between atoms: C_10  and  N_11
REMARK    4  A    between atoms: C_19  and  C_20
REMARK    5  A    between atoms: C_20  and  O_21
REMARK    6  A    between atoms: O_21  and  C_22
REMARK                            x       y       z     vdW  Elec       q    Type
REMARK                         _______ _______ _______ _____ _____    ______ ____
ROOT
ATOM      1  O   UNL     1       2.015   7.684  17.878  0.00  0.00    +0.000 OA
ATOM      2  C   UNL     1       2.266   7.552  19.077  0.00  0.00    +0.000 C 
ATOM      3  N   UNL     1       3.162   6.606  19.568  0.00  0.00    +0.000 N 
ATOM      4  H   UNL     1       3.116   6.401  20.569  0.00  0.00    +0.000 HD
ENDROOT
BRANCH   3   5
ATOM      5  C   UNL     1       3.945   5.723  18.762  0.00  0.00    +0.000 A 
ATOM      6  C   UNL     1       5.098   6.205  18.110  0.00  0.00    +0.000 A 
ATOM      7  C   UNL     1       5.846   5.406  17.249  0.00  0.00    +0.000 A 
ATOM      8 CL   UNL     1       7.203   6.067  16.423  0.00  0.00    +0.000 Cl
ATOM      9  C   UNL     1       5.496   4.082  17.048  0.00  0.00    +0.000 A 
ATOM     10  C   UNL     1       4.396   3.555  17.723  0.00  0.00    +0.000 A 
ATOM     11  C   UNL     1       3.607   4.358  18.581  0.00  0.00    +0.000 A 
BRANCH  11  12
ATOM     12  N   UNL     1       2.466   3.765  19.193  0.00  0.00    +0.000 N 
ATOM     13  C   UNL     1       1.431   3.073  18.595  0.00  0.00    +0.000 A 
ATOM     14  N   UNL     1       0.537   2.714  19.483  0.00  0.00    +0.000 NA
ATOM     15  C   UNL     1       1.057   3.197  20.644  0.00  0.00    +0.000 A 
ATOM     16  N   UNL     1       2.232   3.823  20.531  0.00  0.00    +0.000 NA
ENDBRANCH  11  12
ENDBRANCH   3   5
BRANCH   2  17
ATOM     17  C   UNL     1       1.569   8.386  20.038  0.00  0.00    +0.000 A 
ATOM     18  C   UNL     1       1.256   8.065  21.348  0.00  0.00    +0.000 A 
ATOM     19  C   UNL     1       0.525   9.142  21.877  0.00  0.00    +0.000 A 
ATOM     20  C   UNL     1       0.402  10.060  20.855  0.00  0.00    +0.000 A 
ATOM     21  O   UNL     1       1.057   9.619  19.731  0.00  0.00    +0.000 OA
BRANCH  20  22
ATOM     22  C   UNL     1      -0.400  11.307  20.763  0.00  0.00    +0.000 C 
BRANCH  22  23
ATOM     23  O   UNL     1      -0.500  11.685  19.389  0.00  0.00    +0.000 OA
BRANCH  23  24
ATOM     24  C   UNL     1      -1.669  11.321  18.766  0.00  0.00    +0.000 A 
ATOM     25  C   UNL     1      -2.813  11.987  19.221  0.00  0.00    +0.000 A 
ATOM     26  C   UNL     1      -4.068  11.710  18.666  0.00  0.00    +0.000 A 
ATOM     27  C   UNL     1      -4.195  10.762  17.653  0.00  0.00    +0.000 A 
ATOM     28  C   UNL     1      -3.066  10.089  17.196  0.00  0.00    +0.000 A 
ATOM     29  C   UNL     1      -1.818  10.371  17.747  0.00  0.00    +0.000 A 
ATOM     30  F   UNL     1      -0.771   9.690  17.260  0.00  0.00    +0.000 F 
ENDBRANCH  23  24
ENDBRANCH  22  23
ENDBRANCH  20  22
ENDBRANCH   2  17
TORSDOF 6
ENDMDL
MODEL 5
REMARK VINA RESULT:      -8.0      1.646      2.002
REMARK  Name = 
REMARK  6 active torsions:
REMARK  status: ('A' for Active; 'I' for Inactive)
REMARK    1  A    between atoms: C_2  and  C_16
REMARK    2  A    between atoms: N_3  and  C_4
REMARK    3  A    between atoms: C_10  and  N_11
REMARK    4  A    between atoms: C_19  and  C_20
REMARK    5  A    between atoms: C_20  and  O_21
REMARK    6  A    between atoms: O_21  and  C_22
REMARK                            x       y       z     vdW  Elec       q    Type
REMARK                         _______ _______ _______ _____ _____    ______ ____
ROOT
ATOM      1  O   UNL     1       4.083   7.124  17.266  0.00  0.00    +0.000 OA
ATOM      2  C   UNL     1       3.848   6.010  17.735  0.00  0.00    +0.000 C 
ATOM      3  N   UNL     1       4.338   4.831  17.181  0.00  0.00    +0.000 N 
ATOM      4  H   UNL     1       3.893   3.959  17.479  0.00  0.00    +0.000 HD
ENDROOT
BRANCH   3   5
ATOM      5  C   UNL     1       5.216   4.758  16.056  0.00  0.00    +0.000 A 
ATOM      6  C   UNL     1       4.739   4.271  14.823  0.00  0.00    +0.000 A 
ATOM      7  C   UNL     1       5.575   4.103  13.722  0.00  0.00    +0.000 A 
ATOM      8 CL   UNL     1       4.955   3.436  12.263  0.00  0.00    +0.000 Cl
ATOM      9  C   UNL     1       6.909   4.462  13.802  0.00  0.00    +0.000 A 
ATOM     10  C   UNL     1       7.404   5.003  14.988  0.00  0.00    +0.000 A 
ATOM     11  C   UNL     1       6.575   5.156  16.126  0.00  0.00    +0.000 A 
BRANCH  11  12
ATOM     12  N   UNL     1       7.164   5.664  17.319  0.00  0.00    +0.000 N 
ATOM     13  C   UNL     1       7.638   6.937  17.570  0.00  0.00    +0.000 A 
ATOM     14  N   UNL     1       8.149   7.013  18.774  0.00  0.00    +0.000 NA
ATOM     15  C   UNL     1       7.967   5.755  19.259  0.00  0.00    +0.000 A 
ATOM     16  N   UNL     1       7.357   4.903  18.429  0.00  0.00    +0.000 NA
ENDBRANCH  11  12
ENDBRANCH   3   5
BRANCH   2  17
ATOM     17  C   UNL     1       2.984   5.903  18.896  0.00  0.00    +0.000 A 
ATOM     18  C   UNL     1       2.439   4.746  19.426  0.00  0.00    +0.000 A 
ATOM     19  C   UNL     1       1.619   5.126  20.501  0.00  0.00    +0.000 A 
ATOM     20  C   UNL     1       1.680   6.503  20.561  0.00  0.00    +0.000 A 
ATOM     21  O   UNL     1       2.530   6.989  19.598  0.00  0.00    +0.000 OA
BRANCH  20  22
ATOM     22  C   UNL     1       0.902   7.474  21.373  0.00  0.00    +0.000 C 
BRANCH  22  23
ATOM     23  O   UNL     1       1.254   8.797  20.964  0.00  0.00    +0.000 OA
BRANCH  23  24
ATOM     24  C   UNL     1       0.362   9.778  21.326  0.00  0.00    +0.000 A 
ATOM     25  C   UNL     1      -0.125  10.553  20.266  0.00  0.00    +0.000 A 
ATOM     26  C   UNL     1      -1.042  11.584  20.500  0.00  0.00    +0.000 A 
ATOM     27  C   UNL     1      -1.479  11.856  21.795  0.00  0.00    +0.000 A 
ATOM     28  C   UNL     1      -0.998  11.097  22.857  0.00  0.00    +0.000 A 
ATOM     29  C   UNL     1      -0.089  10.069  22.620  0.00  0.00    +0.000 A 
ATOM     30  F   UNL     1       0.333   9.373  23.686  0.00  0.00    +0.000 F 
ENDBRANCH  23  24
ENDBRANCH  22  23
ENDBRANCH  20  22
ENDBRANCH   2  17
TORSDOF 6
ENDMDL
MODEL 6
REMARK VINA RESULT:      -7.9      1.406      1.604
REMARK  Name = 
REMARK  6 active torsions:
REMARK  status: ('A' for Active; 'I' for Inactive)
REMARK    1  A    between atoms: C_2  and  C_16
REMARK    2  A    between atoms: N_3  and  C_4
REMARK    3  A    between atoms: C_10  and  N_11
REMARK    4  A    between atoms: C_19  and  C_20
REMARK    5  A    between atoms: C_20  and  O_21
REMARK    6  A    between atoms: O_21  and  C_22
REMARK                            x       y       z     vdW  Elec       q    Type
REMARK                         _______ _______ _______ _____ _____    ______ ____
ROOT
ATOM      1  O   UNL     1       4.031   7.120  17.246  0.00  0.00    +0.000 OA
ATOM      2  C   UNL     1       3.871   6.017  17.770  0.00  0.00    +0.000 C 
ATOM      3  N   UNL     1       4.413   4.843  17.254  0.00  0.00    +0.000 N 
ATOM      4  H   UNL     1       4.025   3.962  17.601  0.00  0.00    +0.000 HD
ENDROOT
BRANCH   3   5
ATOM      5  C   UNL     1       5.267   4.768  16.110  0.00  0.00    +0.000 A 
ATOM      6  C   UNL     1       4.767   4.263  14.893  0.00  0.00    +0.000 A 
ATOM      7  C   UNL     1       5.580   4.093  13.776  0.00  0.00    +0.000 A 
ATOM      8 CL   UNL     1       4.935   3.404  12.338  0.00  0.00    +0.000 Cl
ATOM      9  C   UNL     1       6.912   4.468  13.821  0.00  0.00    +0.000 A 
ATOM     10  C   UNL     1       7.426   5.027  14.990  0.00  0.00    +0.000 A 
ATOM     11  C   UNL     1       6.622   5.182  16.145  0.00  0.00    +0.000 A 
BRANCH  11  12
ATOM     12  N   UNL     1       7.231   5.709  17.320  0.00  0.00    +0.000 N 
ATOM     13  C   UNL     1       7.654   7.002  17.564  0.00  0.00    +0.000 A 
ATOM     14  N   UNL     1       8.207   7.094  18.748  0.00  0.00    +0.000 NA
ATOM     15  C   UNL     1       8.103   5.825  19.228  0.00  0.00    +0.000 A 
ATOM     16  N   UNL     1       7.503   4.950  18.415  0.00  0.00    +0.000 NA
ENDBRANCH  11  12
ENDBRANCH   3   5
BRANCH   2  17
ATOM     17  C   UNL     1       3.043   5.914  18.956  0.00  0.00    +0.000 A 
ATOM     18  C   UNL     1       2.794   4.775  19.704  0.00  0.00    +0.000 A 
ATOM     19  C   UNL     1       1.889   5.132  20.717  0.00  0.00    +0.000 A 
ATOM     20  C   UNL     1       1.605   6.468  20.524  0.00  0.00    +0.000 A 
ATOM     21  O   UNL     1       2.323   6.964  19.464  0.00  0.00    +0.000 OA
BRANCH  20  22
ATOM     22  C   UNL     1       0.597   7.349  21.171  0.00  0.00    +0.000 C 
BRANCH  22  23
ATOM     23  O   UNL     1       1.277   8.448  21.781  0.00  0.00    +0.000 OA
BRANCH  23  24
ATOM     24  C   UNL     1       0.550   9.611  21.866  0.00  0.00    +0.000 A 
ATOM     25  C   UNL     1      -0.272   9.713  22.995  0.00  0.00    +0.000 A 
ATOM     26  C   UNL     1      -1.062  10.849  23.202  0.00  0.00    +0.000 A 
ATOM     27  C   UNL     1      -1.044  11.895  22.281  0.00  0.00    +0.000 A 
ATOM     28  C   UNL     1      -0.236  11.803  21.152  0.00  0.00    +0.000 A 
ATOM     29  C   UNL     1       0.552  10.673  20.952  0.00  0.00    +0.000 A 
ATOM     30  F   UNL     1       1.310  10.648  19.846  0.00  0.00    +0.000 F 
ENDBRANCH  23  24
ENDBRANCH  22  23
ENDBRANCH  20  22
ENDBRANCH   2  17
TORSDOF 6
ENDMDL
MODEL 7
REMARK VINA RESULT:      -7.9      3.065      5.021
REMARK  Name = 
REMARK  6 active torsions:
REMARK  status: ('A' for Active; 'I' for Inactive)
REMARK    1  A    between atoms: C_2  and  C_16
REMARK    2  A    between atoms: N_3  and  C_4
REMARK    3  A    between atoms: C_10  and  N_11
REMARK    4  A    between atoms: C_19  and  C_20
REMARK    5  A    between atoms: C_20  and  O_21
REMARK    6  A    between atoms: O_21  and  C_22
REMARK                            x       y       z     vdW  Elec       q    Type
REMARK                         _______ _______ _______ _____ _____    ______ ____
ROOT
ATOM      1  O   UNL     1       2.540   8.100  17.827  0.00  0.00    +0.000 OA
ATOM      2  C   UNL     1       2.407   7.643  18.963  0.00  0.00    +0.000 C 
ATOM      3  N   UNL     1       2.953   6.425  19.362  0.00  0.00    +0.000 N 
ATOM      4  H   UNL     1       2.586   6.014  20.223  0.00  0.00    +0.000 HD
ENDROOT
BRANCH   3   5
ATOM      5  C   UNL     1       3.779   5.592  18.548  0.00  0.00    +0.000 A 
ATOM      6  C   UNL     1       4.928   6.128  17.932  0.00  0.00    +0.000 A 
ATOM      7  C   UNL     1       5.718   5.378  17.064  0.00  0.00    +0.000 A 
ATOM      8 CL   UNL     1       7.067   6.105  16.282  0.00  0.00    +0.000 Cl
ATOM      9  C   UNL     1       5.414   4.050  16.819  0.00  0.00    +0.000 A 
ATOM     10  C   UNL     1       4.320   3.469  17.458  0.00  0.00    +0.000 A 
ATOM     11  C   UNL     1       3.489   4.222  18.322  0.00  0.00    +0.000 A 
BRANCH  11  12
ATOM     12  N   UNL     1       2.357   3.576  18.895  0.00  0.00    +0.000 N 
ATOM     13  C   UNL     1       1.350   2.878  18.256  0.00  0.00    +0.000 A 
ATOM     14  N   UNL     1       0.454   2.462  19.117  0.00  0.00    +0.000 NA
ATOM     15  C   UNL     1       0.944   2.916  20.303  0.00  0.00    +0.000 A 
ATOM     16  N   UNL     1       2.102   3.579  20.230  0.00  0.00    +0.000 NA
ENDBRANCH  11  12
ENDBRANCH   3   5
BRANCH   2  17
ATOM     17  C   UNL     1       1.609   8.374  19.928  0.00  0.00    +0.000 A 
ATOM     18  C   UNL     1       1.181   7.927  21.167  0.00  0.00    +0.000 A 
ATOM     19  C   UNL     1       0.385   8.942  21.724  0.00  0.00    +0.000 A 
ATOM     20  C   UNL     1       0.342   9.953  20.787  0.00  0.00    +0.000 A 
ATOM     21  O   UNL     1       1.107   9.628  19.693  0.00  0.00    +0.000 OA
BRANCH  20  22
ATOM     22  C   UNL     1      -0.469  11.197  20.738  0.00  0.00    +0.000 C 
BRANCH  22  23
ATOM     23  O   UNL     1      -0.619  11.591  19.373  0.00  0.00    +0.000 OA
BRANCH  23  24
ATOM     24  C   UNL     1      -1.846  11.320  18.816  0.00  0.00    +0.000 A 
ATOM     25  C   UNL     1      -1.862  10.249  17.915  0.00  0.00    +0.000 A 
ATOM     26  C   UNL     1      -3.051   9.869  17.281  0.00  0.00    +0.000 A 
ATOM     27  C   UNL     1      -4.235  10.557  17.537  0.00  0.00    +0.000 A 
ATOM     28  C   UNL     1      -4.231  11.627  18.426  0.00  0.00    +0.000 A 
ATOM     29  C   UNL     1      -3.047  12.000  19.059  0.00  0.00    +0.000 A 
ATOM     30  F   UNL     1      -3.112  13.037  19.906  0.00  0.00    +0.000 F 
ENDBRANCH  23  24
ENDBRANCH  22  23
ENDBRANCH  20  22
ENDBRANCH   2  17
TORSDOF 6
ENDMDL
MODEL 8
REMARK VINA RESULT:      -7.8      3.323      5.381
REMARK  Name = 
REMARK  6 active torsions:
REMARK  status: ('A' for Active; 'I' for Inactive)
REMARK    1  A    between atoms: C_2  and  C_16
REMARK    2  A    between atoms: N_3  and  C_4
REMARK    3  A    between atoms: C_10  and  N_11
REMARK    4  A    between atoms: C_19  and  C_20
REMARK    5  A    between atoms: C_20  and  O_21
REMARK    6  A    between atoms: O_21  and  C_22
REMARK                            x       y       z     vdW  Elec       q    Type
REMARK                         _______ _______ _______ _____ _____    ______ ____
ROOT
ATOM      1  O   UNL     1       2.264   7.996  17.934  0.00  0.00    +0.000 OA
ATOM      2  C   UNL     1       2.300   7.637  19.112  0.00  0.00    +0.000 C 
ATOM      3  N   UNL     1       2.993   6.509  19.543  0.00  0.00    +0.000 N 
ATOM      4  H   UNL     1       2.762   6.152  20.474  0.00  0.00    +0.000 HD
ENDROOT
BRANCH   3   5
ATOM      5  C   UNL     1       3.793   5.669  18.709  0.00  0.00    +0.000 A 
ATOM      6  C   UNL     1       4.975   6.175  18.131  0.00  0.00    +0.000 A 
ATOM      7  C   UNL     1       5.743   5.423  17.246  0.00  0.00    +0.000 A 
ATOM      8 CL   UNL     1       7.137   6.116  16.513  0.00  0.00    +0.000 Cl
ATOM      9  C   UNL     1       5.383   4.122  16.944  0.00  0.00    +0.000 A 
ATOM     10  C   UNL     1       4.252   3.568  17.543  0.00  0.00    +0.000 A 
ATOM     11  C   UNL     1       3.443   4.325  18.425  0.00  0.00    +0.000 A 
BRANCH  11  12
ATOM     12  N   UNL     1       2.273   3.710  18.955  0.00  0.00    +0.000 N 
ATOM     13  C   UNL     1       1.395   2.848  18.328  0.00  0.00    +0.000 A 
ATOM     14  N   UNL     1       0.409   2.525  19.129  0.00  0.00    +0.000 NA
ATOM     15  C   UNL     1       0.712   3.206  20.268  0.00  0.00    +0.000 A 
ATOM     16  N   UNL     1       1.839   3.923  20.226  0.00  0.00    +0.000 NA
ENDBRANCH  11  12
ENDBRANCH   3   5
BRANCH   2  17
ATOM     17  C   UNL     1       1.555   8.391  20.101  0.00  0.00    +0.000 A 
ATOM     18  C   UNL     1       1.128   7.947  21.341  0.00  0.00    +0.000 A 
ATOM     19  C   UNL     1       0.390   8.990  21.926  0.00  0.00    +0.000 A 
ATOM     20  C   UNL     1       0.377  10.014  21.003  0.00  0.00    +0.000 A 
ATOM     21  O   UNL     1       1.106   9.670  19.891  0.00  0.00    +0.000 OA
BRANCH  20  22
ATOM     22  C   UNL     1      -0.377  11.295  20.985  0.00  0.00    +0.000 C 
BRANCH  22  23
ATOM     23  O   UNL     1      -0.018  12.052  22.142  0.00  0.00    +0.000 OA
BRANCH  23  24
ATOM     24  C   UNL     1      -1.069  12.634  22.809  0.00  0.00    +0.000 A 
ATOM     25  C   UNL     1      -2.169  11.796  23.025  0.00  0.00    +0.000 A 
ATOM     26  C   UNL     1      -3.304  12.266  23.696  0.00  0.00    +0.000 A 
ATOM     27  C   UNL     1      -3.354  13.581  24.155  0.00  0.00    +0.000 A 
ATOM     28  C   UNL     1      -2.270  14.426  23.942  0.00  0.00    +0.000 A 
ATOM     29  C   UNL     1      -1.141  13.953  23.278  0.00  0.00    +0.000 A 
ATOM     30  F   UNL     1      -0.129  14.817  23.108  0.00  0.00    +0.000 F 
ENDBRANCH  23  24
ENDBRANCH  22  23
ENDBRANCH  20  22
ENDBRANCH   2  17
TORSDOF 6
ENDMDL
MODEL 9
REMARK VINA RESULT:      -7.8      2.733      4.631
REMARK  Name = 
REMARK  6 active torsions:
REMARK  status: ('A' for Active; 'I' for Inactive)
REMARK    1  A    between atoms: C_2  and  C_16
REMARK    2  A    between atoms: N_3  and  C_4
REMARK    3  A    between atoms: C_10  and  N_11
REMARK    4  A    between atoms: C_19  and  C_20
REMARK    5  A    between atoms: C_20  and  O_21
REMARK    6  A    between atoms: O_21  and  C_22
REMARK                            x       y       z     vdW  Elec       q    Type
REMARK                         _______ _______ _______ _____ _____    ______ ____
ROOT
ATOM      1  O   UNL     1       3.654   5.994  20.044  0.00  0.00    +0.000 OA
ATOM      2  C   UNL     1       3.001   6.619  19.207  0.00  0.00    +0.000 C 
ATOM      3  N   UNL     1       3.116   6.405  17.836  0.00  0.00    +0.000 N 
ATOM      4  H   UNL     1       2.734   7.128  17.221  0.00  0.00    +0.000 HD
ENDROOT
BRANCH   3   5
ATOM      5  C   UNL     1       3.938   5.406  17.229  0.00  0.00    +0.000 A 
ATOM      6  C   UNL     1       5.036   5.790  16.433  0.00  0.00    +0.000 A 
ATOM      7  C   UNL     1       5.816   4.858  15.753  0.00  0.00    +0.000 A 
ATOM      8 CL   UNL     1       7.099   5.386  14.737  0.00  0.00    +0.000 Cl
ATOM      9  C   UNL     1       5.555   3.505  15.886  0.00  0.00    +0.000 A 
ATOM     10  C   UNL     1       4.514   3.086  16.713  0.00  0.00    +0.000 A 
ATOM     11  C   UNL     1       3.693   4.019  17.390  0.00  0.00    +0.000 A 
BRANCH  11  12
ATOM     12  N   UNL     1       2.614   3.518  18.173  0.00  0.00    +0.000 N 
ATOM     13  C   UNL     1       2.668   2.789  19.345  0.00  0.00    +0.000 A 
ATOM     14  N   UNL     1       1.463   2.471  19.750  0.00  0.00    +0.000 NA
ATOM     15  C   UNL     1       0.668   3.032  18.799  0.00  0.00    +0.000 A 
ATOM     16  N   UNL     1       1.310   3.696  17.832  0.00  0.00    +0.000 NA
ENDBRANCH  11  12
ENDBRANCH   3   5
BRANCH   2  17
ATOM     17  C   UNL     1       2.098   7.662  19.655  0.00  0.00    +0.000 A 
ATOM     18  C   UNL     1       1.382   7.694  20.840  0.00  0.00    +0.000 A 
ATOM     19  C   UNL     1       0.593   8.856  20.819  0.00  0.00    +0.000 A 
ATOM     20  C   UNL     1       0.844   9.467  19.608  0.00  0.00    +0.000 A 
ATOM     21  O   UNL     1       1.781   8.759  18.897  0.00  0.00    +0.000 OA
BRANCH  20  22
ATOM     22  C   UNL     1       0.186  10.628  18.953  0.00  0.00    +0.000 C 
BRANCH  22  23
ATOM     23  O   UNL     1      -1.184  10.663  19.356  0.00  0.00    +0.000 OA
BRANCH  23  24
ATOM     24  C   UNL     1      -2.094  10.749  18.329  0.00  0.00    +0.000 A 
ATOM     25  C   UNL     1      -1.730  10.070  17.160  0.00  0.00    +0.000 A 
ATOM     26  C   UNL     1      -2.571  10.076  16.041  0.00  0.00    +0.000 A 
ATOM     27  C   UNL     1      -3.782  10.764  16.076  0.00  0.00    +0.000 A 
ATOM     28  C   UNL     1      -4.152  11.448  17.230  0.00  0.00    +0.000 A 
ATOM     29  C   UNL     1      -3.315  11.435  18.343  0.00  0.00    +0.000 A 
ATOM     30  F   UNL     1      -3.731  12.111  19.424  0.00  0.00    +0.000 F 
ENDBRANCH  23  24
ENDBRANCH  22  23
ENDBRANCH  20  22
ENDBRANCH   2  17
TORSDOF 6
ENDMDL
