MODEL 1
REMARK VINA RESULT:      -8.7      0.000      0.000
REMARK  Name = 
REMARK  8 active torsions:
REMARK  status: ('A' for Active; 'I' for Inactive)
REMARK    1  A    between atoms: C_1  and  C_2
REMARK    2  A    between atoms: C_5  and  S_6
REMARK    3  A    between atoms: S_6  and  N_9
REMARK    4  A    between atoms: N_9  and  C_10
REMARK    5  A    between atoms: C_10  and  C_11
REMARK    6  A    between atoms: C_18  and  C_19
REMARK    7  A    between atoms: C_24  and  C_25
REMARK    8  A    between atoms: N_27  and  C_28
REMARK                            x       y       z     vdW  Elec       q    Type
REMARK                         _______ _______ _______ _____ _____    ______ ____
ROOT
ATOM      1  C   UNL     1       1.238   4.419  18.031  0.00  0.00    +0.000 C 
ATOM      2  C   UNL     1       2.719   4.682  18.069  0.00  0.00    +0.000 A 
ATOM      3  C   UNL     1       3.534   3.922  17.208  0.00  0.00    +0.000 A 
ATOM      4  C   UNL     1       4.908   4.134  17.151  0.00  0.00    +0.000 A 
ATOM      5  C   UNL     1       5.501   5.017  18.048  0.00  0.00    +0.000 A 
ATOM      6  C   UNL     1       4.722   5.693  18.990  0.00  0.00    +0.000 A 
ATOM      7  C   UNL     1       3.323   5.617  18.939  0.00  0.00    +0.000 A 
ENDROOT
BRANCH   7   8
ATOM      8  C   UNL     1       2.511   6.518  19.822  0.00  0.00    +0.000 C 
ATOM      9  O   UNL     1       2.260   6.106  20.955  0.00  0.00    +0.000 OA
ATOM     10  N   UNL     1       2.045   7.767  19.357  0.00  0.00    +0.000 N 
ATOM     11  C   UNL     1       1.463   8.678  20.347  0.00  0.00    +0.000 C 
ATOM     12  C   UNL     1       0.264   9.450  19.786  0.00  0.00    +0.000 C 
ATOM     13  C   UNL     1       0.586  10.159  18.459  0.00  0.00    +0.000 C 
ATOM     14  C   UNL     1       1.146   9.132  17.477  0.00  0.00    +0.000 C 
ATOM     15  C   UNL     1       2.336   8.376  18.055  0.00  0.00    +0.000 C 
BRANCH  13  16
ATOM     16  C   UNL     1       1.525  11.353  18.674  0.00  0.00    +0.000 C 
ATOM     17  O   UNL     1       2.604  11.418  18.095  0.00  0.00    +0.000 OA
ATOM     18  N   UNL     1       1.064  12.273  19.604  0.00  0.00    +0.000 N 
ATOM     19  H   UNL     1       0.291  11.996  20.194  0.00  0.00    +0.000 HD
BRANCH  18  20
ATOM     20  C   UNL     1       1.699  13.491  19.941  0.00  0.00    +0.000 A 
ATOM     21  C   UNL     1       1.372  14.714  19.347  0.00  0.00    +0.000 A 
ATOM     22  C   UNL     1       2.063  15.880  19.684  0.00  0.00    +0.000 A 
ATOM     23  C   UNL     1       3.084  15.840  20.627  0.00  0.00    +0.000 A 
ATOM     24  C   UNL     1       3.396  14.633  21.254  0.00  0.00    +0.000 A 
ATOM     25  C   UNL     1       2.697  13.467  20.922  0.00  0.00    +0.000 A 
ENDBRANCH  18  20
ENDBRANCH  13  16
ENDBRANCH   7   8
BRANCH   5  26
ATOM     26  S   UNL     1       7.219   5.448  17.891  0.00  0.00    +0.000 S 
ATOM     27  O   UNL     1       7.307   6.886  17.995  0.00  0.00    +0.000 OA
ATOM     28  O   UNL     1       7.960   4.577  18.778  0.00  0.00    +0.000 OA
BRANCH  26  29
ATOM     29  N   UNL     1       7.596   4.981  16.317  0.00  0.00    +0.000 NA
ATOM     30  H   UNL     1       7.591   3.968  16.200  0.00  0.00    +0.000 HD
BRANCH  29  31
ATOM     31  C   UNL     1       6.883   5.698  15.253  0.00  0.00    +0.000 C 
BRANCH  31  32
ATOM     32  C   UNL     1       6.755   4.869  14.003  0.00  0.00    +0.000 A 
ATOM     33  C   UNL     1       5.677   3.990  13.836  0.00  0.00    +0.000 A 
ATOM     34  C   UNL     1       5.535   3.268  12.651  0.00  0.00    +0.000 A 
ATOM     35  C   UNL     1       6.471   3.415  11.628  0.00  0.00    +0.000 A 
ATOM     36  C   UNL     1       7.554   4.278  11.790  0.00  0.00    +0.000 A 
ATOM     37  C   UNL     1       7.697   5.002  12.973  0.00  0.00    +0.000 A 
ENDBRANCH  31  32
ENDBRANCH  29  31
ENDBRANCH  26  29
ENDBRANCH   5  26
TORSDOF 7
ENDMDL
MODEL 2
REMARK VINA RESULT:      -8.6      0.519      1.255
REMARK  Name = 
REMARK  8 active torsions:
REMARK  status: ('A' for Active; 'I' for Inactive)
REMARK    1  A    between atoms: C_1  and  C_2
REMARK    2  A    between atoms: C_5  and  S_6
REMARK    3  A    between atoms: S_6  and  N_9
REMARK    4  A    between atoms: N_9  and  C_10
REMARK    5  A    between atoms: C_10  and  C_11
REMARK    6  A    between atoms: C_18  and  C_19
REMARK    7  A    between atoms: C_24  and  C_25
REMARK    8  A    between atoms: N_27  and  C_28
REMARK                            x       y       z     vdW  Elec       q    Type
REMARK                         _______ _______ _______ _____ _____    ______ ____
ROOT
ATOM      1  C   UNL     1       1.267   3.909  18.693  0.00  0.00    +0.000 C 
ATOM      2  C   UNL     1       2.686   4.344  18.438  0.00  0.00    +0.000 A 
ATOM      3  C   UNL     1       3.462   3.547  17.575  0.00  0.00    +0.000 A 
ATOM      4  C   UNL     1       4.768   3.904  17.254  0.00  0.00    +0.000 A 
ATOM      5  C   UNL     1       5.356   4.992  17.892  0.00  0.00    +0.000 A 
ATOM      6  C   UNL     1       4.639   5.724  18.841  0.00  0.00    +0.000 A 
ATOM      7  C   UNL     1       3.273   5.479  19.041  0.00  0.00    +0.000 A 
ENDROOT
BRANCH   7   8
ATOM      8  C   UNL     1       2.482   6.418  19.904  0.00  0.00    +0.000 C 
ATOM      9  O   UNL     1       2.238   6.045  21.051  0.00  0.00    +0.000 OA
ATOM     10  N   UNL     1       2.028   7.658  19.404  0.00  0.00    +0.000 N 
ATOM     11  C   UNL     1       1.468   8.607  20.371  0.00  0.00    +0.000 C 
ATOM     12  C   UNL     1       0.272   9.376  19.798  0.00  0.00    +0.000 C 
ATOM     13  C   UNL     1       0.589  10.039  18.447  0.00  0.00    +0.000 C 
ATOM     14  C   UNL     1       1.125   8.975  17.491  0.00  0.00    +0.000 C 
ATOM     15  C   UNL     1       2.312   8.221  18.081  0.00  0.00    +0.000 C 
BRANCH  13  16
ATOM     16  C   UNL     1       1.545  11.227  18.614  0.00  0.00    +0.000 C 
ATOM     17  O   UNL     1       2.603  11.277  17.994  0.00  0.00    +0.000 OA
ATOM     18  N   UNL     1       1.128  12.160  19.551  0.00  0.00    +0.000 N 
ATOM     19  H   UNL     1       0.375  11.895  20.173  0.00  0.00    +0.000 HD
BRANCH  18  20
ATOM     20  C   UNL     1       1.785  13.376  19.851  0.00  0.00    +0.000 A 
ATOM     21  C   UNL     1       2.697  13.513  20.902  0.00  0.00    +0.000 A 
ATOM     22  C   UNL     1       3.282  14.749  21.184  0.00  0.00    +0.000 A 
ATOM     23  C   UNL     1       2.972  15.863  20.412  0.00  0.00    +0.000 A 
ATOM     24  C   UNL     1       2.092  15.731  19.337  0.00  0.00    +0.000 A 
ATOM     25  C   UNL     1       1.511  14.491  19.050  0.00  0.00    +0.000 A 
ENDBRANCH  18  20
ENDBRANCH  13  16
ENDBRANCH   7   8
BRANCH   5  26
ATOM     26  S   UNL     1       6.952   5.586  17.381  0.00  0.00    +0.000 S 
ATOM     27  O   UNL     1       7.194   6.819  18.093  0.00  0.00    +0.000 OA
ATOM     28  O   UNL     1       7.870   4.469  17.464  0.00  0.00    +0.000 OA
BRANCH  26  29
ATOM     29  N   UNL     1       6.738   5.923  15.745  0.00  0.00    +0.000 NA
ATOM     30  H   UNL     1       6.685   6.924  15.556  0.00  0.00    +0.000 HD
BRANCH  29  31
ATOM     31  C   UNL     1       7.624   5.199  14.825  0.00  0.00    +0.000 C 
BRANCH  31  32
ATOM     32  C   UNL     1       6.857   4.518  13.723  0.00  0.00    +0.000 A 
ATOM     33  C   UNL     1       7.456   4.275  12.480  0.00  0.00    +0.000 A 
ATOM     34  C   UNL     1       6.758   3.593  11.484  0.00  0.00    +0.000 A 
ATOM     35  C   UNL     1       5.456   3.154  11.720  0.00  0.00    +0.000 A 
ATOM     36  C   UNL     1       4.848   3.401  12.949  0.00  0.00    +0.000 A 
ATOM     37  C   UNL     1       5.544   4.081  13.947  0.00  0.00    +0.000 A 
ENDBRANCH  31  32
ENDBRANCH  29  31
ENDBRANCH  26  29
ENDBRANCH   5  26
TORSDOF 7
ENDMDL
MODEL 3
REMARK VINA RESULT:      -8.5      1.105      1.527
REMARK  Name = 
REMARK  8 active torsions:
REMARK  status: ('A' for Active; 'I' for Inactive)
REMARK    1  A    between atoms: C_1  and  C_2
REMARK    2  A    between atoms: C_5  and  S_6
REMARK    3  A    between atoms: S_6  and  N_9
REMARK    4  A    between atoms: N_9  and  C_10
REMARK    5  A    between atoms: C_10  and  C_11
REMARK    6  A    between atoms: C_18  and  C_19
REMARK    7  A    between atoms: C_24  and  C_25
REMARK    8  A    between atoms: N_27  and  C_28
REMARK                            x       y       z     vdW  Elec       q    Type
REMARK                         _______ _______ _______ _____ _____    ______ ____
ROOT
ATOM      1  C   UNL     1       1.174   3.952  18.625  0.00  0.00    +0.000 C 
ATOM      2  C   UNL     1       2.563   4.497  18.426  0.00  0.00    +0.000 A 
ATOM      3  C   UNL     1       3.391   3.835  17.499  0.00  0.00    +0.000 A 
ATOM      4  C   UNL     1       4.673   4.302  17.225  0.00  0.00    +0.000 A 
ATOM      5  C   UNL     1       5.190   5.357  17.970  0.00  0.00    +0.000 A 
ATOM      6  C   UNL     1       4.424   5.950  18.977  0.00  0.00    +0.000 A 
ATOM      7  C   UNL     1       3.076   5.603  19.141  0.00  0.00    +0.000 A 
ENDROOT
BRANCH   7   8
ATOM      8  C   UNL     1       2.225   6.404  20.081  0.00  0.00    +0.000 C 
ATOM      9  O   UNL     1       1.961   5.887  21.167  0.00  0.00    +0.000 OA
ATOM     10  N   UNL     1       1.740   7.679  19.718  0.00  0.00    +0.000 N 
ATOM     11  C   UNL     1       1.116   8.485  20.771  0.00  0.00    +0.000 C 
ATOM     12  C   UNL     1      -0.089   9.278  20.253  0.00  0.00    +0.000 C 
ATOM     13  C   UNL     1       0.243  10.109  19.002  0.00  0.00    +0.000 C 
ATOM     14  C   UNL     1       0.847   9.186  17.946  0.00  0.00    +0.000 C 
ATOM     15  C   UNL     1       2.043   8.407  18.481  0.00  0.00    +0.000 C 
BRANCH  13  16
ATOM     16  C   UNL     1       1.149  11.299  19.343  0.00  0.00    +0.000 C 
ATOM     17  O   UNL     1       1.700  11.380  20.436  0.00  0.00    +0.000 OA
ATOM     18  N   UNL     1       1.218  12.259  18.344  0.00  0.00    +0.000 N 
ATOM     19  H   UNL     1       0.536  12.210  17.599  0.00  0.00    +0.000 HD
BRANCH  18  20
ATOM     20  C   UNL     1       2.028  13.419  18.372  0.00  0.00    +0.000 A 
ATOM     21  C   UNL     1       3.397  13.403  18.090  0.00  0.00    +0.000 A 
ATOM     22  C   UNL     1       4.159  14.570  18.177  0.00  0.00    +0.000 A 
ATOM     23  C   UNL     1       3.559  15.772  18.538  0.00  0.00    +0.000 A 
ATOM     24  C   UNL     1       2.186  15.808  18.786  0.00  0.00    +0.000 A 
ATOM     25  C   UNL     1       1.422  14.640  18.691  0.00  0.00    +0.000 A 
ENDBRANCH  18  20
ENDBRANCH  13  16
ENDBRANCH   7   8
BRANCH   5  26
ATOM     26  S   UNL     1       6.747   6.095  17.533  0.00  0.00    +0.000 S 
ATOM     27  O   UNL     1       6.456   7.373  16.924  0.00  0.00    +0.000 OA
ATOM     28  O   UNL     1       7.611   5.985  18.690  0.00  0.00    +0.000 OA
BRANCH  26  29
ATOM     29  N   UNL     1       7.360   5.050  16.364  0.00  0.00    +0.000 NA
ATOM     30  H   UNL     1       6.868   4.157  16.342  0.00  0.00    +0.000 HD
BRANCH  29  31
ATOM     31  C   UNL     1       7.569   5.636  15.034  0.00  0.00    +0.000 C 
BRANCH  31  32
ATOM     32  C   UNL     1       6.922   4.817  13.949  0.00  0.00    +0.000 A 
ATOM     33  C   UNL     1       7.595   4.566  12.746  0.00  0.00    +0.000 A 
ATOM     34  C   UNL     1       7.011   3.759  11.769  0.00  0.00    +0.000 A 
ATOM     35  C   UNL     1       5.751   3.204  11.985  0.00  0.00    +0.000 A 
ATOM     36  C   UNL     1       5.069   3.458  13.173  0.00  0.00    +0.000 A 
ATOM     37  C   UNL     1       5.651   4.263  14.152  0.00  0.00    +0.000 A 
ENDBRANCH  31  32
ENDBRANCH  29  31
ENDBRANCH  26  29
ENDBRANCH   5  26
TORSDOF 7
ENDMDL
MODEL 4
REMARK VINA RESULT:      -8.3      2.657      3.937
REMARK  Name = 
REMARK  8 active torsions:
REMARK  status: ('A' for Active; 'I' for Inactive)
REMARK    1  A    between atoms: C_1  and  C_2
REMARK    2  A    between atoms: C_5  and  S_6
REMARK    3  A    between atoms: S_6  and  N_9
REMARK    4  A    between atoms: N_9  and  C_10
REMARK    5  A    between atoms: C_10  and  C_11
REMARK    6  A    between atoms: C_18  and  C_19
REMARK    7  A    between atoms: C_24  and  C_25
REMARK    8  A    between atoms: N_27  and  C_28
REMARK                            x       y       z     vdW  Elec       q    Type
REMARK                         _______ _______ _______ _____ _____    ______ ____
ROOT
ATOM      1  C   UNL     1       1.283   4.441  17.853  0.00  0.00    +0.000 C 
ATOM      2  C   UNL     1       2.763   4.706  17.914  0.00  0.00    +0.000 A 
ATOM      3  C   UNL     1       3.587   3.979  17.033  0.00  0.00    +0.000 A 
ATOM      4  C   UNL     1       4.961   4.196  16.996  0.00  0.00    +0.000 A 
ATOM      5  C   UNL     1       5.544   5.048  17.928  0.00  0.00    +0.000 A 
ATOM      6  C   UNL     1       4.755   5.688  18.887  0.00  0.00    +0.000 A 
ATOM      7  C   UNL     1       3.357   5.612  18.822  0.00  0.00    +0.000 A 
ENDROOT
BRANCH   7   8
ATOM      8  C   UNL     1       2.535   6.478  19.729  0.00  0.00    +0.000 C 
ATOM      9  O   UNL     1       2.308   6.043  20.858  0.00  0.00    +0.000 OA
ATOM     10  N   UNL     1       2.034   7.723  19.290  0.00  0.00    +0.000 N 
ATOM     11  C   UNL     1       1.443   8.604  20.302  0.00  0.00    +0.000 C 
ATOM     12  C   UNL     1       0.219   9.356  19.768  0.00  0.00    +0.000 C 
ATOM     13  C   UNL     1       0.507  10.094  18.449  0.00  0.00    +0.000 C 
ATOM     14  C   UNL     1       1.079   9.096  17.443  0.00  0.00    +0.000 C 
ATOM     15  C   UNL     1       2.294   8.359  17.995  0.00  0.00    +0.000 C 
BRANCH  13  16
ATOM     16  C   UNL     1       1.420  11.306  18.672  0.00  0.00    +0.000 C 
ATOM     17  O   UNL     1       2.479  11.417  18.063  0.00  0.00    +0.000 OA
ATOM     18  N   UNL     1       0.964  12.185  19.642  0.00  0.00    +0.000 N 
ATOM     19  H   UNL     1       0.216  11.869  20.247  0.00  0.00    +0.000 HD
BRANCH  18  20
ATOM     20  C   UNL     1       1.576  13.410  19.997  0.00  0.00    +0.000 A 
ATOM     21  C   UNL     1       1.162  14.646  19.492  0.00  0.00    +0.000 A 
ATOM     22  C   UNL     1       1.832  15.821  19.840  0.00  0.00    +0.000 A 
ATOM     23  C   UNL     1       2.920  15.776  20.705  0.00  0.00    +0.000 A 
ATOM     24  C   UNL     1       3.320  14.553  21.245  0.00  0.00    +0.000 A 
ATOM     25  C   UNL     1       2.643  13.378  20.902  0.00  0.00    +0.000 A 
ENDBRANCH  18  20
ENDBRANCH  13  16
ENDBRANCH   7   8
BRANCH   5  26
ATOM     26  S   UNL     1       7.262   5.489  17.801  0.00  0.00    +0.000 S 
ATOM     27  O   UNL     1       7.978   4.689  18.768  0.00  0.00    +0.000 OA
ATOM     28  O   UNL     1       7.605   5.467  16.395  0.00  0.00    +0.000 OA
BRANCH  26  29
ATOM     29  N   UNL     1       7.288   7.102  18.286  0.00  0.00    +0.000 NA
ATOM     30  H   UNL     1       7.633   7.217  19.239  0.00  0.00    +0.000 HD
BRANCH  29  31
ATOM     31  C   UNL     1       7.883   8.043  17.330  0.00  0.00    +0.000 C 
BRANCH  31  32
ATOM     32  C   UNL     1       8.402   9.283  18.008  0.00  0.00    +0.000 A 
ATOM     33  C   UNL     1       8.231  10.543  17.421  0.00  0.00    +0.000 A 
ATOM     34  C   UNL     1       8.664  11.693  18.083  0.00  0.00    +0.000 A 
ATOM     35  C   UNL     1       9.276  11.589  19.332  0.00  0.00    +0.000 A 
ATOM     36  C   UNL     1       9.462  10.338  19.918  0.00  0.00    +0.000 A 
ATOM     37  C   UNL     1       9.028   9.189  19.259  0.00  0.00    +0.000 A 
ENDBRANCH  31  32
ENDBRANCH  29  31
ENDBRANCH  26  29
ENDBRANCH   5  26
TORSDOF 7
ENDMDL
MODEL 5
REMARK VINA RESULT:      -8.3      1.052      1.294
REMARK  Name = 
REMARK  8 active torsions:
REMARK  status: ('A' for Active; 'I' for Inactive)
REMARK    1  A    between atoms: C_1  and  C_2
REMARK    2  A    between atoms: C_5  and  S_6
REMARK    3  A    between atoms: S_6  and  N_9
REMARK    4  A    between atoms: N_9  and  C_10
REMARK    5  A    between atoms: C_10  and  C_11
REMARK    6  A    between atoms: C_18  and  C_19
REMARK    7  A    between atoms: C_24  and  C_25
REMARK    8  A    between atoms: N_27  and  C_28
REMARK                            x       y       z     vdW  Elec       q    Type
REMARK                         _______ _______ _______ _____ _____    ______ ____
ROOT
ATOM      1  C   UNL     1       1.565   3.618  19.379  0.00  0.00    +0.000 C 
ATOM      2  C   UNL     1       2.712   4.217  18.610  0.00  0.00    +0.000 A 
ATOM      3  C   UNL     1       3.337   3.407  17.643  0.00  0.00    +0.000 A 
ATOM      4  C   UNL     1       4.376   3.900  16.860  0.00  0.00    +0.000 A 
ATOM      5  C   UNL     1       4.888   5.167  17.123  0.00  0.00    +0.000 A 
ATOM      6  C   UNL     1       4.358   5.940  18.158  0.00  0.00    +0.000 A 
ATOM      7  C   UNL     1       3.203   5.523  18.835  0.00  0.00    +0.000 A 
ENDROOT
BRANCH   7   8
ATOM      8  C   UNL     1       2.535   6.469  19.789  0.00  0.00    +0.000 C 
ATOM      9  O   UNL     1       2.430   6.096  20.957  0.00  0.00    +0.000 OA
ATOM     10  N   UNL     1       2.037   7.715  19.351  0.00  0.00    +0.000 N 
ATOM     11  C   UNL     1       1.611   8.668  20.380  0.00  0.00    +0.000 C 
ATOM     12  C   UNL     1       0.363   9.452  19.960  0.00  0.00    +0.000 C 
ATOM     13  C   UNL     1       0.519  10.115  18.580  0.00  0.00    +0.000 C 
ATOM     14  C   UNL     1       0.921   9.047  17.565  0.00  0.00    +0.000 C 
ATOM     15  C   UNL     1       2.163   8.278  18.003  0.00  0.00    +0.000 C 
BRANCH  13  16
ATOM     16  C   UNL     1       1.502  11.291  18.629  0.00  0.00    +0.000 C 
ATOM     17  O   UNL     1       2.503  11.306  17.920  0.00  0.00    +0.000 OA
ATOM     18  N   UNL     1       1.179  12.257  19.571  0.00  0.00    +0.000 N 
ATOM     19  H   UNL     1       0.479  12.021  20.263  0.00  0.00    +0.000 HD
BRANCH  18  20
ATOM     20  C   UNL     1       1.877  13.470  19.778  0.00  0.00    +0.000 A 
ATOM     21  C   UNL     1       1.732  14.586  18.950  0.00  0.00    +0.000 A 
ATOM     22  C   UNL     1       2.480  15.744  19.173  0.00  0.00    +0.000 A 
ATOM     23  C   UNL     1       3.376  15.805  20.234  0.00  0.00    +0.000 A 
ATOM     24  C   UNL     1       3.503  14.710  21.091  0.00  0.00    +0.000 A 
ATOM     25  C   UNL     1       2.747  13.554  20.872  0.00  0.00    +0.000 A 
ENDBRANCH  18  20
ENDBRANCH  13  16
ENDBRANCH   7   8
BRANCH   5  26
ATOM     26  S   UNL     1       6.088   5.901  16.035  0.00  0.00    +0.000 S 
ATOM     27  O   UNL     1       5.360   6.698  15.076  0.00  0.00    +0.000 OA
ATOM     28  O   UNL     1       7.125   6.474  16.868  0.00  0.00    +0.000 OA
BRANCH  26  29
ATOM     29  N   UNL     1       6.769   4.574  15.252  0.00  0.00    +0.000 NA
ATOM     30  H   UNL     1       6.232   3.719  15.396  0.00  0.00    +0.000 HD
BRANCH  29  31
ATOM     31  C   UNL     1       7.160   4.792  13.854  0.00  0.00    +0.000 C 
BRANCH  31  32
ATOM     32  C   UNL     1       6.418   3.882  12.913  0.00  0.00    +0.000 A 
ATOM     33  C   UNL     1       5.031   3.996  12.753  0.00  0.00    +0.000 A 
ATOM     34  C   UNL     1       4.359   3.187  11.836  0.00  0.00    +0.000 A 
ATOM     35  C   UNL     1       5.068   2.255  11.079  0.00  0.00    +0.000 A 
ATOM     36  C   UNL     1       6.446   2.126  11.240  0.00  0.00    +0.000 A 
ATOM     37  C   UNL     1       7.119   2.935  12.154  0.00  0.00    +0.000 A 
ENDBRANCH  31  32
ENDBRANCH  29  31
ENDBRANCH  26  29
ENDBRANCH   5  26
TORSDOF 7
ENDMDL
MODEL 6
REMARK VINA RESULT:      -8.0      4.490      8.652
REMARK  Name = 
REMARK  8 active torsions:
REMARK  status: ('A' for Active; 'I' for Inactive)
REMARK    1  A    between atoms: C_1  and  C_2
REMARK    2  A    between atoms: C_5  and  S_6
REMARK    3  A    between atoms: S_6  and  N_9
REMARK    4  A    between atoms: N_9  and  C_10
REMARK    5  A    between atoms: C_10  and  C_11
REMARK    6  A    between atoms: C_18  and  C_19
REMARK    7  A    between atoms: C_24  and  C_25
REMARK    8  A    between atoms: N_27  and  C_28
REMARK                            x       y       z     vdW  Elec       q    Type
REMARK                         _______ _______ _______ _____ _____    ______ ____
ROOT
ATOM      1  C   UNL     1       1.250  16.660  20.280  0.00  0.00    +0.000 C 
ATOM      2  C   UNL     1       0.956  15.193  20.115  0.00  0.00    +0.000 A 
ATOM      3  C   UNL     1      -0.268  14.842  19.513  0.00  0.00    +0.000 A 
ATOM      4  C   UNL     1      -0.596  13.509  19.285  0.00  0.00    +0.000 A 
ATOM      5  C   UNL     1       0.236  12.507  19.774  0.00  0.00    +0.000 A 
ATOM      6  C   UNL     1       1.396  12.836  20.479  0.00  0.00    +0.000 A 
ATOM      7  C   UNL     1       1.822  14.169  20.561  0.00  0.00    +0.000 A 
ENDROOT
BRANCH   7   8
ATOM      8  C   UNL     1       3.176  14.469  21.134  0.00  0.00    +0.000 C 
ATOM      9  O   UNL     1       3.270  14.473  22.362  0.00  0.00    +0.000 OA
ATOM     10  N   UNL     1       4.275  14.752  20.296  0.00  0.00    +0.000 N 
ATOM     11  C   UNL     1       5.600  14.805  20.921  0.00  0.00    +0.000 C 
ATOM     12  C   UNL     1       6.479  15.908  20.318  0.00  0.00    +0.000 C 
ATOM     13  C   UNL     1       6.561  15.826  18.784  0.00  0.00    +0.000 C 
ATOM     14  C   UNL     1       5.142  15.818  18.217  0.00  0.00    +0.000 C 
ATOM     15  C   UNL     1       4.286  14.716  18.830  0.00  0.00    +0.000 C 
BRANCH  13  16
ATOM     16  C   UNL     1       7.392  14.620  18.330  0.00  0.00    +0.000 C 
ATOM     17  O   UNL     1       6.976  13.859  17.462  0.00  0.00    +0.000 OA
ATOM     18  N   UNL     1       8.581  14.459  19.025  0.00  0.00    +0.000 N 
ATOM     19  H   UNL     1       8.701  14.993  19.877  0.00  0.00    +0.000 HD
BRANCH  18  20
ATOM     20  C   UNL     1       9.560  13.472  18.765  0.00  0.00    +0.000 A 
ATOM     21  C   UNL     1       9.749  12.349  19.576  0.00  0.00    +0.000 A 
ATOM     22  C   UNL     1      10.763  11.430  19.299  0.00  0.00    +0.000 A 
ATOM     23  C   UNL     1      11.595  11.615  18.201  0.00  0.00    +0.000 A 
ATOM     24  C   UNL     1      11.394  12.712  17.362  0.00  0.00    +0.000 A 
ATOM     25  C   UNL     1      10.373  13.629  17.636  0.00  0.00    +0.000 A 
ENDBRANCH  18  20
ENDBRANCH  13  16
ENDBRANCH   7   8
BRANCH   5  26
ATOM     26  S   UNL     1      -0.054  10.805  19.351  0.00  0.00    +0.000 S 
ATOM     27  O   UNL     1      -0.472  10.132  20.559  0.00  0.00    +0.000 OA
ATOM     28  O   UNL     1      -0.871  10.795  18.156  0.00  0.00    +0.000 OA
BRANCH  26  29
ATOM     29  N   UNL     1       1.472  10.248  18.906  0.00  0.00    +0.000 NA
ATOM     30  H   UNL     1       2.061  10.037  19.711  0.00  0.00    +0.000 HD
BRANCH  29  31
ATOM     31  C   UNL     1       1.491   9.201  17.876  0.00  0.00    +0.000 C 
BRANCH  31  32
ATOM     32  C   UNL     1       2.309   8.010  18.299  0.00  0.00    +0.000 A 
ATOM     33  C   UNL     1       2.061   7.371  19.521  0.00  0.00    +0.000 A 
ATOM     34  C   UNL     1       2.784   6.233  19.880  0.00  0.00    +0.000 A 
ATOM     35  C   UNL     1       3.762   5.731  19.024  0.00  0.00    +0.000 A 
ATOM     36  C   UNL     1       4.024   6.366  17.811  0.00  0.00    +0.000 A 
ATOM     37  C   UNL     1       3.301   7.502  17.450  0.00  0.00    +0.000 A 
ENDBRANCH  31  32
ENDBRANCH  29  31
ENDBRANCH  26  29
ENDBRANCH   5  26
TORSDOF 7
ENDMDL
MODEL 7
REMARK VINA RESULT:      -8.0      4.441      7.771
REMARK  Name = 
REMARK  8 active torsions:
REMARK  status: ('A' for Active; 'I' for Inactive)
REMARK    1  A    between atoms: C_1  and  C_2
REMARK    2  A    between atoms: C_5  and  S_6
REMARK    3  A    between atoms: S_6  and  N_9
REMARK    4  A    between atoms: N_9  and  C_10
REMARK    5  A    between atoms: C_10  and  C_11
REMARK    6  A    between atoms: C_18  and  C_19
REMARK    7  A    between atoms: C_24  and  C_25
REMARK    8  A    between atoms: N_27  and  C_28
REMARK                            x       y       z     vdW  Elec       q    Type
REMARK                         _______ _______ _______ _____ _____    ______ ____
ROOT
ATOM      1  C   UNL     1      -0.351  14.290  18.593  0.00  0.00    +0.000 C 
ATOM      2  C   UNL     1      -0.064  12.973  19.264  0.00  0.00    +0.000 A 
ATOM      3  C   UNL     1      -0.736  11.837  18.774  0.00  0.00    +0.000 A 
ATOM      4  C   UNL     1      -0.494  10.576  19.312  0.00  0.00    +0.000 A 
ATOM      5  C   UNL     1       0.325  10.455  20.429  0.00  0.00    +0.000 A 
ATOM      6  C   UNL     1       0.908  11.588  21.002  0.00  0.00    +0.000 A 
ATOM      7  C   UNL     1       0.810  12.834  20.366  0.00  0.00    +0.000 A 
ENDROOT
BRANCH   7   8
ATOM      8  C   UNL     1       1.621  13.984  20.885  0.00  0.00    +0.000 C 
ATOM      9  O   UNL     1       1.249  14.493  21.943  0.00  0.00    +0.000 OA
ATOM     10  N   UNL     1       2.743  14.463  20.176  0.00  0.00    +0.000 N 
ATOM     11  C   UNL     1       3.609  15.428  20.860  0.00  0.00    +0.000 C 
ATOM     12  C   UNL     1       4.135  16.507  19.907  0.00  0.00    +0.000 C 
ATOM     13  C   UNL     1       4.800  15.916  18.652  0.00  0.00    +0.000 C 
ATOM     14  C   UNL     1       3.816  14.958  17.982  0.00  0.00    +0.000 C 
ATOM     15  C   UNL     1       3.305  13.894  18.946  0.00  0.00    +0.000 C 
BRANCH  13  16
ATOM     16  C   UNL     1       6.143  15.254  18.986  0.00  0.00    +0.000 C 
ATOM     17  O   UNL     1       6.488  15.082  20.150  0.00  0.00    +0.000 OA
ATOM     18  N   UNL     1       6.913  14.949  17.874  0.00  0.00    +0.000 N 
ATOM     19  H   UNL     1       6.641  15.358  16.989  0.00  0.00    +0.000 HD
BRANCH  18  20
ATOM     20  C   UNL     1       8.158  14.279  17.894  0.00  0.00    +0.000 A 
ATOM     21  C   UNL     1       9.381  14.942  18.029  0.00  0.00    +0.000 A 
ATOM     22  C   UNL     1      10.586  14.235  17.995  0.00  0.00    +0.000 A 
ATOM     23  C   UNL     1      10.582  12.854  17.836  0.00  0.00    +0.000 A 
ATOM     24  C   UNL     1       9.366  12.176  17.737  0.00  0.00    +0.000 A 
ATOM     25  C   UNL     1       8.160  12.884  17.779  0.00  0.00    +0.000 A 
ENDBRANCH  18  20
ENDBRANCH  13  16
ENDBRANCH   7   8
BRANCH   5  26
ATOM     26  S   UNL     1       0.800   8.852  21.033  0.00  0.00    +0.000 S 
ATOM     27  O   UNL     1       1.814   9.060  22.041  0.00  0.00    +0.000 OA
ATOM     28  O   UNL     1      -0.419   8.126  21.322  0.00  0.00    +0.000 OA
BRANCH  26  29
ATOM     29  N   UNL     1       1.499   8.119  19.687  0.00  0.00    +0.000 NA
ATOM     30  H   UNL     1       1.792   8.796  18.983  0.00  0.00    +0.000 HD
BRANCH  29  31
ATOM     31  C   UNL     1       2.512   7.096  19.974  0.00  0.00    +0.000 C 
BRANCH  31  32
ATOM     32  C   UNL     1       2.040   5.715  19.605  0.00  0.00    +0.000 A 
ATOM     33  C   UNL     1       1.374   4.914  20.541  0.00  0.00    +0.000 A 
ATOM     34  C   UNL     1       0.889   3.658  20.174  0.00  0.00    +0.000 A 
ATOM     35  C   UNL     1       1.071   3.194  18.872  0.00  0.00    +0.000 A 
ATOM     36  C   UNL     1       1.743   3.979  17.937  0.00  0.00    +0.000 A 
ATOM     37  C   UNL     1       2.227   5.235  18.301  0.00  0.00    +0.000 A 
ENDBRANCH  31  32
ENDBRANCH  29  31
ENDBRANCH  26  29
ENDBRANCH   5  26
TORSDOF 7
ENDMDL
MODEL 8
REMARK VINA RESULT:      -8.0      3.090      4.411
REMARK  Name = 
REMARK  8 active torsions:
REMARK  status: ('A' for Active; 'I' for Inactive)
REMARK    1  A    between atoms: C_1  and  C_2
REMARK    2  A    between atoms: C_5  and  S_6
REMARK    3  A    between atoms: S_6  and  N_9
REMARK    4  A    between atoms: N_9  and  C_10
REMARK    5  A    between atoms: C_10  and  C_11
REMARK    6  A    between atoms: C_18  and  C_19
REMARK    7  A    between atoms: C_24  and  C_25
REMARK    8  A    between atoms: N_27  and  C_28
REMARK                            x       y       z     vdW  Elec       q    Type
REMARK                         _______ _______ _______ _____ _____    ______ ____
ROOT
ATOM      1  C   UNL     1       1.687   4.372  17.742  0.00  0.00    +0.000 C 
ATOM      2  C   UNL     1       3.091   4.908  17.828  0.00  0.00    +0.000 A 
ATOM      3  C   UNL     1       4.025   4.431  16.888  0.00  0.00    +0.000 A 
ATOM      4  C   UNL     1       5.332   4.909  16.874  0.00  0.00    +0.000 A 
ATOM      5  C   UNL     1       5.756   5.772  17.879  0.00  0.00    +0.000 A 
ATOM      6  C   UNL     1       4.874   6.164  18.889  0.00  0.00    +0.000 A 
ATOM      7  C   UNL     1       3.516   5.828  18.814  0.00  0.00    +0.000 A 
ENDROOT
BRANCH   7   8
ATOM      8  C   UNL     1       2.557   6.440  19.793  0.00  0.00    +0.000 C 
ATOM      9  O   UNL     1       2.279   5.772  20.789  0.00  0.00    +0.000 OA
ATOM     10  N   UNL     1       1.993   7.712  19.560  0.00  0.00    +0.000 N 
ATOM     11  C   UNL     1       1.255   8.332  20.665  0.00  0.00    +0.000 C 
ATOM     12  C   UNL     1       0.018   9.095  20.177  0.00  0.00    +0.000 C 
ATOM     13  C   UNL     1       0.347  10.101  19.060  0.00  0.00    +0.000 C 
ATOM     14  C   UNL     1       1.075   9.365  17.937  0.00  0.00    +0.000 C 
ATOM     15  C   UNL     1       2.300   8.612  18.444  0.00  0.00    +0.000 C 
BRANCH  13  16
ATOM     16  C   UNL     1       1.139  11.300  19.599  0.00  0.00    +0.000 C 
ATOM     17  O   UNL     1       1.200  11.525  20.803  0.00  0.00    +0.000 OA
ATOM     18  N   UNL     1       1.695  12.098  18.610  0.00  0.00    +0.000 N 
ATOM     19  H   UNL     1       1.374  11.959  17.660  0.00  0.00    +0.000 HD
BRANCH  18  20
ATOM     20  C   UNL     1       2.523  13.223  18.830  0.00  0.00    +0.000 A 
ATOM     21  C   UNL     1       2.853  13.693  20.105  0.00  0.00    +0.000 A 
ATOM     22  C   UNL     1       3.637  14.837  20.264  0.00  0.00    +0.000 A 
ATOM     23  C   UNL     1       4.111  15.522  19.151  0.00  0.00    +0.000 A 
ATOM     24  C   UNL     1       3.819  15.042  17.873  0.00  0.00    +0.000 A 
ATOM     25  C   UNL     1       3.040  13.891  17.714  0.00  0.00    +0.000 A 
ENDBRANCH  18  20
ENDBRANCH  13  16
ENDBRANCH   7   8
BRANCH   5  26
ATOM     26  S   UNL     1       7.357   6.542  17.794  0.00  0.00    +0.000 S 
ATOM     27  O   UNL     1       8.147   5.996  18.874  0.00  0.00    +0.000 OA
ATOM     28  O   UNL     1       7.796   6.463  16.417  0.00  0.00    +0.000 OA
BRANCH  26  29
ATOM     29  N   UNL     1       7.028   8.163  18.112  0.00  0.00    +0.000 NA
ATOM     30  H   UNL     1       7.008   8.369  19.110  0.00  0.00    +0.000 HD
BRANCH  29  31
ATOM     31  C   UNL     1       7.802   9.134  17.329  0.00  0.00    +0.000 C 
BRANCH  31  32
ATOM     32  C   UNL     1       8.513  10.127  18.208  0.00  0.00    +0.000 A 
ATOM     33  C   UNL     1       9.074   9.729  19.428  0.00  0.00    +0.000 A 
ATOM     34  C   UNL     1       9.780  10.643  20.211  0.00  0.00    +0.000 A 
ATOM     35  C   UNL     1       9.926  11.961  19.781  0.00  0.00    +0.000 A 
ATOM     36  C   UNL     1       9.362  12.370  18.574  0.00  0.00    +0.000 A 
ATOM     37  C   UNL     1       8.657  11.458  17.790  0.00  0.00    +0.000 A 
ENDBRANCH  31  32
ENDBRANCH  29  31
ENDBRANCH  26  29
ENDBRANCH   5  26
TORSDOF 7
ENDMDL
MODEL 9
REMARK VINA RESULT:      -8.0      2.930      4.233
REMARK  Name = 
REMARK  8 active torsions:
REMARK  status: ('A' for Active; 'I' for Inactive)
REMARK    1  A    between atoms: C_1  and  C_2
REMARK    2  A    between atoms: C_5  and  S_6
REMARK    3  A    between atoms: S_6  and  N_9
REMARK    4  A    between atoms: N_9  and  C_10
REMARK    5  A    between atoms: C_10  and  C_11
REMARK    6  A    between atoms: C_18  and  C_19
REMARK    7  A    between atoms: C_24  and  C_25
REMARK    8  A    between atoms: N_27  and  C_28
REMARK                            x       y       z     vdW  Elec       q    Type
REMARK                         _______ _______ _______ _____ _____    ______ ____
ROOT
ATOM      1  C   UNL     1       1.309   4.652  17.729  0.00  0.00    +0.000 C 
ATOM      2  C   UNL     1       2.766   4.985  17.913  0.00  0.00    +0.000 A 
ATOM      3  C   UNL     1       3.670   4.480  16.959  0.00  0.00    +0.000 A 
ATOM      4  C   UNL     1       5.028   4.779  17.034  0.00  0.00    +0.000 A 
ATOM      5  C   UNL     1       5.515   5.478  18.134  0.00  0.00    +0.000 A 
ATOM      6  C   UNL     1       4.648   5.884  19.150  0.00  0.00    +0.000 A 
ATOM      7  C   UNL     1       3.262   5.741  19.000  0.00  0.00    +0.000 A 
ENDROOT
BRANCH   7   8
ATOM      8  C   UNL     1       2.348   6.378  20.005  0.00  0.00    +0.000 C 
ATOM      9  O   UNL     1       2.052   5.704  20.991  0.00  0.00    +0.000 OA
ATOM     10  N   UNL     1       1.843   7.681  19.806  0.00  0.00    +0.000 N 
ATOM     11  C   UNL     1       1.152   8.313  20.935  0.00  0.00    +0.000 C 
ATOM     12  C   UNL     1      -0.052   9.146  20.480  0.00  0.00    +0.000 C 
ATOM     13  C   UNL     1       0.310  10.157  19.379  0.00  0.00    +0.000 C 
ATOM     14  C   UNL     1       0.985   9.410  18.230  0.00  0.00    +0.000 C 
ATOM     15  C   UNL     1       2.178   8.588  18.704  0.00  0.00    +0.000 C 
BRANCH  13  16
ATOM     16  C   UNL     1       1.167  11.304  19.930  0.00  0.00    +0.000 C 
ATOM     17  O   UNL     1       1.295  11.471  21.138  0.00  0.00    +0.000 OA
ATOM     18  N   UNL     1       1.699  12.130  18.951  0.00  0.00    +0.000 N 
ATOM     19  H   UNL     1       1.328  12.045  18.014  0.00  0.00    +0.000 HD
BRANCH  18  20
ATOM     20  C   UNL     1       2.574  13.218  19.179  0.00  0.00    +0.000 A 
ATOM     21  C   UNL     1       3.272  13.865  18.155  0.00  0.00    +0.000 A 
ATOM     22  C   UNL     1       4.160  14.904  18.440  0.00  0.00    +0.000 A 
ATOM     23  C   UNL     1       4.354  15.317  19.754  0.00  0.00    +0.000 A 
ATOM     24  C   UNL     1       3.637  14.704  20.782  0.00  0.00    +0.000 A 
ATOM     25  C   UNL     1       2.741  13.668  20.494  0.00  0.00    +0.000 A 
ENDBRANCH  18  20
ENDBRANCH  13  16
ENDBRANCH   7   8
BRANCH   5  26
ATOM     26  S   UNL     1       7.204   6.031  18.178  0.00  0.00    +0.000 S 
ATOM     27  O   UNL     1       7.763   5.591  19.435  0.00  0.00    +0.000 OA
ATOM     28  O   UNL     1       7.805   5.668  16.912  0.00  0.00    +0.000 OA
BRANCH  26  29
ATOM     29  N   UNL     1       7.064   7.710  18.190  0.00  0.00    +0.000 NA
ATOM     30  H   UNL     1       6.904   8.081  19.126  0.00  0.00    +0.000 HD
BRANCH  29  31
ATOM     31  C   UNL     1       8.094   8.439  17.439  0.00  0.00    +0.000 C 
BRANCH  31  32
ATOM     32  C   UNL     1       8.549   9.677  18.163  0.00  0.00    +0.000 A 
ATOM     33  C   UNL     1       8.324  10.948  17.617  0.00  0.00    +0.000 A 
ATOM     34  C   UNL     1       8.698  12.093  18.321  0.00  0.00    +0.000 A 
ATOM     35  C   UNL     1       9.304  11.975  19.571  0.00  0.00    +0.000 A 
ATOM     36  C   UNL     1       9.543  10.716  20.117  0.00  0.00    +0.000 A 
ATOM     37  C   UNL     1       9.168   9.570  19.416  0.00  0.00    +0.000 A 
ENDBRANCH  31  32
ENDBRANCH  29  31
ENDBRANCH  26  29
ENDBRANCH   5  26
TORSDOF 7
ENDMDL
