MODEL 1
REMARK VINA RESULT:      -8.7      0.000      0.000
REMARK  Name = 
REMARK  6 active torsions:
REMARK  status: ('A' for Active; 'I' for Inactive)
REMARK    1  A    between atoms: C_1  and  C_2
REMARK    2  A    between atoms: C_2  and  C_3
REMARK    3  A    between atoms: C_9  and  N_10
REMARK    4  A    between atoms: C_11  and  C_13
REMARK    5  A    between atoms: C_13  and  C_14
REMARK    6  A    between atoms: C_14  and  N_15
REMARK                            x       y       z     vdW  Elec       q    Type
REMARK                         _______ _______ _______ _____ _____    ______ ____
ROOT
ATOM      1  N   UNL     1       6.783   7.448  16.791  0.00  0.00    +0.000 N 
ATOM      2  C   UNL     1       7.713   7.773  17.756  0.00  0.00    +0.000 C 
ATOM      3  O   UNL     1       8.235   6.983  18.541  0.00  0.00    +0.000 OA
ATOM      4  H   UNL     1       6.357   8.184  16.239  0.00  0.00    +0.000 HD
ENDROOT
BRANCH   1  13
ATOM      5  C   UNL     1       2.165   6.016  17.955  0.00  0.00    +0.000 C 
ATOM      6  C   UNL     1       3.450   5.334  18.439  0.00  0.00    +0.000 C 
ATOM      7  C   UNL     1       3.405   5.158  19.959  0.00  0.00    +0.000 C 
ATOM      8  C   UNL     1       3.665   3.977  17.734  0.00  0.00    +0.000 C 
ATOM      9  C   UNL     1       4.803   4.315  16.853  0.00  0.00    +0.000 A 
ATOM     10  C   UNL     1       5.402   3.526  15.887  0.00  0.00    +0.000 A 
ATOM     11  C   UNL     1       6.489   4.052  15.195  0.00  0.00    +0.000 A 
ATOM     12  C   UNL     1       6.960   5.344  15.482  0.00  0.00    +0.000 A 
ATOM     13  C   UNL     1       6.360   6.137  16.465  0.00  0.00    +0.000 A 
ATOM     14  C   UNL     1       5.272   5.589  17.136  0.00  0.00    +0.000 A 
ATOM     15  O   UNL     1       4.566   6.224  18.130  0.00  0.00    +0.000 OA
ENDBRANCH   1  13
BRANCH   2  16
ATOM     16  C   UNL     1       8.060   9.241  17.839  0.00  0.00    +0.000 C 
BRANCH  16  17
ATOM     17  C   UNL     1       8.987   9.424  19.041  0.00  0.00    +0.000 C 
BRANCH  17  18
ATOM     18  N   UNL     1       9.622  10.728  19.090  0.00  0.00    +0.000 N 
ATOM     19  C   UNL     1      10.155  11.267  17.942  0.00  0.00    +0.000 A 
ATOM     20  N   UNL     1      10.628  12.464  17.842  0.00  0.00    +0.000 NA
ATOM     21  C   UNL     1      10.564  13.282  18.979  0.00  0.00    +0.000 A 
ATOM     22  C   UNL     1      10.962  14.615  18.875  0.00  0.00    +0.000 A 
ATOM     23  C   UNL     1      10.893  15.466  19.981  0.00  0.00    +0.000 A 
ATOM     24  C   UNL     1      10.435  14.986  21.210  0.00  0.00    +0.000 A 
ATOM     25  C   UNL     1      10.039  13.656  21.329  0.00  0.00    +0.000 A 
ATOM     26  C   UNL     1      10.099  12.817  20.213  0.00  0.00    +0.000 A 
ATOM     27  C   UNL     1       9.617  11.427  20.286  0.00  0.00    +0.000 A 
ATOM     28  O   UNL     1       9.232  10.957  21.353  0.00  0.00    +0.000 OA
ENDBRANCH  17  18
ENDBRANCH  16  17
ENDBRANCH   2  16
TORSDOF 4
ENDMDL
MODEL 2
REMARK VINA RESULT:      -8.6      6.314      8.493
REMARK  Name = 
REMARK  6 active torsions:
REMARK  status: ('A' for Active; 'I' for Inactive)
REMARK    1  A    between atoms: C_1  and  C_2
REMARK    2  A    between atoms: C_2  and  C_3
REMARK    3  A    between atoms: C_9  and  N_10
REMARK    4  A    between atoms: C_11  and  C_13
REMARK    5  A    between atoms: C_13  and  C_14
REMARK    6  A    between atoms: C_14  and  N_15
REMARK                            x       y       z     vdW  Elec       q    Type
REMARK                         _______ _______ _______ _____ _____    ______ ____
ROOT
ATOM      1  N   UNL     1       2.837   5.616  20.098  0.00  0.00    +0.000 N 
ATOM      2  C   UNL     1       2.121   4.439  20.029  0.00  0.00    +0.000 C 
ATOM      3  O   UNL     1       1.052   4.285  19.441  0.00  0.00    +0.000 OA
ATOM      4  H   UNL     1       3.674   5.660  20.669  0.00  0.00    +0.000 HD
ENDROOT
BRANCH   1  13
ATOM      5  C   UNL     1       1.461   9.631  22.691  0.00  0.00    +0.000 C 
ATOM      6  C   UNL     1       0.617   8.946  21.609  0.00  0.00    +0.000 C 
ATOM      7  C   UNL     1      -0.792   8.674  22.142  0.00  0.00    +0.000 C 
ATOM      8  C   UNL     1       0.564   9.793  20.319  0.00  0.00    +0.000 C 
ATOM      9  C   UNL     1       1.415   8.974  19.431  0.00  0.00    +0.000 A 
ATOM     10  C   UNL     1       1.836   9.261  18.144  0.00  0.00    +0.000 A 
ATOM     11  C   UNL     1       2.616   8.316  17.485  0.00  0.00    +0.000 A 
ATOM     12  C   UNL     1       2.954   7.106  18.113  0.00  0.00    +0.000 A 
ATOM     13  C   UNL     1       2.520   6.812  19.410  0.00  0.00    +0.000 A 
ATOM     14  C   UNL     1       1.748   7.777  20.048  0.00  0.00    +0.000 A 
ATOM     15  O   UNL     1       1.236   7.656  21.318  0.00  0.00    +0.000 OA
ENDBRANCH   1  13
BRANCH   2  16
ATOM     16  C   UNL     1       2.728   3.279  20.785  0.00  0.00    +0.000 C 
BRANCH  16  17
ATOM     17  C   UNL     1       3.504   2.433  19.775  0.00  0.00    +0.000 C 
BRANCH  17  18
ATOM     18  N   UNL     1       4.367   3.213  18.907  0.00  0.00    +0.000 N 
ATOM     19  C   UNL     1       5.512   3.779  19.419  0.00  0.00    +0.000 A 
ATOM     20  N   UNL     1       6.412   4.382  18.718  0.00  0.00    +0.000 NA
ATOM     21  C   UNL     1       6.221   4.436  17.330  0.00  0.00    +0.000 A 
ATOM     22  C   UNL     1       7.227   4.980  16.531  0.00  0.00    +0.000 A 
ATOM     23  C   UNL     1       7.083   5.031  15.142  0.00  0.00    +0.000 A 
ATOM     24  C   UNL     1       5.920   4.549  14.538  0.00  0.00    +0.000 A 
ATOM     25  C   UNL     1       4.906   4.007  15.323  0.00  0.00    +0.000 A 
ATOM     26  C   UNL     1       5.067   3.948  16.711  0.00  0.00    +0.000 A 
ATOM     27  C   UNL     1       4.046   3.313  17.563  0.00  0.00    +0.000 A 
ATOM     28  O   UNL     1       2.998   2.901  17.076  0.00  0.00    +0.000 OA
ENDBRANCH  17  18
ENDBRANCH  16  17
ENDBRANCH   2  16
TORSDOF 4
ENDMDL
MODEL 3
REMARK VINA RESULT:      -8.4      6.377      8.618
REMARK  Name = 
REMARK  6 active torsions:
REMARK  status: ('A' for Active; 'I' for Inactive)
REMARK    1  A    between atoms: C_1  and  C_2
REMARK    2  A    between atoms: C_2  and  C_3
REMARK    3  A    between atoms: C_9  and  N_10
REMARK    4  A    between atoms: C_11  and  C_13
REMARK    5  A    between atoms: C_13  and  C_14
REMARK    6  A    between atoms: C_14  and  N_15
REMARK                            x       y       z     vdW  Elec       q    Type
REMARK                         _______ _______ _______ _____ _____    ______ ____
ROOT
ATOM      1  N   UNL     1       2.718   5.525  20.283  0.00  0.00    +0.000 N 
ATOM      2  C   UNL     1       1.812   4.509  20.502  0.00  0.00    +0.000 C 
ATOM      3  O   UNL     1       0.623   4.530  20.185  0.00  0.00    +0.000 OA
ATOM      4  H   UNL     1       3.662   5.440  20.646  0.00  0.00    +0.000 HD
ENDROOT
BRANCH   1  13
ATOM      5  C   UNL     1       1.575   9.690  22.749  0.00  0.00    +0.000 C 
ATOM      6  C   UNL     1       0.690   9.017  21.694  0.00  0.00    +0.000 C 
ATOM      7  C   UNL     1      -0.729   8.839  22.240  0.00  0.00    +0.000 C 
ATOM      8  C   UNL     1       0.675   9.823  20.377  0.00  0.00    +0.000 C 
ATOM      9  C   UNL     1       1.476   8.931  19.512  0.00  0.00    +0.000 A 
ATOM     10  C   UNL     1       1.905   9.154  18.215  0.00  0.00    +0.000 A 
ATOM     11  C   UNL     1       2.629   8.147  17.585  0.00  0.00    +0.000 A 
ATOM     12  C   UNL     1       2.904   6.942  18.250  0.00  0.00    +0.000 A 
ATOM     13  C   UNL     1       2.462   6.713  19.558  0.00  0.00    +0.000 A 
ATOM     14  C   UNL     1       1.747   7.739  20.166  0.00  0.00    +0.000 A 
ATOM     15  O   UNL     1       1.237   7.686  21.442  0.00  0.00    +0.000 OA
ENDBRANCH   1  13
BRANCH   2  16
ATOM     16  C   UNL     1       2.366   3.304  21.224  0.00  0.00    +0.000 C 
BRANCH  16  17
ATOM     17  C   UNL     1       2.667   2.238  20.169  0.00  0.00    +0.000 C 
BRANCH  17  18
ATOM     18  N   UNL     1       3.342   2.760  18.995  0.00  0.00    +0.000 N 
ATOM     19  C   UNL     1       2.681   2.791  17.789  0.00  0.00    +0.000 A 
ATOM     20  N   UNL     1       3.135   3.345  16.715  0.00  0.00    +0.000 NA
ATOM     21  C   UNL     1       4.378   3.988  16.795  0.00  0.00    +0.000 A 
ATOM     22  C   UNL     1       4.846   4.693  15.686  0.00  0.00    +0.000 A 
ATOM     23  C   UNL     1       6.070   5.365  15.735  0.00  0.00    +0.000 A 
ATOM     24  C   UNL     1       6.847   5.327  16.894  0.00  0.00    +0.000 A 
ATOM     25  C   UNL     1       6.394   4.623  18.008  0.00  0.00    +0.000 A 
ATOM     26  C   UNL     1       5.161   3.966  17.953  0.00  0.00    +0.000 A 
ATOM     27  C   UNL     1       4.620   3.277  19.136  0.00  0.00    +0.000 A 
ATOM     28  O   UNL     1       5.282   3.196  20.167  0.00  0.00    +0.000 OA
ENDBRANCH  17  18
ENDBRANCH  16  17
ENDBRANCH   2  16
TORSDOF 4
ENDMDL
MODEL 4
REMARK VINA RESULT:      -8.3      1.892      9.349
REMARK  Name = 
REMARK  6 active torsions:
REMARK  status: ('A' for Active; 'I' for Inactive)
REMARK    1  A    between atoms: C_1  and  C_2
REMARK    2  A    between atoms: C_2  and  C_3
REMARK    3  A    between atoms: C_9  and  N_10
REMARK    4  A    between atoms: C_11  and  C_13
REMARK    5  A    between atoms: C_13  and  C_14
REMARK    6  A    between atoms: C_14  and  N_15
REMARK                            x       y       z     vdW  Elec       q    Type
REMARK                         _______ _______ _______ _____ _____    ______ ____
ROOT
ATOM      1  N   UNL     1       9.322  10.820  17.808  0.00  0.00    +0.000 N 
ATOM      2  C   UNL     1       8.838   9.708  18.465  0.00  0.00    +0.000 C 
ATOM      3  O   UNL     1       9.162   9.349  19.596  0.00  0.00    +0.000 OA
ATOM      4  H   UNL     1       9.046  10.992  16.847  0.00  0.00    +0.000 HD
ENDROOT
BRANCH   1  13
ATOM      5  C   UNL     1       7.375  14.730  20.185  0.00  0.00    +0.000 C 
ATOM      6  C   UNL     1       8.297  14.809  18.963  0.00  0.00    +0.000 C 
ATOM      7  C   UNL     1       7.676  15.716  17.899  0.00  0.00    +0.000 C 
ATOM      8  C   UNL     1       9.706  15.305  19.355  0.00  0.00    +0.000 C 
ATOM      9  C   UNL     1      10.479  14.055  19.199  0.00  0.00    +0.000 A 
ATOM     10  C   UNL     1      11.810  13.827  19.503  0.00  0.00    +0.000 A 
ATOM     11  C   UNL     1      12.333  12.564  19.241  0.00  0.00    +0.000 A 
ATOM     12  C   UNL     1      11.528  11.560  18.680  0.00  0.00    +0.000 A 
ATOM     13  C   UNL     1      10.185  11.794  18.365  0.00  0.00    +0.000 A 
ATOM     14  C   UNL     1       9.686  13.062  18.643  0.00  0.00    +0.000 A 
ATOM     15  O   UNL     1       8.396  13.466  18.397  0.00  0.00    +0.000 OA
ENDBRANCH   1  13
BRANCH   2  16
ATOM     16  C   UNL     1       7.855   8.877  17.674  0.00  0.00    +0.000 C 
BRANCH  16  17
ATOM     17  C   UNL     1       7.980   7.434  18.164  0.00  0.00    +0.000 C 
BRANCH  17  18
ATOM     18  N   UNL     1       6.760   6.662  18.011  0.00  0.00    +0.000 N 
ATOM     19  C   UNL     1       5.924   6.918  16.950  0.00  0.00    +0.000 A 
ATOM     20  N   UNL     1       4.885   6.216  16.645  0.00  0.00    +0.000 NA
ATOM     21  C   UNL     1       4.609   5.092  17.437  0.00  0.00    +0.000 A 
ATOM     22  C   UNL     1       3.562   4.247  17.069  0.00  0.00    +0.000 A 
ATOM     23  C   UNL     1       3.271   3.106  17.821  0.00  0.00    +0.000 A 
ATOM     24  C   UNL     1       4.020   2.805  18.961  0.00  0.00    +0.000 A 
ATOM     25  C   UNL     1       5.066   3.642  19.342  0.00  0.00    +0.000 A 
ATOM     26  C   UNL     1       5.358   4.774  18.574  0.00  0.00    +0.000 A 
ATOM     27  C   UNL     1       6.504   5.637  18.907  0.00  0.00    +0.000 A 
ATOM     28  O   UNL     1       7.172   5.425  19.915  0.00  0.00    +0.000 OA
ENDBRANCH  17  18
ENDBRANCH  16  17
ENDBRANCH   2  16
TORSDOF 4
ENDMDL
MODEL 5
REMARK VINA RESULT:      -8.3      1.984      9.307
REMARK  Name = 
REMARK  6 active torsions:
REMARK  status: ('A' for Active; 'I' for Inactive)
REMARK    1  A    between atoms: C_1  and  C_2
REMARK    2  A    between atoms: C_2  and  C_3
REMARK    3  A    between atoms: C_9  and  N_10
REMARK    4  A    between atoms: C_11  and  C_13
REMARK    5  A    between atoms: C_13  and  C_14
REMARK    6  A    between atoms: C_14  and  N_15
REMARK                            x       y       z     vdW  Elec       q    Type
REMARK                         _______ _______ _______ _____ _____    ______ ____
ROOT
ATOM      1  N   UNL     1       9.468  10.063  19.945  0.00  0.00    +0.000 N 
ATOM      2  C   UNL     1       8.866   9.615  18.788  0.00  0.00    +0.000 C 
ATOM      3  O   UNL     1       8.457  10.327  17.873  0.00  0.00    +0.000 OA
ATOM      4  H   UNL     1       9.708   9.400  20.674  0.00  0.00    +0.000 HD
ENDROOT
BRANCH   1  13
ATOM      5  C   UNL     1       8.438  11.979  24.418  0.00  0.00    +0.000 C 
ATOM      6  C   UNL     1       7.929  12.531  23.081  0.00  0.00    +0.000 C 
ATOM      7  C   UNL     1       6.412  12.731  23.144  0.00  0.00    +0.000 C 
ATOM      8  C   UNL     1       8.642  13.849  22.710  0.00  0.00    +0.000 C 
ATOM      9  C   UNL     1       9.490  13.384  21.592  0.00  0.00    +0.000 A 
ATOM     10  C   UNL     1      10.450  14.094  20.892  0.00  0.00    +0.000 A 
ATOM     11  C   UNL     1      11.108  13.450  19.849  0.00  0.00    +0.000 A 
ATOM     12  C   UNL     1      10.796  12.121  19.521  0.00  0.00    +0.000 A 
ATOM     13  C   UNL     1       9.819  11.407  20.223  0.00  0.00    +0.000 A 
ATOM     14  C   UNL     1       9.182  12.072  21.264  0.00  0.00    +0.000 A 
ATOM     15  O   UNL     1       8.200  11.527  22.056  0.00  0.00    +0.000 OA
ENDBRANCH   1  13
BRANCH   2  16
ATOM     16  C   UNL     1       8.688   8.117  18.701  0.00  0.00    +0.000 C 
BRANCH  16  17
ATOM     17  C   UNL     1       7.539   7.851  17.728  0.00  0.00    +0.000 C 
BRANCH  17  18
ATOM     18  N   UNL     1       6.844   6.602  17.979  0.00  0.00    +0.000 N 
ATOM     19  C   UNL     1       7.144   5.873  19.106  0.00  0.00    +0.000 A 
ATOM     20  N   UNL     1       6.505   4.820  19.493  0.00  0.00    +0.000 NA
ATOM     21  C   UNL     1       5.409   4.409  18.722  0.00  0.00    +0.000 A 
ATOM     22  C   UNL     1       4.628   3.344  19.172  0.00  0.00    +0.000 A 
ATOM     23  C   UNL     1       3.515   2.919  18.442  0.00  0.00    +0.000 A 
ATOM     24  C   UNL     1       3.178   3.552  17.244  0.00  0.00    +0.000 A 
ATOM     25  C   UNL     1       3.950   4.614  16.781  0.00  0.00    +0.000 A 
ATOM     26  C   UNL     1       5.054   5.039  17.526  0.00  0.00    +0.000 A 
ATOM     27  C   UNL     1       5.846   6.207  17.103  0.00  0.00    +0.000 A 
ATOM     28  O   UNL     1       5.600   6.775  16.042  0.00  0.00    +0.000 OA
ENDBRANCH  17  18
ENDBRANCH  16  17
ENDBRANCH   2  16
TORSDOF 4
ENDMDL
MODEL 6
REMARK VINA RESULT:      -8.2      1.034      1.584
REMARK  Name = 
REMARK  6 active torsions:
REMARK  status: ('A' for Active; 'I' for Inactive)
REMARK    1  A    between atoms: C_1  and  C_2
REMARK    2  A    between atoms: C_2  and  C_3
REMARK    3  A    between atoms: C_9  and  N_10
REMARK    4  A    between atoms: C_11  and  C_13
REMARK    5  A    between atoms: C_13  and  C_14
REMARK    6  A    between atoms: C_14  and  N_15
REMARK                            x       y       z     vdW  Elec       q    Type
REMARK                         _______ _______ _______ _____ _____    ______ ____
ROOT
ATOM      1  N   UNL     1       6.875   7.536  16.885  0.00  0.00    +0.000 N 
ATOM      2  C   UNL     1       7.782   7.841  17.878  0.00  0.00    +0.000 C 
ATOM      3  O   UNL     1       8.283   7.037  18.662  0.00  0.00    +0.000 OA
ATOM      4  H   UNL     1       6.465   8.283  16.335  0.00  0.00    +0.000 HD
ENDROOT
BRANCH   1  13
ATOM      5  C   UNL     1       2.229   6.097  17.926  0.00  0.00    +0.000 C 
ATOM      6  C   UNL     1       3.502   5.403  18.425  0.00  0.00    +0.000 C 
ATOM      7  C   UNL     1       3.425   5.200  19.941  0.00  0.00    +0.000 C 
ATOM      8  C   UNL     1       3.729   4.058  17.701  0.00  0.00    +0.000 C 
ATOM      9  C   UNL     1       4.885   4.408  16.850  0.00  0.00    +0.000 A 
ATOM     10  C   UNL     1       5.503   3.635  15.883  0.00  0.00    +0.000 A 
ATOM     11  C   UNL     1       6.605   4.170  15.224  0.00  0.00    +0.000 A 
ATOM     12  C   UNL     1       7.073   5.454  15.543  0.00  0.00    +0.000 A 
ATOM     13  C   UNL     1       6.455   6.232  16.528  0.00  0.00    +0.000 A 
ATOM     14  C   UNL     1       5.352   5.676  17.165  0.00  0.00    +0.000 A 
ATOM     15  O   UNL     1       4.626   6.295  18.156  0.00  0.00    +0.000 OA
ENDBRANCH   1  13
BRANCH   2  16
ATOM     16  C   UNL     1       8.132   9.307  17.993  0.00  0.00    +0.000 C 
BRANCH  16  17
ATOM     17  C   UNL     1       9.218   9.433  19.063  0.00  0.00    +0.000 C 
BRANCH  17  18
ATOM     18  N   UNL     1       9.458  10.801  19.485  0.00  0.00    +0.000 N 
ATOM     19  C   UNL     1       9.007  11.221  20.714  0.00  0.00    +0.000 A 
ATOM     20  N   UNL     1       9.271  12.369  21.243  0.00  0.00    +0.000 NA
ATOM     21  C   UNL     1      10.105  13.236  20.522  0.00  0.00    +0.000 A 
ATOM     22  C   UNL     1      10.503  14.436  21.112  0.00  0.00    +0.000 A 
ATOM     23  C   UNL     1      11.350  15.315  20.433  0.00  0.00    +0.000 A 
ATOM     24  C   UNL     1      11.800  15.007  19.148  0.00  0.00    +0.000 A 
ATOM     25  C   UNL     1      11.408  13.814  18.545  0.00  0.00    +0.000 A 
ATOM     26  C   UNL     1      10.570  12.935  19.238  0.00  0.00    +0.000 A 
ATOM     27  C   UNL     1      10.198  11.632  18.660  0.00  0.00    +0.000 A 
ATOM     28  O   UNL     1      10.549  11.333  17.522  0.00  0.00    +0.000 OA
ENDBRANCH  17  18
ENDBRANCH  16  17
ENDBRANCH   2  16
TORSDOF 4
ENDMDL
MODEL 7
REMARK VINA RESULT:      -8.2      6.535      9.481
REMARK  Name = 
REMARK  6 active torsions:
REMARK  status: ('A' for Active; 'I' for Inactive)
REMARK    1  A    between atoms: C_1  and  C_2
REMARK    2  A    between atoms: C_2  and  C_3
REMARK    3  A    between atoms: C_9  and  N_10
REMARK    4  A    between atoms: C_11  and  C_13
REMARK    5  A    between atoms: C_13  and  C_14
REMARK    6  A    between atoms: C_14  and  N_15
REMARK                            x       y       z     vdW  Elec       q    Type
REMARK                         _______ _______ _______ _____ _____    ______ ____
ROOT
ATOM      1  N   UNL     1       2.374   7.464  19.080  0.00  0.00    +0.000 N 
ATOM      2  C   UNL     1       1.942   8.619  18.463  0.00  0.00    +0.000 C 
ATOM      3  O   UNL     1       2.233   8.972  17.321  0.00  0.00    +0.000 OA
ATOM      4  H   UNL     1       2.135   7.296  20.052  0.00  0.00    +0.000 HD
ENDROOT
BRANCH   1  13
ATOM      5  C   UNL     1       0.737   2.771  19.288  0.00  0.00    +0.000 C 
ATOM      6  C   UNL     1       2.089   3.261  19.822  0.00  0.00    +0.000 C 
ATOM      7  C   UNL     1       2.284   2.782  21.263  0.00  0.00    +0.000 C 
ATOM      8  C   UNL     1       3.252   2.788  18.923  0.00  0.00    +0.000 C 
ATOM      9  C   UNL     1       3.634   4.068  18.291  0.00  0.00    +0.000 A 
ATOM     10  C   UNL     1       4.569   4.286  17.294  0.00  0.00    +0.000 A 
ATOM     11  C   UNL     1       4.782   5.595  16.873  0.00  0.00    +0.000 A 
ATOM     12  C   UNL     1       4.069   6.656  17.452  0.00  0.00    +0.000 A 
ATOM     13  C   UNL     1       3.130   6.436  18.466  0.00  0.00    +0.000 A 
ATOM     14  C   UNL     1       2.932   5.119  18.863  0.00  0.00    +0.000 A 
ATOM     15  O   UNL     1       2.054   4.721  19.842  0.00  0.00    +0.000 OA
ENDBRANCH   1  13
BRANCH   2  16
ATOM     16  C   UNL     1       1.067   9.509  19.315  0.00  0.00    +0.000 C 
BRANCH  16  17
ATOM     17  C   UNL     1       0.474  10.578  18.397  0.00  0.00    +0.000 C 
BRANCH  17  18
ATOM     18  N   UNL     1      -0.877  10.967  18.757  0.00  0.00    +0.000 N 
ATOM     19  C   UNL     1      -1.094  11.672  19.918  0.00  0.00    +0.000 A 
ATOM     20  N   UNL     1      -2.229  12.175  20.272  0.00  0.00    +0.000 NA
ATOM     21  C   UNL     1      -3.309  12.016  19.393  0.00  0.00    +0.000 A 
ATOM     22  C   UNL     1      -4.520  12.643  19.689  0.00  0.00    +0.000 A 
ATOM     23  C   UNL     1      -5.612  12.525  18.827  0.00  0.00    +0.000 A 
ATOM     24  C   UNL     1      -5.508  11.765  17.660  0.00  0.00    +0.000 A 
ATOM     25  C   UNL     1      -4.307  11.130  17.353  0.00  0.00    +0.000 A 
ATOM     26  C   UNL     1      -3.216  11.266  18.216  0.00  0.00    +0.000 A 
ATOM     27  C   UNL     1      -1.910  10.671  17.883  0.00  0.00    +0.000 A 
ATOM     28  O   UNL     1      -1.782   9.972  16.882  0.00  0.00    +0.000 OA
ENDBRANCH  17  18
ENDBRANCH  16  17
ENDBRANCH   2  16
TORSDOF 4
ENDMDL
MODEL 8
REMARK VINA RESULT:      -8.1      1.728      9.412
REMARK  Name = 
REMARK  6 active torsions:
REMARK  status: ('A' for Active; 'I' for Inactive)
REMARK    1  A    between atoms: C_1  and  C_2
REMARK    2  A    between atoms: C_2  and  C_3
REMARK    3  A    between atoms: C_9  and  N_10
REMARK    4  A    between atoms: C_11  and  C_13
REMARK    5  A    between atoms: C_13  and  C_14
REMARK    6  A    between atoms: C_14  and  N_15
REMARK                            x       y       z     vdW  Elec       q    Type
REMARK                         _______ _______ _______ _____ _____    ______ ____
ROOT
ATOM      1  N   UNL     1       9.932  10.552  18.943  0.00  0.00    +0.000 N 
ATOM      2  C   UNL     1       8.818  10.025  18.325  0.00  0.00    +0.000 C 
ATOM      3  O   UNL     1       8.073  10.630  17.555  0.00  0.00    +0.000 OA
ATOM      4  H   UNL     1      10.442   9.992  19.618  0.00  0.00    +0.000 HD
ENDROOT
BRANCH   1  13
ATOM      5  C   UNL     1       9.267  14.129  22.334  0.00  0.00    +0.000 C 
ATOM      6  C   UNL     1       8.812  14.202  20.872  0.00  0.00    +0.000 C 
ATOM      7  C   UNL     1       7.340  14.615  20.804  0.00  0.00    +0.000 C 
ATOM      8  C   UNL     1       9.694  15.174  20.058  0.00  0.00    +0.000 C 
ATOM      9  C   UNL     1      10.447  14.213  19.225  0.00  0.00    +0.000 A 
ATOM     10  C   UNL     1      11.481  14.470  18.342  0.00  0.00    +0.000 A 
ATOM     11  C   UNL     1      12.022  13.398  17.639  0.00  0.00    +0.000 A 
ATOM     12  C   UNL     1      11.522  12.099  17.823  0.00  0.00    +0.000 A 
ATOM     13  C   UNL     1      10.471  11.840  18.708  0.00  0.00    +0.000 A 
ATOM     14  C   UNL     1       9.953  12.928  19.402  0.00  0.00    +0.000 A 
ATOM     15  O   UNL     1       8.921  12.860  20.308  0.00  0.00    +0.000 OA
ENDBRANCH   1  13
BRANCH   2  16
ATOM     16  C   UNL     1       8.510   8.590  18.682  0.00  0.00    +0.000 C 
BRANCH  16  17
ATOM     17  C   UNL     1       7.773   7.972  17.492  0.00  0.00    +0.000 C 
BRANCH  17  18
ATOM     18  N   UNL     1       7.076   6.741  17.818  0.00  0.00    +0.000 N 
ATOM     19  C   UNL     1       7.417   6.049  18.956  0.00  0.00    +0.000 A 
ATOM     20  N   UNL     1       6.784   5.019  19.408  0.00  0.00    +0.000 NA
ATOM     21  C   UNL     1       5.649   4.596  18.703  0.00  0.00    +0.000 A 
ATOM     22  C   UNL     1       4.877   3.558  19.224  0.00  0.00    +0.000 A 
ATOM     23  C   UNL     1       3.726   3.124  18.561  0.00  0.00    +0.000 A 
ATOM     24  C   UNL     1       3.342   3.719  17.357  0.00  0.00    +0.000 A 
ATOM     25  C   UNL     1       4.106   4.754  16.822  0.00  0.00    +0.000 A 
ATOM     26  C   UNL     1       5.248   5.189  17.502  0.00  0.00    +0.000 A 
ATOM     27  C   UNL     1       6.034   6.331  17.003  0.00  0.00    +0.000 A 
ATOM     28  O   UNL     1       5.747   6.865  15.935  0.00  0.00    +0.000 OA
ENDBRANCH  17  18
ENDBRANCH  16  17
ENDBRANCH   2  16
TORSDOF 4
ENDMDL
MODEL 9
REMARK VINA RESULT:      -8.1      1.947      9.357
REMARK  Name = 
REMARK  6 active torsions:
REMARK  status: ('A' for Active; 'I' for Inactive)
REMARK    1  A    between atoms: C_1  and  C_2
REMARK    2  A    between atoms: C_2  and  C_3
REMARK    3  A    between atoms: C_9  and  N_10
REMARK    4  A    between atoms: C_11  and  C_13
REMARK    5  A    between atoms: C_13  and  C_14
REMARK    6  A    between atoms: C_14  and  N_15
REMARK                            x       y       z     vdW  Elec       q    Type
REMARK                         _______ _______ _______ _____ _____    ______ ____
ROOT
ATOM      1  N   UNL     1       9.188  10.880  17.848  0.00  0.00    +0.000 N 
ATOM      2  C   UNL     1       8.686   9.778  18.506  0.00  0.00    +0.000 C 
ATOM      3  O   UNL     1       9.041   9.384  19.616  0.00  0.00    +0.000 OA
ATOM      4  H   UNL     1       8.880  11.082  16.903  0.00  0.00    +0.000 HD
ENDROOT
BRANCH   1  13
ATOM      5  C   UNL     1       7.512  14.769  20.457  0.00  0.00    +0.000 C 
ATOM      6  C   UNL     1       8.365  14.859  19.187  0.00  0.00    +0.000 C 
ATOM      7  C   UNL     1       7.714  15.820  18.189  0.00  0.00    +0.000 C 
ATOM      8  C   UNL     1       9.810  15.297  19.510  0.00  0.00    +0.000 C 
ATOM      9  C   UNL     1      10.530  14.029  19.271  0.00  0.00    +0.000 A 
ATOM     10  C   UNL     1      11.868  13.750  19.489  0.00  0.00    +0.000 A 
ATOM     11  C   UNL     1      12.333  12.481  19.157  0.00  0.00    +0.000 A 
ATOM     12  C   UNL     1      11.464  11.522  18.613  0.00  0.00    +0.000 A 
ATOM     13  C   UNL     1      10.114  11.808  18.384  0.00  0.00    +0.000 A 
ATOM     14  C   UNL     1       9.675  13.081  18.730  0.00  0.00    +0.000 A 
ATOM     15  O   UNL     1       8.386  13.534  18.573  0.00  0.00    +0.000 OA
ENDBRANCH   1  13
BRANCH   2  16
ATOM     16  C   UNL     1       7.637   9.003  17.744  0.00  0.00    +0.000 C 
BRANCH  16  17
ATOM     17  C   UNL     1       8.236   7.638  17.404  0.00  0.00    +0.000 C 
BRANCH  17  18
ATOM     18  N   UNL     1       7.403   6.521  17.812  0.00  0.00    +0.000 N 
ATOM     19  C   UNL     1       7.508   6.028  19.091  0.00  0.00    +0.000 A 
ATOM     20  N   UNL     1       6.734   5.128  19.598  0.00  0.00    +0.000 NA
ATOM     21  C   UNL     1       5.693   4.642  18.795  0.00  0.00    +0.000 A 
ATOM     22  C   UNL     1       4.771   3.754  19.348  0.00  0.00    +0.000 A 
ATOM     23  C   UNL     1       3.707   3.265  18.584  0.00  0.00    +0.000 A 
ATOM     24  C   UNL     1       3.563   3.653  17.251  0.00  0.00    +0.000 A 
ATOM     25  C   UNL     1       4.479   4.537  16.684  0.00  0.00    +0.000 A 
ATOM     26  C   UNL     1       5.531   5.030  17.461  0.00  0.00    +0.000 A 
ATOM     27  C   UNL     1       6.472   6.023  16.915  0.00  0.00    +0.000 A 
ATOM     28  O   UNL     1       6.397   6.370  15.740  0.00  0.00    +0.000 OA
ENDBRANCH  17  18
ENDBRANCH  16  17
ENDBRANCH   2  16
TORSDOF 4
ENDMDL
