MODEL 1
REMARK VINA RESULT:      -9.1      0.000      0.000
REMARK  Name = 
REMARK  3 active torsions:
REMARK  status: ('A' for Active; 'I' for Inactive)
REMARK    1  A    between atoms: C_1  and  C_2
REMARK    2  A    between atoms: C_7  and  C_8
REMARK    3  A    between atoms: N_15  and  C_16
REMARK                            x       y       z     vdW  Elec       q    Type
REMARK                         _______ _______ _______ _____ _____    ______ ____
ROOT
ATOM      1  C   UNL     1       4.798   4.154  19.060  0.00  0.00    +0.000 C 
ATOM      2  C   UNL     1       4.452   2.658  19.202  0.00  0.00    +0.000 C 
ATOM      3  C   UNL     1       3.510   2.607  20.386  0.00  0.00    +0.000 C 
ATOM      4  C   UNL     1       2.776   3.935  20.334  0.00  0.00    +0.000 C 
ATOM      5  N   UNL     1       3.546   4.815  19.460  0.00  0.00    +0.000 N 
ATOM      6  C   UNL     1       3.316   6.181  19.302  0.00  0.00    +0.000 C 
ATOM      7  O   UNL     1       4.030   6.896  18.607  0.00  0.00    +0.000 OA
ATOM      8  N   UNL     1       2.226   6.647  20.023  0.00  0.00    +0.000 N 
ATOM      9  H   UNL     1       1.929   6.065  20.786  0.00  0.00    +0.000 HD
ENDROOT
BRANCH   8  10
ATOM     10  C   UNL     1       1.673   7.945  20.025  0.00  0.00    +0.000 A 
ATOM     11  C   UNL     1       1.611   8.770  18.882  0.00  0.00    +0.000 A 
ATOM     12  C   UNL     1       1.052  10.060  18.941  0.00  0.00    +0.000 A 
ATOM     13  C   UNL     1       0.572  10.488  20.160  0.00  0.00    +0.000 A 
ATOM     14  C   UNL     1       0.617   9.680  21.280  0.00  0.00    +0.000 A 
ATOM     15  C   UNL     1       1.144   8.404  21.244  0.00  0.00    +0.000 A 
ATOM     16  C   UNL     1       0.043  10.434  22.393  0.00  0.00    +0.000 C 
ATOM     17  O   UNL     1      -0.066  10.027  23.532  0.00  0.00    +0.000 OA
ATOM     18  N   UNL     1      -0.316  11.646  21.891  0.00  0.00    +0.000 N 
ATOM     19  C   UNL     1      -0.037  11.756  20.563  0.00  0.00    +0.000 C 
ATOM     20  O   UNL     1      -0.241  12.708  19.835  0.00  0.00    +0.000 OA
ATOM     21  H   UNL     1      -0.733  12.380  22.441  0.00  0.00    +0.000 HD
ENDBRANCH   8  10
BRANCH   1  28
ATOM     22  C   UNL     1       7.565   5.320  18.633  0.00  0.00    +0.000 C 
ATOM     23  C   UNL     1       6.697   4.869  17.488  0.00  0.00    +0.000 A 
ATOM     24  C   UNL     1       7.239   4.919  16.191  0.00  0.00    +0.000 A 
ATOM     25  C   UNL     1       6.507   4.485  15.089  0.00  0.00    +0.000 A 
ATOM     26  C   UNL     1       5.208   4.025  15.263  0.00  0.00    +0.000 A 
ATOM     27  C   UNL     1       4.642   3.993  16.539  0.00  0.00    +0.000 A 
ATOM     28  C   UNL     1       5.375   4.390  17.674  0.00  0.00    +0.000 A 
ENDBRANCH   1  28
TORSDOF 2
ENDMDL
MODEL 2
REMARK VINA RESULT:      -8.6      2.189      8.329
REMARK  Name = 
REMARK  3 active torsions:
REMARK  status: ('A' for Active; 'I' for Inactive)
REMARK    1  A    between atoms: C_1  and  C_2
REMARK    2  A    between atoms: C_7  and  C_8
REMARK    3  A    between atoms: N_15  and  C_16
REMARK                            x       y       z     vdW  Elec       q    Type
REMARK                         _______ _______ _______ _____ _____    ______ ____
ROOT
ATOM      1  C   UNL     1      -0.286  10.562  20.946  0.00  0.00    +0.000 C 
ATOM      2  C   UNL     1      -0.433  11.038  22.405  0.00  0.00    +0.000 C 
ATOM      3  C   UNL     1      -0.316   9.769  23.222  0.00  0.00    +0.000 C 
ATOM      4  C   UNL     1       0.619   8.889  22.411  0.00  0.00    +0.000 C 
ATOM      5  N   UNL     1       0.670   9.449  21.064  0.00  0.00    +0.000 N 
ATOM      6  C   UNL     1       1.261   8.827  19.965  0.00  0.00    +0.000 C 
ATOM      7  O   UNL     1       1.224   9.304  18.835  0.00  0.00    +0.000 OA
ATOM      8  N   UNL     1       1.868   7.617  20.272  0.00  0.00    +0.000 N 
ATOM      9  H   UNL     1       1.563   7.183  21.124  0.00  0.00    +0.000 HD
ENDROOT
BRANCH   8  10
ATOM     10  C   UNL     1       2.619   6.779  19.422  0.00  0.00    +0.000 A 
ATOM     11  C   UNL     1       3.200   7.211  18.211  0.00  0.00    +0.000 A 
ATOM     12  C   UNL     1       3.937   6.331  17.398  0.00  0.00    +0.000 A 
ATOM     13  C   UNL     1       4.066   5.028  17.829  0.00  0.00    +0.000 A 
ATOM     14  C   UNL     1       3.512   4.601  19.020  0.00  0.00    +0.000 A 
ATOM     15  C   UNL     1       2.799   5.450  19.845  0.00  0.00    +0.000 A 
ATOM     16  C   UNL     1       3.822   3.180  19.169  0.00  0.00    +0.000 C 
ATOM     17  O   UNL     1       3.479   2.483  20.102  0.00  0.00    +0.000 OA
ATOM     18  N   UNL     1       4.541   2.827  18.070  0.00  0.00    +0.000 N 
ATOM     19  C   UNL     1       4.734   3.875  17.223  0.00  0.00    +0.000 C 
ATOM     20  O   UNL     1       5.334   3.879  16.166  0.00  0.00    +0.000 OA
ATOM     21  H   UNL     1       4.885   1.896  17.900  0.00  0.00    +0.000 HD
ENDBRANCH   8  10
BRANCH   1  28
ATOM     22  C   UNL     1      -1.915  11.280  18.491  0.00  0.00    +0.000 C 
ATOM     23  C   UNL     1      -0.766  12.127  18.970  0.00  0.00    +0.000 A 
ATOM     24  C   UNL     1      -0.510  13.333  18.293  0.00  0.00    +0.000 A 
ATOM     25  C   UNL     1       0.513  14.184  18.702  0.00  0.00    +0.000 A 
ATOM     26  C   UNL     1       1.318  13.826  19.775  0.00  0.00    +0.000 A 
ATOM     27  C   UNL     1       1.099  12.620  20.444  0.00  0.00    +0.000 A 
ATOM     28  C   UNL     1       0.046  11.761  20.074  0.00  0.00    +0.000 A 
ENDBRANCH   1  28
TORSDOF 2
ENDMDL
MODEL 3
REMARK VINA RESULT:      -8.5      0.669      1.518
REMARK  Name = 
REMARK  3 active torsions:
REMARK  status: ('A' for Active; 'I' for Inactive)
REMARK    1  A    between atoms: C_1  and  C_2
REMARK    2  A    between atoms: C_7  and  C_8
REMARK    3  A    between atoms: N_15  and  C_16
REMARK                            x       y       z     vdW  Elec       q    Type
REMARK                         _______ _______ _______ _____ _____    ______ ____
ROOT
ATOM      1  C   UNL     1       4.386   3.934  19.673  0.00  0.00    +0.000 C 
ATOM      2  C   UNL     1       3.916   2.485  19.913  0.00  0.00    +0.000 C 
ATOM      3  C   UNL     1       2.920   2.604  21.048  0.00  0.00    +0.000 C 
ATOM      4  C   UNL     1       2.298   3.975  20.856  0.00  0.00    +0.000 C 
ATOM      5  N   UNL     1       3.175   4.719  19.956  0.00  0.00    +0.000 N 
ATOM      6  C   UNL     1       3.062   6.082  19.682  0.00  0.00    +0.000 C 
ATOM      7  O   UNL     1       3.862   6.682  18.970  0.00  0.00    +0.000 OA
ATOM      8  N   UNL     1       1.982   6.687  20.308  0.00  0.00    +0.000 N 
ATOM      9  H   UNL     1       1.605   6.193  21.097  0.00  0.00    +0.000 HD
ENDROOT
BRANCH   8  10
ATOM     10  C   UNL     1       1.535   8.019  20.181  0.00  0.00    +0.000 A 
ATOM     11  C   UNL     1       1.628   8.765  18.986  0.00  0.00    +0.000 A 
ATOM     12  C   UNL     1       1.171  10.093  18.916  0.00  0.00    +0.000 A 
ATOM     13  C   UNL     1       0.633  10.640  20.062  0.00  0.00    +0.000 A 
ATOM     14  C   UNL     1       0.527   9.911  21.231  0.00  0.00    +0.000 A 
ATOM     15  C   UNL     1       0.952   8.600  21.321  0.00  0.00    +0.000 A 
ATOM     16  C   UNL     1      -0.070  10.782  22.243  0.00  0.00    +0.000 C 
ATOM     17  O   UNL     1      -0.299  10.465  23.393  0.00  0.00    +0.000 OA
ATOM     18  N   UNL     1      -0.291  11.979  21.636  0.00  0.00    +0.000 N 
ATOM     19  C   UNL     1       0.097  11.975  20.332  0.00  0.00    +0.000 C 
ATOM     20  O   UNL     1       0.027  12.886  19.529  0.00  0.00    +0.000 OA
ATOM     21  H   UNL     1      -0.690  12.779  22.101  0.00  0.00    +0.000 HD
ENDBRANCH   8  10
BRANCH   1  28
ATOM     22  C   UNL     1       2.868   3.350  17.114  0.00  0.00    +0.000 C 
ATOM     23  C   UNL     1       4.303   3.807  17.111  0.00  0.00    +0.000 A 
ATOM     24  C   UNL     1       4.915   4.048  15.868  0.00  0.00    +0.000 A 
ATOM     25  C   UNL     1       6.227   4.506  15.790  0.00  0.00    +0.000 A 
ATOM     26  C   UNL     1       6.959   4.699  16.954  0.00  0.00    +0.000 A 
ATOM     27  C   UNL     1       6.379   4.440  18.197  0.00  0.00    +0.000 A 
ATOM     28  C   UNL     1       5.041   4.013  18.304  0.00  0.00    +0.000 A 
ENDBRANCH   1  28
TORSDOF 2
ENDMDL
MODEL 4
REMARK VINA RESULT:      -8.4      2.369      8.266
REMARK  Name = 
REMARK  3 active torsions:
REMARK  status: ('A' for Active; 'I' for Inactive)
REMARK    1  A    between atoms: C_1  and  C_2
REMARK    2  A    between atoms: C_7  and  C_8
REMARK    3  A    between atoms: N_15  and  C_16
REMARK                            x       y       z     vdW  Elec       q    Type
REMARK                         _______ _______ _______ _____ _____    ______ ____
ROOT
ATOM      1  C   UNL     1      -0.008   9.833  20.353  0.00  0.00    +0.000 C 
ATOM      2  C   UNL     1      -0.124  10.245  21.834  0.00  0.00    +0.000 C 
ATOM      3  C   UNL     1       0.207   8.980  22.597  0.00  0.00    +0.000 C 
ATOM      4  C   UNL     1       1.195   8.253  21.702  0.00  0.00    +0.000 C 
ATOM      5  N   UNL     1       1.089   8.852  20.374  0.00  0.00    +0.000 N 
ATOM      6  C   UNL     1       1.686   8.343  19.221  0.00  0.00    +0.000 C 
ATOM      7  O   UNL     1       1.516   8.843  18.114  0.00  0.00    +0.000 OA
ATOM      8  N   UNL     1       2.461   7.216  19.449  0.00  0.00    +0.000 N 
ATOM      9  H   UNL     1       2.269   6.721  20.302  0.00  0.00    +0.000 HD
ENDROOT
BRANCH   8  10
ATOM     10  C   UNL     1       3.261   6.507  18.527  0.00  0.00    +0.000 A 
ATOM     11  C   UNL     1       2.881   5.279  17.946  0.00  0.00    +0.000 A 
ATOM     12  C   UNL     1       3.719   4.611  17.034  0.00  0.00    +0.000 A 
ATOM     13  C   UNL     1       4.928   5.202  16.736  0.00  0.00    +0.000 A 
ATOM     14  C   UNL     1       5.301   6.411  17.291  0.00  0.00    +0.000 A 
ATOM     15  C   UNL     1       4.489   7.094  18.175  0.00  0.00    +0.000 A 
ATOM     16  C   UNL     1       6.629   6.743  16.778  0.00  0.00    +0.000 C 
ATOM     17  O   UNL     1       7.263   7.738  17.069  0.00  0.00    +0.000 OA
ATOM     18  N   UNL     1       6.985   5.727  15.947  0.00  0.00    +0.000 N 
ATOM     19  C   UNL     1       6.022   4.769  15.864  0.00  0.00    +0.000 C 
ATOM     20  O   UNL     1       6.042   3.746  15.207  0.00  0.00    +0.000 OA
ATOM     21  H   UNL     1       7.863   5.686  15.456  0.00  0.00    +0.000 HD
ENDBRANCH   8  10
BRANCH   1  28
ATOM     22  C   UNL     1      -2.004  10.513  18.173  0.00  0.00    +0.000 C 
ATOM     23  C   UNL     1      -0.868  11.431  18.538  0.00  0.00    +0.000 A 
ATOM     24  C   UNL     1      -0.798  12.680  17.895  0.00  0.00    +0.000 A 
ATOM     25  C   UNL     1       0.204  13.595  18.208  0.00  0.00    +0.000 A 
ATOM     26  C   UNL     1       1.171  13.262  19.147  0.00  0.00    +0.000 A 
ATOM     27  C   UNL     1       1.136  12.016  19.777  0.00  0.00    +0.000 A 
ATOM     28  C   UNL     1       0.111  11.089  19.506  0.00  0.00    +0.000 A 
ENDBRANCH   1  28
TORSDOF 2
ENDMDL
MODEL 5
REMARK VINA RESULT:      -8.4      2.332      8.339
REMARK  Name = 
REMARK  3 active torsions:
REMARK  status: ('A' for Active; 'I' for Inactive)
REMARK    1  A    between atoms: C_1  and  C_2
REMARK    2  A    between atoms: C_7  and  C_8
REMARK    3  A    between atoms: N_15  and  C_16
REMARK                            x       y       z     vdW  Elec       q    Type
REMARK                         _______ _______ _______ _____ _____    ______ ____
ROOT
ATOM      1  C   UNL     1      -0.112  10.008  20.463  0.00  0.00    +0.000 C 
ATOM      2  C   UNL     1      -0.230  10.371  21.957  0.00  0.00    +0.000 C 
ATOM      3  C   UNL     1       0.117   9.085  22.678  0.00  0.00    +0.000 C 
ATOM      4  C   UNL     1       1.112   8.400  21.758  0.00  0.00    +0.000 C 
ATOM      5  N   UNL     1       0.997   9.041  20.451  0.00  0.00    +0.000 N 
ATOM      6  C   UNL     1       1.598   8.577  19.282  0.00  0.00    +0.000 C 
ATOM      7  O   UNL     1       1.421   9.110  18.191  0.00  0.00    +0.000 OA
ATOM      8  N   UNL     1       2.387   7.453  19.471  0.00  0.00    +0.000 N 
ATOM      9  H   UNL     1       2.202   6.928  20.308  0.00  0.00    +0.000 HD
ENDROOT
BRANCH   8  10
ATOM     10  C   UNL     1       3.193   6.784  18.526  0.00  0.00    +0.000 A 
ATOM     11  C   UNL     1       3.955   7.446  17.540  0.00  0.00    +0.000 A 
ATOM     12  C   UNL     1       4.739   6.730  16.618  0.00  0.00    +0.000 A 
ATOM     13  C   UNL     1       4.730   5.354  16.712  0.00  0.00    +0.000 A 
ATOM     14  C   UNL     1       3.997   4.700  17.683  0.00  0.00    +0.000 A 
ATOM     15  C   UNL     1       3.234   5.381  18.611  0.00  0.00    +0.000 A 
ATOM     16  C   UNL     1       4.199   3.264  17.497  0.00  0.00    +0.000 C 
ATOM     17  O   UNL     1       3.692   2.392  18.175  0.00  0.00    +0.000 OA
ATOM     18  N   UNL     1       5.035   3.128  16.433  0.00  0.00    +0.000 N 
ATOM     19  C   UNL     1       5.402   4.330  15.910  0.00  0.00    +0.000 C 
ATOM     20  O   UNL     1       6.137   4.540  14.965  0.00  0.00    +0.000 OA
ATOM     21  H   UNL     1       5.341   2.240  16.070  0.00  0.00    +0.000 HD
ENDBRANCH   8  10
BRANCH   1  28
ATOM     22  C   UNL     1      -1.850  10.542  18.036  0.00  0.00    +0.000 C 
ATOM     23  C   UNL     1      -0.877  11.561  18.568  0.00  0.00    +0.000 A 
ATOM     24  C   UNL     1      -0.850  12.828  17.958  0.00  0.00    +0.000 A 
ATOM     25  C   UNL     1      -0.001  13.830  18.419  0.00  0.00    +0.000 A 
ATOM     26  C   UNL     1       0.858  13.571  19.478  0.00  0.00    +0.000 A 
ATOM     27  C   UNL     1       0.867  12.311  20.081  0.00  0.00    +0.000 A 
ATOM     28  C   UNL     1      -0.009  11.293  19.658  0.00  0.00    +0.000 A 
ENDBRANCH   1  28
TORSDOF 2
ENDMDL
MODEL 6
REMARK VINA RESULT:      -8.1      2.246      8.239
REMARK  Name = 
REMARK  3 active torsions:
REMARK  status: ('A' for Active; 'I' for Inactive)
REMARK    1  A    between atoms: C_1  and  C_2
REMARK    2  A    between atoms: C_7  and  C_8
REMARK    3  A    between atoms: N_15  and  C_16
REMARK                            x       y       z     vdW  Elec       q    Type
REMARK                         _______ _______ _______ _____ _____    ______ ____
ROOT
ATOM      1  C   UNL     1      -0.110  10.315  20.812  0.00  0.00    +0.000 C 
ATOM      2  C   UNL     1      -0.299  10.776  22.271  0.00  0.00    +0.000 C 
ATOM      3  C   UNL     1      -0.251   9.493  23.073  0.00  0.00    +0.000 C 
ATOM      4  C   UNL     1       0.689   8.597  22.286  0.00  0.00    +0.000 C 
ATOM      5  N   UNL     1       0.808   9.173  20.949  0.00  0.00    +0.000 N 
ATOM      6  C   UNL     1       1.423   8.548  19.865  0.00  0.00    +0.000 C 
ATOM      7  O   UNL     1       1.443   9.041  18.742  0.00  0.00    +0.000 OA
ATOM      8  N   UNL     1       1.983   7.318  20.178  0.00  0.00    +0.000 N 
ATOM      9  H   UNL     1       1.632   6.881  21.012  0.00  0.00    +0.000 HD
ENDROOT
BRANCH   8  10
ATOM     10  C   UNL     1       2.742   6.469  19.346  0.00  0.00    +0.000 A 
ATOM     11  C   UNL     1       2.221   5.819  18.207  0.00  0.00    +0.000 A 
ATOM     12  C   UNL     1       3.022   4.979  17.413  0.00  0.00    +0.000 A 
ATOM     13  C   UNL     1       4.336   4.811  17.795  0.00  0.00    +0.000 A 
ATOM     14  C   UNL     1       4.857   5.455  18.901  0.00  0.00    +0.000 A 
ATOM     15  C   UNL     1       4.096   6.298  19.686  0.00  0.00    +0.000 A 
ATOM     16  C   UNL     1       6.258   5.054  19.027  0.00  0.00    +0.000 C 
ATOM     17  O   UNL     1       7.016   5.427  19.900  0.00  0.00    +0.000 OA
ATOM     18  N   UNL     1       6.506   4.198  18.000  0.00  0.00    +0.000 N 
ATOM     19  C   UNL     1       5.411   4.004  17.216  0.00  0.00    +0.000 C 
ATOM     20  O   UNL     1       5.317   3.303  16.227  0.00  0.00    +0.000 OA
ATOM     21  H   UNL     1       7.397   3.754  17.843  0.00  0.00    +0.000 HD
ENDBRANCH   8  10
BRANCH   1  28
ATOM     22  C   UNL     1      -1.746  11.243  18.432  0.00  0.00    +0.000 C 
ATOM     23  C   UNL     1      -0.522  11.982  18.904  0.00  0.00    +0.000 A 
ATOM     24  C   UNL     1      -0.192  13.188  18.260  0.00  0.00    +0.000 A 
ATOM     25  C   UNL     1       0.906  13.943  18.666  0.00  0.00    +0.000 A 
ATOM     26  C   UNL     1       1.710  13.486  19.701  0.00  0.00    +0.000 A 
ATOM     27  C   UNL     1       1.416  12.278  20.336  0.00  0.00    +0.000 A 
ATOM     28  C   UNL     1       0.290  11.515  19.970  0.00  0.00    +0.000 A 
ENDBRANCH   1  28
TORSDOF 2
ENDMDL
MODEL 7
REMARK VINA RESULT:      -7.9      1.089      1.921
REMARK  Name = 
REMARK  3 active torsions:
REMARK  status: ('A' for Active; 'I' for Inactive)
REMARK    1  A    between atoms: C_1  and  C_2
REMARK    2  A    between atoms: C_7  and  C_8
REMARK    3  A    between atoms: N_15  and  C_16
REMARK                            x       y       z     vdW  Elec       q    Type
REMARK                         _______ _______ _______ _____ _____    ______ ____
ROOT
ATOM      1  C   UNL     1       4.626   4.037  19.326  0.00  0.00    +0.000 C 
ATOM      2  C   UNL     1       4.301   2.530  19.384  0.00  0.00    +0.000 C 
ATOM      3  C   UNL     1       3.335   2.405  20.543  0.00  0.00    +0.000 C 
ATOM      4  C   UNL     1       2.581   3.723  20.544  0.00  0.00    +0.000 C 
ATOM      5  N   UNL     1       3.356   4.658  19.733  0.00  0.00    +0.000 N 
ATOM      6  C   UNL     1       3.107   6.027  19.641  0.00  0.00    +0.000 C 
ATOM      7  O   UNL     1       3.823   6.787  18.998  0.00  0.00    +0.000 OA
ATOM      8  N   UNL     1       1.995   6.439  20.361  0.00  0.00    +0.000 N 
ATOM      9  H   UNL     1       1.692   5.814  21.087  0.00  0.00    +0.000 HD
ENDROOT
BRANCH   8  10
ATOM     10  C   UNL     1       1.421   7.726  20.418  0.00  0.00    +0.000 A 
ATOM     11  C   UNL     1       0.508   8.132  21.414  0.00  0.00    +0.000 A 
ATOM     12  C   UNL     1      -0.038   9.429  21.421  0.00  0.00    +0.000 A 
ATOM     13  C   UNL     1       0.351  10.286  20.413  0.00  0.00    +0.000 A 
ATOM     14  C   UNL     1       1.255   9.899  19.442  0.00  0.00    +0.000 A 
ATOM     15  C   UNL     1       1.818   8.638  19.424  0.00  0.00    +0.000 A 
ATOM     16  C   UNL     1       1.436  11.029  18.532  0.00  0.00    +0.000 C 
ATOM     17  O   UNL     1       2.159  11.031  17.555  0.00  0.00    +0.000 OA
ATOM     18  N   UNL     1       0.640  12.029  18.997  0.00  0.00    +0.000 N 
ATOM     19  C   UNL     1      -0.038  11.666  20.120  0.00  0.00    +0.000 C 
ATOM     20  O   UNL     1      -0.819  12.335  20.768  0.00  0.00    +0.000 OA
ATOM     21  H   UNL     1       0.557  12.930  18.557  0.00  0.00    +0.000 HD
ENDBRANCH   8  10
BRANCH   1  28
ATOM     22  C   UNL     1       7.257   5.513  19.021  0.00  0.00    +0.000 C 
ATOM     23  C   UNL     1       6.492   4.981  17.838  0.00  0.00    +0.000 A 
ATOM     24  C   UNL     1       7.077   5.106  16.565  0.00  0.00    +0.000 A 
ATOM     25  C   UNL     1       6.443   4.606  15.431  0.00  0.00    +0.000 A 
ATOM     26  C   UNL     1       5.199   4.000  15.548  0.00  0.00    +0.000 A 
ATOM     27  C   UNL     1       4.590   3.889  16.799  0.00  0.00    +0.000 A 
ATOM     28  C   UNL     1       5.227   4.353  17.966  0.00  0.00    +0.000 A 
ENDBRANCH   1  28
TORSDOF 2
ENDMDL
MODEL 8
REMARK VINA RESULT:      -7.8      2.266      8.295
REMARK  Name = 
REMARK  3 active torsions:
REMARK  status: ('A' for Active; 'I' for Inactive)
REMARK    1  A    between atoms: C_1  and  C_2
REMARK    2  A    between atoms: C_7  and  C_8
REMARK    3  A    between atoms: N_15  and  C_16
REMARK                            x       y       z     vdW  Elec       q    Type
REMARK                         _______ _______ _______ _____ _____    ______ ____
ROOT
ATOM      1  C   UNL     1      -0.397  11.028  21.026  0.00  0.00    +0.000 C 
ATOM      2  C   UNL     1      -0.653  11.671  22.404  0.00  0.00    +0.000 C 
ATOM      3  C   UNL     1      -0.951  10.496  23.311  0.00  0.00    +0.000 C 
ATOM      4  C   UNL     1      -0.127   9.360  22.731  0.00  0.00    +0.000 C 
ATOM      5  N   UNL     1       0.253   9.756  21.378  0.00  0.00    +0.000 N 
ATOM      6  C   UNL     1       0.849   8.914  20.439  0.00  0.00    +0.000 C 
ATOM      7  O   UNL     1       1.092   9.270  19.291  0.00  0.00    +0.000 OA
ATOM      8  N   UNL     1       1.113   7.641  20.924  0.00  0.00    +0.000 N 
ATOM      9  H   UNL     1       0.591   7.370  21.739  0.00  0.00    +0.000 HD
ENDROOT
BRANCH   8  10
ATOM     10  C   UNL     1       1.776   6.580  20.272  0.00  0.00    +0.000 A 
ATOM     11  C   UNL     1       1.621   5.224  20.630  0.00  0.00    +0.000 A 
ATOM     12  C   UNL     1       2.311   4.205  19.948  0.00  0.00    +0.000 A 
ATOM     13  C   UNL     1       3.148   4.584  18.920  0.00  0.00    +0.000 A 
ATOM     14  C   UNL     1       3.294   5.908  18.556  0.00  0.00    +0.000 A 
ATOM     15  C   UNL     1       2.614   6.926  19.198  0.00  0.00    +0.000 A 
ATOM     16  C   UNL     1       4.251   5.961  17.452  0.00  0.00    +0.000 C 
ATOM     17  O   UNL     1       4.619   6.975  16.893  0.00  0.00    +0.000 OA
ATOM     18  N   UNL     1       4.629   4.677  17.210  0.00  0.00    +0.000 N 
ATOM     19  C   UNL     1       4.012   3.794  18.042  0.00  0.00    +0.000 C 
ATOM     20  O   UNL     1       4.137   2.585  18.071  0.00  0.00    +0.000 OA
ATOM     21  H   UNL     1       5.294   4.413  16.502  0.00  0.00    +0.000 HD
ENDBRANCH   8  10
BRANCH   1  28
ATOM     22  C   UNL     1      -1.578  12.050  18.426  0.00  0.00    +0.000 C 
ATOM     23  C   UNL     1      -0.269  12.558  18.969  0.00  0.00    +0.000 A 
ATOM     24  C   UNL     1       0.369  13.603  18.278  0.00  0.00    +0.000 A 
ATOM     25  C   UNL     1       1.565  14.146  18.741  0.00  0.00    +0.000 A 
ATOM     26  C   UNL     1       2.157  13.631  19.886  0.00  0.00    +0.000 A 
ATOM     27  C   UNL     1       1.553  12.576  20.572  0.00  0.00    +0.000 A 
ATOM     28  C   UNL     1       0.325  12.034  20.146  0.00  0.00    +0.000 A 
ENDBRANCH   1  28
TORSDOF 2
ENDMDL
MODEL 9
REMARK VINA RESULT:      -7.8      2.957      9.022
REMARK  Name = 
REMARK  3 active torsions:
REMARK  status: ('A' for Active; 'I' for Inactive)
REMARK    1  A    between atoms: C_1  and  C_2
REMARK    2  A    between atoms: C_7  and  C_8
REMARK    3  A    between atoms: N_15  and  C_16
REMARK                            x       y       z     vdW  Elec       q    Type
REMARK                         _______ _______ _______ _____ _____    ______ ____
ROOT
ATOM      1  C   UNL     1      -0.814  12.308  19.082  0.00  0.00    +0.000 C 
ATOM      2  C   UNL     1      -0.359  13.579  18.336  0.00  0.00    +0.000 C 
ATOM      3  C   UNL     1       1.136  13.627  18.567  0.00  0.00    +0.000 C 
ATOM      4  C   UNL     1       1.545  12.167  18.664  0.00  0.00    +0.000 C 
ATOM      5  N   UNL     1       0.326  11.398  18.897  0.00  0.00    +0.000 N 
ATOM      6  C   UNL     1       0.292  10.045  19.236  0.00  0.00    +0.000 C 
ATOM      7  O   UNL     1      -0.753   9.453  19.488  0.00  0.00    +0.000 OA
ATOM      8  N   UNL     1       1.545   9.453  19.283  0.00  0.00    +0.000 N 
ATOM      9  H   UNL     1       2.321  10.084  19.381  0.00  0.00    +0.000 HD
ENDROOT
BRANCH   8  10
ATOM     10  C   UNL     1       1.860   8.096  19.511  0.00  0.00    +0.000 A 
ATOM     11  C   UNL     1       1.442   7.378  20.652  0.00  0.00    +0.000 A 
ATOM     12  C   UNL     1       1.788   6.026  20.832  0.00  0.00    +0.000 A 
ATOM     13  C   UNL     1       2.556   5.433  19.853  0.00  0.00    +0.000 A 
ATOM     14  C   UNL     1       2.958   6.127  18.728  0.00  0.00    +0.000 A 
ATOM     15  C   UNL     1       2.617   7.449  18.519  0.00  0.00    +0.000 A 
ATOM     16  C   UNL     1       3.758   5.217  17.909  0.00  0.00    +0.000 C 
ATOM     17  O   UNL     1       4.278   5.504  16.849  0.00  0.00    +0.000 OA
ATOM     18  N   UNL     1       3.796   4.033  18.577  0.00  0.00    +0.000 N 
ATOM     19  C   UNL     1       3.099   4.078  19.745  0.00  0.00    +0.000 C 
ATOM     20  O   UNL     1       2.944   3.186  20.556  0.00  0.00    +0.000 OA
ATOM     21  H   UNL     1       4.290   3.219  18.247  0.00  0.00    +0.000 HD
ENDBRANCH   8  10
BRANCH   1  28
ATOM     22  C   UNL     1      -3.326  12.719  20.731  0.00  0.00    +0.000 C 
ATOM     23  C   UNL     1      -3.366  12.177  19.327  0.00  0.00    +0.000 A 
ATOM     24  C   UNL     1      -4.626  11.941  18.748  0.00  0.00    +0.000 A 
ATOM     25  C   UNL     1      -4.740  11.473  17.441  0.00  0.00    +0.000 A 
ATOM     26  C   UNL     1      -3.595  11.204  16.704  0.00  0.00    +0.000 A 
ATOM     27  C   UNL     1      -2.334  11.406  17.270  0.00  0.00    +0.000 A 
ATOM     28  C   UNL     1      -2.192  11.914  18.575  0.00  0.00    +0.000 A 
ENDBRANCH   1  28
TORSDOF 2
ENDMDL
