MODEL 1
REMARK VINA RESULT:      -7.7      0.000      0.000
REMARK  Name = 
REMARK  4 active torsions:
REMARK  status: ('A' for Active; 'I' for Inactive)
REMARK    1  A    between atoms: N_1  and  C_2
REMARK    2  A    between atoms: C_2  and  C_3
REMARK    3  A    between atoms: C_10  and  N_11
REMARK    4  A    between atoms: C_18  and  C_19
REMARK                            x       y       z     vdW  Elec       q    Type
REMARK                         _______ _______ _______ _____ _____    ______ ____
ROOT
ATOM      1  N   UNL     1       4.248   4.978  17.559  0.00  0.00    +0.000 N 
ATOM      2  C   UNL     1       3.173   4.394  18.203  0.00  0.00    +0.000 A 
ATOM      3  N   UNL     1       2.831   3.151  17.965  0.00  0.00    +0.000 NA
ATOM      4  C   UNL     1       1.764   2.600  18.639  0.00  0.00    +0.000 A 
ATOM      5  C   UNL     1       1.030   3.261  19.545  0.00  0.00    +0.000 A 
ATOM      6  N   UNL     1       1.347   4.577  19.822  0.00  0.00    +0.000 N 
ATOM      7  N   UNL     1       0.749   5.450  20.683  0.00  0.00    +0.000 NA
ATOM      8  C   UNL     1       1.434   6.586  20.530  0.00  0.00    +0.000 A 
ATOM      9  C   UNL     1       2.479   6.468  19.595  0.00  0.00    +0.000 A 
ATOM     10  C   UNL     1       2.404   5.166  19.162  0.00  0.00    +0.000 A 
ATOM     11  H   UNL     1       4.301   5.983  17.652  0.00  0.00    +0.000 HD
ENDROOT
BRANCH   1  14
ATOM     12  C   UNL     1       6.559   5.269  15.840  0.00  0.00    +0.000 C 
ATOM     13  C   UNL     1       6.001   3.854  16.168  0.00  0.00    +0.000 C 
ATOM     14  C   UNL     1       4.590   4.486  16.256  0.00  0.00    +0.000 C 
ATOM     15  C   UNL     1       5.124   5.619  15.344  0.00  0.00    +0.000 C 
BRANCH  12  16
ATOM     16  C   UNL     1       7.266   6.138  16.954  0.00  0.00    +0.000 A 
ATOM     17  C   UNL     1       7.518   7.514  16.783  0.00  0.00    +0.000 A 
ATOM     18  C   UNL     1       8.100   8.298  17.784  0.00  0.00    +0.000 A 
ATOM     19  C   UNL     1       8.470   7.720  18.993  0.00  0.00    +0.000 A 
ATOM     20  C   UNL     1       8.272   6.359  19.189  0.00  0.00    +0.000 A 
ATOM     21  C   UNL     1       7.686   5.585  18.183  0.00  0.00    +0.000 A 
ENDBRANCH  12  16
BRANCH  12  22
ATOM     22  N   UNL     1       7.418   5.167  14.658  0.00  0.00    +0.000 NA
ATOM     23  H   UNL     1       6.893   4.937  13.814  0.00  0.00    +0.000 HD
ATOM     24  H   UNL     1       8.113   4.425  14.742  0.00  0.00    +0.000 HD
ENDBRANCH  12  22
ENDBRANCH   1  14
BRANCH   8  25
ATOM     25  C   UNL     1       1.177   7.893  21.264  0.00  0.00    +0.000 C 
ATOM     26  C   UNL     1      -0.319   8.135  21.630  0.00  0.00    +0.000 C 
ATOM     27  C   UNL     1      -0.038   9.636  21.416  0.00  0.00    +0.000 C 
ATOM     28  C   UNL     1       1.039   9.183  20.405  0.00  0.00    +0.000 C 
ENDBRANCH   8  25
TORSDOF 4
ENDMDL
MODEL 2
REMARK VINA RESULT:      -7.7      0.349      1.020
REMARK  Name = 
REMARK  4 active torsions:
REMARK  status: ('A' for Active; 'I' for Inactive)
REMARK    1  A    between atoms: N_1  and  C_2
REMARK    2  A    between atoms: C_2  and  C_3
REMARK    3  A    between atoms: C_10  and  N_11
REMARK    4  A    between atoms: C_18  and  C_19
REMARK                            x       y       z     vdW  Elec       q    Type
REMARK                         _______ _______ _______ _____ _____    ______ ____
ROOT
ATOM      1  N   UNL     1       4.349   4.672  17.510  0.00  0.00    +0.000 N 
ATOM      2  C   UNL     1       3.237   4.073  18.071  0.00  0.00    +0.000 A 
ATOM      3  N   UNL     1       2.870   2.863  17.725  0.00  0.00    +0.000 NA
ATOM      4  C   UNL     1       1.765   2.293  18.320  0.00  0.00    +0.000 A 
ATOM      5  C   UNL     1       1.018   2.904  19.249  0.00  0.00    +0.000 A 
ATOM      6  N   UNL     1       1.361   4.186  19.638  0.00  0.00    +0.000 N 
ATOM      7  N   UNL     1       0.757   5.008  20.543  0.00  0.00    +0.000 NA
ATOM      8  C   UNL     1       1.477   6.131  20.501  0.00  0.00    +0.000 A 
ATOM      9  C   UNL     1       2.550   6.054  19.596  0.00  0.00    +0.000 A 
ATOM     10  C   UNL     1       2.456   4.792  19.060  0.00  0.00    +0.000 A 
ATOM     11  H   UNL     1       4.426   5.665  17.682  0.00  0.00    +0.000 HD
ENDROOT
BRANCH   1  14
ATOM     12  C   UNL     1       6.612   5.243  15.798  0.00  0.00    +0.000 C 
ATOM     13  C   UNL     1       6.184   3.771  16.063  0.00  0.00    +0.000 C 
ATOM     14  C   UNL     1       4.724   4.271  16.184  0.00  0.00    +0.000 C 
ATOM     15  C   UNL     1       5.149   5.487  15.323  0.00  0.00    +0.000 C 
BRANCH  12  16
ATOM     16  C   UNL     1       7.249   6.120  16.947  0.00  0.00    +0.000 A 
ATOM     17  C   UNL     1       7.628   5.569  18.188  0.00  0.00    +0.000 A 
ATOM     18  C   UNL     1       8.235   6.331  19.192  0.00  0.00    +0.000 A 
ATOM     19  C   UNL     1       8.466   7.687  18.991  0.00  0.00    +0.000 A 
ATOM     20  C   UNL     1       8.076   8.278  17.796  0.00  0.00    +0.000 A 
ATOM     21  C   UNL     1       7.473   7.506  16.798  0.00  0.00    +0.000 A 
ENDBRANCH  12  16
BRANCH  12  22
ATOM     22  N   UNL     1       7.469   5.271  14.610  0.00  0.00    +0.000 NA
ATOM     23  H   UNL     1       8.461   5.292  14.847  0.00  0.00    +0.000 HD
ATOM     24  H   UNL     1       7.321   6.103  14.039  0.00  0.00    +0.000 HD
ENDBRANCH  12  22
ENDBRANCH   1  14
BRANCH   8  25
ATOM     25  C   UNL     1       1.230   7.385  21.326  0.00  0.00    +0.000 C 
ATOM     26  C   UNL     1      -0.255   7.862  21.331  0.00  0.00    +0.000 C 
ATOM     27  C   UNL     1       0.299   9.299  21.412  0.00  0.00    +0.000 C 
ATOM     28  C   UNL     1       1.531   8.756  20.655  0.00  0.00    +0.000 C 
ENDBRANCH   8  25
TORSDOF 4
ENDMDL
MODEL 3
REMARK VINA RESULT:      -7.5      2.426      6.775
REMARK  Name = 
REMARK  4 active torsions:
REMARK  status: ('A' for Active; 'I' for Inactive)
REMARK    1  A    between atoms: N_1  and  C_2
REMARK    2  A    between atoms: C_2  and  C_3
REMARK    3  A    between atoms: C_10  and  N_11
REMARK    4  A    between atoms: C_18  and  C_19
REMARK                            x       y       z     vdW  Elec       q    Type
REMARK                         _______ _______ _______ _____ _____    ______ ____
ROOT
ATOM      1  N   UNL     1       2.214   8.208  18.451  0.00  0.00    +0.000 N 
ATOM      2  C   UNL     1       3.149   7.321  17.951  0.00  0.00    +0.000 A 
ATOM      3  N   UNL     1       4.041   7.700  17.068  0.00  0.00    +0.000 NA
ATOM      4  C   UNL     1       4.967   6.791  16.607  0.00  0.00    +0.000 A 
ATOM      5  C   UNL     1       5.023   5.513  17.005  0.00  0.00    +0.000 A 
ATOM      6  N   UNL     1       4.096   5.065  17.927  0.00  0.00    +0.000 N 
ATOM      7  N   UNL     1       3.942   3.823  18.469  0.00  0.00    +0.000 NA
ATOM      8  C   UNL     1       2.880   3.940  19.269  0.00  0.00    +0.000 A 
ATOM      9  C   UNL     1       2.344   5.240  19.272  0.00  0.00    +0.000 A 
ATOM     10  C   UNL     1       3.148   5.943  18.407  0.00  0.00    +0.000 A 
ATOM     11  H   UNL     1       1.452   7.777  18.958  0.00  0.00    +0.000 HD
ENDROOT
BRANCH   1  14
ATOM     12  C   UNL     1       0.615  10.586  18.864  0.00  0.00    +0.000 C 
ATOM     13  C   UNL     1       2.041  10.698  18.251  0.00  0.00    +0.000 C 
ATOM     14  C   UNL     1       1.822   9.304  17.613  0.00  0.00    +0.000 C 
ATOM     15  C   UNL     1       0.301   9.581  17.716  0.00  0.00    +0.000 C 
BRANCH  12  16
ATOM     16  C   UNL     1       0.415  10.177  20.377  0.00  0.00    +0.000 A 
ATOM     17  C   UNL     1       1.148   9.131  20.973  0.00  0.00    +0.000 A 
ATOM     18  C   UNL     1       1.009   8.796  22.324  0.00  0.00    +0.000 A 
ATOM     19  C   UNL     1       0.110   9.492  23.124  0.00  0.00    +0.000 A 
ATOM     20  C   UNL     1      -0.659  10.507  22.567  0.00  0.00    +0.000 A 
ATOM     21  C   UNL     1      -0.509  10.835  21.217  0.00  0.00    +0.000 A 
ENDBRANCH  12  16
BRANCH  12  22
ATOM     22  N   UNL     1      -0.114  11.823  18.575  0.00  0.00    +0.000 NA
ATOM     23  H   UNL     1      -0.255  11.967  17.575  0.00  0.00    +0.000 HD
ATOM     24  H   UNL     1       0.386  12.655  18.889  0.00  0.00    +0.000 HD
ENDBRANCH  12  22
ENDBRANCH   1  14
BRANCH   8  25
ATOM     25  C   UNL     1       2.275   2.836  20.121  0.00  0.00    +0.000 C 
ATOM     26  C   UNL     1       0.848   3.156  20.662  0.00  0.00    +0.000 C 
ATOM     27  C   UNL     1       1.234   2.343  21.913  0.00  0.00    +0.000 C 
ATOM     28  C   UNL     1       2.687   2.779  21.620  0.00  0.00    +0.000 C 
ENDBRANCH   8  25
TORSDOF 4
ENDMDL
MODEL 4
REMARK VINA RESULT:      -7.1      2.746      7.215
REMARK  Name = 
REMARK  4 active torsions:
REMARK  status: ('A' for Active; 'I' for Inactive)
REMARK    1  A    between atoms: N_1  and  C_2
REMARK    2  A    between atoms: C_2  and  C_3
REMARK    3  A    between atoms: C_10  and  N_11
REMARK    4  A    between atoms: C_18  and  C_19
REMARK                            x       y       z     vdW  Elec       q    Type
REMARK                         _______ _______ _______ _____ _____    ______ ____
ROOT
ATOM      1  N   UNL     1       1.898   8.957  18.805  0.00  0.00    +0.000 N 
ATOM      2  C   UNL     1       2.721   7.968  18.301  0.00  0.00    +0.000 A 
ATOM      3  N   UNL     1       3.437   8.164  17.220  0.00  0.00    +0.000 NA
ATOM      4  C   UNL     1       4.258   7.159  16.759  0.00  0.00    +0.000 A 
ATOM      5  C   UNL     1       4.379   5.962  17.349  0.00  0.00    +0.000 A 
ATOM      6  N   UNL     1       3.635   5.705  18.485  0.00  0.00    +0.000 N 
ATOM      7  N   UNL     1       3.577   4.575  19.246  0.00  0.00    +0.000 NA
ATOM      8  C   UNL     1       2.680   4.860  20.193  0.00  0.00    +0.000 A 
ATOM      9  C   UNL     1       2.161   6.162  20.075  0.00  0.00    +0.000 A 
ATOM     10  C   UNL     1       2.796   6.684  18.973  0.00  0.00    +0.000 A 
ATOM     11  H   UNL     1       1.240   8.644  19.506  0.00  0.00    +0.000 HD
ENDROOT
BRANCH   1  14
ATOM     12  C   UNL     1      -0.118  11.027  18.988  0.00  0.00    +0.000 C 
ATOM     13  C   UNL     1       1.297  11.359  18.432  0.00  0.00    +0.000 C 
ATOM     14  C   UNL     1       1.365   9.915  17.879  0.00  0.00    +0.000 C 
ATOM     15  C   UNL     1      -0.184   9.917  17.896  0.00  0.00    +0.000 C 
BRANCH  12  16
ATOM     16  C   UNL     1      -0.326  10.676  20.514  0.00  0.00    +0.000 A 
ATOM     17  C   UNL     1      -0.665  11.656  21.468  0.00  0.00    +0.000 A 
ATOM     18  C   UNL     1      -0.896  11.344  22.812  0.00  0.00    +0.000 A 
ATOM     19  C   UNL     1      -0.776  10.030  23.251  0.00  0.00    +0.000 A 
ATOM     20  C   UNL     1      -0.409   9.038  22.350  0.00  0.00    +0.000 A 
ATOM     21  C   UNL     1      -0.183   9.361  21.008  0.00  0.00    +0.000 A 
ENDBRANCH  12  16
BRANCH  12  22
ATOM     22  N   UNL     1      -1.038  12.093  18.586  0.00  0.00    +0.000 NA
ATOM     23  H   UNL     1      -1.091  12.842  19.278  0.00  0.00    +0.000 HD
ATOM     24  H   UNL     1      -1.998  11.765  18.484  0.00  0.00    +0.000 HD
ENDBRANCH  12  22
ENDBRANCH   1  14
BRANCH   8  25
ATOM     25  C   UNL     1       2.236   3.933  21.314  0.00  0.00    +0.000 C 
ATOM     26  C   UNL     1       3.009   2.580  21.368  0.00  0.00    +0.000 C 
ATOM     27  C   UNL     1       1.695   1.950  21.870  0.00  0.00    +0.000 C 
ATOM     28  C   UNL     1       0.978   3.054  21.062  0.00  0.00    +0.000 C 
ENDBRANCH   8  25
TORSDOF 4
ENDMDL
MODEL 5
REMARK VINA RESULT:      -7.1      7.260     10.441
REMARK  Name = 
REMARK  4 active torsions:
REMARK  status: ('A' for Active; 'I' for Inactive)
REMARK    1  A    between atoms: N_1  and  C_2
REMARK    2  A    between atoms: C_2  and  C_3
REMARK    3  A    between atoms: C_10  and  N_11
REMARK    4  A    between atoms: C_18  and  C_19
REMARK                            x       y       z     vdW  Elec       q    Type
REMARK                         _______ _______ _______ _____ _____    ______ ____
ROOT
ATOM      1  N   UNL     1      -3.532  11.177  18.535  0.00  0.00    +0.000 N 
ATOM      2  C   UNL     1      -4.690  11.895  18.300  0.00  0.00    +0.000 A 
ATOM      3  N   UNL     1      -5.124  12.104  17.080  0.00  0.00    +0.000 NA
ATOM      4  C   UNL     1      -6.291  12.809  16.888  0.00  0.00    +0.000 A 
ATOM      5  C   UNL     1      -7.033  13.312  17.883  0.00  0.00    +0.000 A 
ATOM      6  N   UNL     1      -6.610  13.125  19.186  0.00  0.00    +0.000 N 
ATOM      7  N   UNL     1      -7.179  13.547  20.351  0.00  0.00    +0.000 NA
ATOM      8  C   UNL     1      -6.341  13.123  21.300  0.00  0.00    +0.000 A 
ATOM      9  C   UNL     1      -5.241  12.420  20.778  0.00  0.00    +0.000 A 
ATOM     10  C   UNL     1      -5.443  12.431  19.419  0.00  0.00    +0.000 A 
ATOM     11  H   UNL     1      -3.174  11.249  19.478  0.00  0.00    +0.000 HD
ENDROOT
BRANCH   1  14
ATOM     12  C   UNL     1      -0.645  10.971  18.562  0.00  0.00    +0.000 C 
ATOM     13  C   UNL     1      -1.487  10.046  17.636  0.00  0.00    +0.000 C 
ATOM     14  C   UNL     1      -2.521  11.192  17.517  0.00  0.00    +0.000 C 
ATOM     15  C   UNL     1      -1.371  12.166  17.874  0.00  0.00    +0.000 C 
BRANCH  12  16
ATOM     16  C   UNL     1      -0.681  10.795  20.131  0.00  0.00    +0.000 A 
ATOM     17  C   UNL     1      -1.178  11.799  20.986  0.00  0.00    +0.000 A 
ATOM     18  C   UNL     1      -1.257  11.630  22.373  0.00  0.00    +0.000 A 
ATOM     19  C   UNL     1      -0.819  10.445  22.954  0.00  0.00    +0.000 A 
ATOM     20  C   UNL     1      -0.289   9.443  22.151  0.00  0.00    +0.000 A 
ATOM     21  C   UNL     1      -0.218   9.622  20.766  0.00  0.00    +0.000 A 
ENDBRANCH  12  16
BRANCH  12  22
ATOM     22  N   UNL     1       0.741  10.968  18.086  0.00  0.00    +0.000 NA
ATOM     23  H   UNL     1       1.137  10.028  18.051  0.00  0.00    +0.000 HD
ATOM     24  H   UNL     1       1.367  11.492  18.698  0.00  0.00    +0.000 HD
ENDBRANCH  12  22
ENDBRANCH   1  14
BRANCH   8  25
ATOM     25  C   UNL     1      -6.505  13.331  22.798  0.00  0.00    +0.000 C 
ATOM     26  C   UNL     1      -7.778  12.661  23.399  0.00  0.00    +0.000 C 
ATOM     27  C   UNL     1      -7.828  13.844  24.386  0.00  0.00    +0.000 C 
ATOM     28  C   UNL     1      -7.145  14.667  23.271  0.00  0.00    +0.000 C 
ENDBRANCH   8  25
TORSDOF 4
ENDMDL
MODEL 6
REMARK VINA RESULT:      -7.1      6.949     10.304
REMARK  Name = 
REMARK  4 active torsions:
REMARK  status: ('A' for Active; 'I' for Inactive)
REMARK    1  A    between atoms: N_1  and  C_2
REMARK    2  A    between atoms: C_2  and  C_3
REMARK    3  A    between atoms: C_10  and  N_11
REMARK    4  A    between atoms: C_18  and  C_19
REMARK                            x       y       z     vdW  Elec       q    Type
REMARK                         _______ _______ _______ _____ _____    ______ ____
ROOT
ATOM      1  N   UNL     1      -3.167  11.529  18.991  0.00  0.00    +0.000 N 
ATOM      2  C   UNL     1      -4.457  11.928  18.696  0.00  0.00    +0.000 A 
ATOM      3  N   UNL     1      -4.933  11.841  17.477  0.00  0.00    +0.000 NA
ATOM      4  C   UNL     1      -6.229  12.233  17.225  0.00  0.00    +0.000 A 
ATOM      5  C   UNL     1      -7.060  12.711  18.161  0.00  0.00    +0.000 A 
ATOM      6  N   UNL     1      -6.600  12.831  19.458  0.00  0.00    +0.000 N 
ATOM      7  N   UNL     1      -7.244  13.296  20.567  0.00  0.00    +0.000 NA
ATOM      8  C   UNL     1      -6.327  13.223  21.536  0.00  0.00    +0.000 A 
ATOM      9  C   UNL     1      -5.100  12.705  21.084  0.00  0.00    +0.000 A 
ATOM     10  C   UNL     1      -5.306  12.456  19.748  0.00  0.00    +0.000 A 
ATOM     11  H   UNL     1      -2.831  11.826  19.898  0.00  0.00    +0.000 HD
ENDROOT
BRANCH   1  14
ATOM     12  C   UNL     1      -0.333  10.964  18.838  0.00  0.00    +0.000 C 
ATOM     13  C   UNL     1      -1.313  10.336  17.805  0.00  0.00    +0.000 C 
ATOM     14  C   UNL     1      -2.190  11.604  17.944  0.00  0.00    +0.000 C 
ATOM     15  C   UNL     1      -0.913  12.345  18.412  0.00  0.00    +0.000 C 
BRANCH  12  16
ATOM     16  C   UNL     1      -0.351  10.508  20.351  0.00  0.00    +0.000 A 
ATOM     17  C   UNL     1       0.078   9.227  20.753  0.00  0.00    +0.000 A 
ATOM     18  C   UNL     1       0.108   8.835  22.095  0.00  0.00    +0.000 A 
ATOM     19  C   UNL     1      -0.313   9.715  23.086  0.00  0.00    +0.000 A 
ATOM     20  C   UNL     1      -0.777  10.975  22.730  0.00  0.00    +0.000 A 
ATOM     21  C   UNL     1      -0.799  11.358  21.386  0.00  0.00    +0.000 A 
ENDBRANCH  12  16
BRANCH  12  22
ATOM     22  N   UNL     1       1.028  10.875  18.302  0.00  0.00    +0.000 NA
ATOM     23  H   UNL     1       1.587  10.165  18.777  0.00  0.00    +0.000 HD
ATOM     24  H   UNL     1       1.553  11.741  18.419  0.00  0.00    +0.000 HD
ENDBRANCH  12  22
ENDBRANCH   1  14
BRANCH   8  25
ATOM     25  C   UNL     1      -6.527  13.623  22.989  0.00  0.00    +0.000 C 
ATOM     26  C   UNL     1      -7.460  12.667  23.793  0.00  0.00    +0.000 C 
ATOM     27  C   UNL     1      -7.916  13.913  24.578  0.00  0.00    +0.000 C 
ATOM     28  C   UNL     1      -7.597  14.710  23.293  0.00  0.00    +0.000 C 
ENDBRANCH   8  25
TORSDOF 4
ENDMDL
MODEL 7
REMARK VINA RESULT:      -6.9      2.166      7.642
REMARK  Name = 
REMARK  4 active torsions:
REMARK  status: ('A' for Active; 'I' for Inactive)
REMARK    1  A    between atoms: N_1  and  C_2
REMARK    2  A    between atoms: C_2  and  C_3
REMARK    3  A    between atoms: C_10  and  N_11
REMARK    4  A    between atoms: C_18  and  C_19
REMARK                            x       y       z     vdW  Elec       q    Type
REMARK                         _______ _______ _______ _____ _____    ______ ____
ROOT
ATOM      1  N   UNL     1       3.831   6.096  17.166  0.00  0.00    +0.000 N 
ATOM      2  C   UNL     1       5.118   5.593  17.136  0.00  0.00    +0.000 A 
ATOM      3  N   UNL     1       5.894   5.647  18.192  0.00  0.00    +0.000 NA
ATOM      4  C   UNL     1       7.165   5.118  18.127  0.00  0.00    +0.000 A 
ATOM      5  C   UNL     1       7.679   4.540  17.033  0.00  0.00    +0.000 A 
ATOM      6  N   UNL     1       6.901   4.469  15.893  0.00  0.00    +0.000 N 
ATOM      7  N   UNL     1       7.202   3.946  14.669  0.00  0.00    +0.000 NA
ATOM      8  C   UNL     1       6.110   4.173  13.936  0.00  0.00    +0.000 A 
ATOM      9  C   UNL     1       5.094   4.821  14.661  0.00  0.00    +0.000 A 
ATOM     10  C   UNL     1       5.627   4.993  15.916  0.00  0.00    +0.000 A 
ATOM     11  H   UNL     1       3.395   6.196  16.259  0.00  0.00    +0.000 HD
ENDROOT
BRANCH   1  14
ATOM     12  C   UNL     1       2.258   6.341  19.584  0.00  0.00    +0.000 C 
ATOM     13  C   UNL     1       3.744   6.803  19.567  0.00  0.00    +0.000 C 
ATOM     14  C   UNL     1       3.559   7.173  18.075  0.00  0.00    +0.000 C 
ATOM     15  C   UNL     1       2.044   7.295  18.371  0.00  0.00    +0.000 C 
BRANCH  12  16
ATOM     16  C   UNL     1       1.887   4.808  19.486  0.00  0.00    +0.000 A 
ATOM     17  C   UNL     1       1.680   4.166  18.249  0.00  0.00    +0.000 A 
ATOM     18  C   UNL     1       1.397   2.799  18.153  0.00  0.00    +0.000 A 
ATOM     19  C   UNL     1       1.294   2.029  19.306  0.00  0.00    +0.000 A 
ATOM     20  C   UNL     1       1.456   2.630  20.548  0.00  0.00    +0.000 A 
ATOM     21  C   UNL     1       1.741   3.996  20.631  0.00  0.00    +0.000 A 
ENDBRANCH  12  16
BRANCH  12  22
ATOM     22  N   UNL     1       1.596   6.947  20.742  0.00  0.00    +0.000 NA
ATOM     23  H   UNL     1       0.595   6.747  20.765  0.00  0.00    +0.000 HD
ATOM     24  H   UNL     1       1.658   7.965  20.740  0.00  0.00    +0.000 HD
ENDBRANCH  12  22
ENDBRANCH   1  14
BRANCH   8  25
ATOM     25  C   UNL     1       5.914   3.786  12.478  0.00  0.00    +0.000 C 
ATOM     26  C   UNL     1       4.446   3.412  12.109  0.00  0.00    +0.000 C 
ATOM     27  C   UNL     1       5.046   2.405  11.108  0.00  0.00    +0.000 C 
ATOM     28  C   UNL     1       6.249   2.322  12.074  0.00  0.00    +0.000 C 
ENDBRANCH   8  25
TORSDOF 4
ENDMDL
MODEL 8
REMARK VINA RESULT:      -6.8      2.792      4.447
REMARK  Name = 
REMARK  4 active torsions:
REMARK  status: ('A' for Active; 'I' for Inactive)
REMARK    1  A    between atoms: N_1  and  C_2
REMARK    2  A    between atoms: C_2  and  C_3
REMARK    3  A    between atoms: C_10  and  N_11
REMARK    4  A    between atoms: C_18  and  C_19
REMARK                            x       y       z     vdW  Elec       q    Type
REMARK                         _______ _______ _______ _____ _____    ______ ____
ROOT
ATOM      1  N   UNL     1       2.646   6.918  18.927  0.00  0.00    +0.000 N 
ATOM      2  C   UNL     1       1.869   7.645  19.808  0.00  0.00    +0.000 A 
ATOM      3  N   UNL     1       1.332   7.084  20.864  0.00  0.00    +0.000 NA
ATOM      4  C   UNL     1       0.577   7.846  21.728  0.00  0.00    +0.000 A 
ATOM      5  C   UNL     1       0.345   9.155  21.561  0.00  0.00    +0.000 A 
ATOM      6  N   UNL     1       0.882   9.788  20.457  0.00  0.00    +0.000 N 
ATOM      7  N   UNL     1       0.776  11.092  20.068  0.00  0.00    +0.000 NA
ATOM      8  C   UNL     1       1.455  11.149  18.920  0.00  0.00    +0.000 A 
ATOM      9  C   UNL     1       2.015   9.912  18.557  0.00  0.00    +0.000 A 
ATOM     10  C   UNL     1       1.636   9.057  19.565  0.00  0.00    +0.000 A 
ATOM     11  H   UNL     1       2.837   7.382  18.049  0.00  0.00    +0.000 HD
ENDROOT
BRANCH   1  14
ATOM     12  C   UNL     1       4.285   4.600  18.361  0.00  0.00    +0.000 C 
ATOM     13  C   UNL     1       3.354   4.615  19.608  0.00  0.00    +0.000 C 
ATOM     14  C   UNL     1       2.380   5.513  18.807  0.00  0.00    +0.000 C 
ATOM     15  C   UNL     1       3.013   4.924  17.522  0.00  0.00    +0.000 C 
BRANCH  12  16
ATOM     16  C   UNL     1       5.560   5.529  18.292  0.00  0.00    +0.000 A 
ATOM     17  C   UNL     1       6.654   5.366  19.165  0.00  0.00    +0.000 A 
ATOM     18  C   UNL     1       7.806   6.155  19.078  0.00  0.00    +0.000 A 
ATOM     19  C   UNL     1       7.891   7.156  18.117  0.00  0.00    +0.000 A 
ATOM     20  C   UNL     1       6.820   7.374  17.259  0.00  0.00    +0.000 A 
ATOM     21  C   UNL     1       5.676   6.577  17.352  0.00  0.00    +0.000 A 
ENDBRANCH  12  16
BRANCH  12  22
ATOM     22  N   UNL     1       4.657   3.212  18.075  0.00  0.00    +0.000 NA
ATOM     23  H   UNL     1       5.566   3.140  17.616  0.00  0.00    +0.000 HD
ATOM     24  H   UNL     1       4.006   2.755  17.436  0.00  0.00    +0.000 HD
ENDBRANCH  12  22
ENDBRANCH   1  14
BRANCH   8  25
ATOM     25  C   UNL     1       1.653  12.387  18.058  0.00  0.00    +0.000 C 
ATOM     26  C   UNL     1       3.036  13.081  18.246  0.00  0.00    +0.000 C 
ATOM     27  C   UNL     1       2.306  14.412  17.981  0.00  0.00    +0.000 C 
ATOM     28  C   UNL     1       1.057  13.727  18.579  0.00  0.00    +0.000 C 
ENDBRANCH   8  25
TORSDOF 4
ENDMDL
MODEL 9
REMARK VINA RESULT:      -6.7      7.110     10.450
REMARK  Name = 
REMARK  4 active torsions:
REMARK  status: ('A' for Active; 'I' for Inactive)
REMARK    1  A    between atoms: N_1  and  C_2
REMARK    2  A    between atoms: C_2  and  C_3
REMARK    3  A    between atoms: C_10  and  N_11
REMARK    4  A    between atoms: C_18  and  C_19
REMARK                            x       y       z     vdW  Elec       q    Type
REMARK                         _______ _______ _______ _____ _____    ______ ____
ROOT
ATOM      1  N   UNL     1      -3.351  11.731  19.037  0.00  0.00    +0.000 N 
ATOM      2  C   UNL     1      -4.660  12.083  18.764  0.00  0.00    +0.000 A 
ATOM      3  N   UNL     1      -5.215  11.793  17.612  0.00  0.00    +0.000 NA
ATOM      4  C   UNL     1      -6.527  12.146  17.384  0.00  0.00    +0.000 A 
ATOM      5  C   UNL     1      -7.296  12.782  18.278  0.00  0.00    +0.000 A 
ATOM      6  N   UNL     1      -6.750  13.117  19.502  0.00  0.00    +0.000 N 
ATOM      7  N   UNL     1      -7.321  13.769  20.557  0.00  0.00    +0.000 NA
ATOM      8  C   UNL     1      -6.341  13.855  21.460  0.00  0.00    +0.000 A 
ATOM      9  C   UNL     1      -5.145  13.259  21.023  0.00  0.00    +0.000 A 
ATOM     10  C   UNL     1      -5.438  12.788  19.765  0.00  0.00    +0.000 A 
ATOM     11  H   UNL     1      -2.956  12.175  19.855  0.00  0.00    +0.000 HD
ENDROOT
BRANCH   1  14
ATOM     12  C   UNL     1      -0.595  10.888  18.765  0.00  0.00    +0.000 C 
ATOM     13  C   UNL     1      -1.697  10.267  17.858  0.00  0.00    +0.000 C 
ATOM     14  C   UNL     1      -2.447  11.620  17.929  0.00  0.00    +0.000 C 
ATOM     15  C   UNL     1      -1.079  12.275  18.246  0.00  0.00    +0.000 C 
BRANCH  12  16
ATOM     16  C   UNL     1      -0.549  10.572  20.313  0.00  0.00    +0.000 A 
ATOM     17  C   UNL     1      -0.834  11.551  21.286  0.00  0.00    +0.000 A 
ATOM     18  C   UNL     1      -0.841  11.266  22.655  0.00  0.00    +0.000 A 
ATOM     19  C   UNL     1      -0.542   9.983  23.099  0.00  0.00    +0.000 A 
ATOM     20  C   UNL     1      -0.220   8.996  22.175  0.00  0.00    +0.000 A 
ATOM     21  C   UNL     1      -0.220   9.292  20.808  0.00  0.00    +0.000 A 
ENDBRANCH  12  16
BRANCH  12  22
ATOM     22  N   UNL     1       0.711  10.623  18.158  0.00  0.00    +0.000 NA
ATOM     23  H   UNL     1       0.637  10.369  17.172  0.00  0.00    +0.000 HD
ATOM     24  H   UNL     1       1.194   9.837  18.593  0.00  0.00    +0.000 HD
ENDBRANCH  12  22
ENDBRANCH   1  14
BRANCH   8  25
ATOM     25  C   UNL     1      -6.445  14.498  22.835  0.00  0.00    +0.000 C 
ATOM     26  C   UNL     1      -6.535  16.055  22.806  0.00  0.00    +0.000 C 
ATOM     27  C   UNL     1      -5.751  16.037  24.133  0.00  0.00    +0.000 C 
ATOM     28  C   UNL     1      -5.124  14.721  23.624  0.00  0.00    +0.000 C 
ENDBRANCH   8  25
TORSDOF 4
ENDMDL
