MODEL 1
REMARK VINA RESULT:      -9.7      0.000      0.000
REMARK  Name = 
REMARK  4 active torsions:
REMARK  status: ('A' for Active; 'I' for Inactive)
REMARK    1  A    between atoms: C_10  and  N_11
REMARK    2  A    between atoms: C_12  and  C_14
REMARK    3  A    between atoms: C_14  and  C_15
REMARK    4  A    between atoms: C_15  and  C_16
REMARK                            x       y       z     vdW  Elec       q    Type
REMARK                         _______ _______ _______ _____ _____    ______ ____
ROOT
ATOM      1  N   UNL     1       1.331   7.140  20.836  0.00  0.00    +0.000 N 
ATOM      2  C   UNL     1       2.193   6.903  19.767  0.00  0.00    +0.000 C 
ATOM      3  O   UNL     1       2.543   7.769  18.964  0.00  0.00    +0.000 OA
ATOM      4  H   UNL     1       1.051   6.356  21.415  0.00  0.00    +0.000 HD
ENDROOT
BRANCH   1  14
ATOM      5  N   UNL     1      -2.132  12.238  17.799  0.00  0.00    +0.000 N 
ATOM      6  C   UNL     1      -1.448  11.192  18.348  0.00  0.00    +0.000 C 
ATOM      7  O   UNL     1      -1.186  10.222  17.640  0.00  0.00    +0.000 OA
ATOM      8  N   UNL     1      -1.134  11.334  19.676  0.00  0.00    +0.000 N 
ATOM      9  C   UNL     1      -1.613  12.427  20.543  0.00  0.00    +0.000 C 
ATOM     10  C   UNL     1      -0.980  12.241  21.918  0.00  0.00    +0.000 C 
ATOM     11  C   UNL     1      -0.375  10.887  21.787  0.00  0.00    +0.000 A 
ATOM     12  C   UNL     1       0.239  10.169  22.788  0.00  0.00    +0.000 A 
ATOM     13  C   UNL     1       0.788   8.930  22.470  0.00  0.00    +0.000 A 
ATOM     14  C   UNL     1       0.747   8.403  21.165  0.00  0.00    +0.000 A 
ATOM     15  C   UNL     1       0.108   9.154  20.154  0.00  0.00    +0.000 A 
ATOM     16  C   UNL     1      -0.450  10.393  20.485  0.00  0.00    +0.000 A 
ATOM     17  H   UNL     1      -2.287  12.130  16.805  0.00  0.00    +0.000 HD
ATOM     18  H   UNL     1      -1.859  13.170  18.076  0.00  0.00    +0.000 HD
ENDBRANCH   1  14
BRANCH   2  19
ATOM     19  C   UNL     1       2.735   5.458  19.590  0.00  0.00    +0.000 C 
ATOM     20  C   UNL     1       2.039   4.803  18.363  0.00  0.00    +0.000 C 
ATOM     21  C   UNL     1       2.104   3.270  18.298  0.00  0.00    +0.000 C 
ATOM     22  C   UNL     1       1.754   2.574  19.607  0.00  0.00    +0.000 C 
ATOM     23  C   UNL     1       2.523   3.155  20.782  0.00  0.00    +0.000 C 
ATOM     24  C   UNL     1       2.325   4.663  20.867  0.00  0.00    +0.000 C 
BRANCH  19  25
ATOM     25  C   UNL     1       4.275   5.475  19.384  0.00  0.00    +0.000 C 
BRANCH  25  26
ATOM     26  C   UNL     1       4.823   5.467  17.968  0.00  0.00    +0.000 A 
ATOM     27  C   UNL     1       4.776   6.621  17.168  0.00  0.00    +0.000 A 
ATOM     28  C   UNL     1       5.134   6.575  15.816  0.00  0.00    +0.000 A 
ATOM     29  C   UNL     1       5.557   5.376  15.246  0.00  0.00    +0.000 A 
ATOM     30  C   UNL     1       5.653   4.244  16.043  0.00  0.00    +0.000 A 
ATOM     31  F   UNL     1       6.065   3.092  15.501  0.00  0.00    +0.000 F 
ATOM     32  C   UNL     1       5.298   4.279  17.391  0.00  0.00    +0.000 A 
ENDBRANCH  25  26
ENDBRANCH  19  25
ENDBRANCH   2  19
TORSDOF 4
ENDMDL
MODEL 2
REMARK VINA RESULT:      -9.6      0.836      1.219
REMARK  Name = 
REMARK  4 active torsions:
REMARK  status: ('A' for Active; 'I' for Inactive)
REMARK    1  A    between atoms: C_10  and  N_11
REMARK    2  A    between atoms: C_12  and  C_14
REMARK    3  A    between atoms: C_14  and  C_15
REMARK    4  A    between atoms: C_15  and  C_16
REMARK                            x       y       z     vdW  Elec       q    Type
REMARK                         _______ _______ _______ _____ _____    ______ ____
ROOT
ATOM      1  N   UNL     1       1.240   7.151  20.927  0.00  0.00    +0.000 N 
ATOM      2  C   UNL     1       2.102   6.877  19.867  0.00  0.00    +0.000 C 
ATOM      3  O   UNL     1       2.468   7.719  19.045  0.00  0.00    +0.000 OA
ATOM      4  H   UNL     1       0.946   6.385  21.522  0.00  0.00    +0.000 HD
ENDROOT
BRANCH   1  14
ATOM      5  N   UNL     1      -2.125  12.235  17.757  0.00  0.00    +0.000 N 
ATOM      6  C   UNL     1      -1.461  11.190  18.333  0.00  0.00    +0.000 C 
ATOM      7  O   UNL     1      -1.210  10.201  17.648  0.00  0.00    +0.000 OA
ATOM      8  N   UNL     1      -1.153  11.357  19.659  0.00  0.00    +0.000 N 
ATOM      9  C   UNL     1      -1.620  12.476  20.499  0.00  0.00    +0.000 C 
ATOM     10  C   UNL     1      -0.998  12.310  21.883  0.00  0.00    +0.000 C 
ATOM     11  C   UNL     1      -0.414  10.944  21.785  0.00  0.00    +0.000 A 
ATOM     12  C   UNL     1       0.183  10.239  22.805  0.00  0.00    +0.000 A 
ATOM     13  C   UNL     1       0.715   8.985  22.517  0.00  0.00    +0.000 A 
ATOM     14  C   UNL     1       0.673   8.430  21.224  0.00  0.00    +0.000 A 
ATOM     15  C   UNL     1       0.052   9.169  20.193  0.00  0.00    +0.000 A 
ATOM     16  C   UNL     1      -0.488  10.423  20.493  0.00  0.00    +0.000 A 
ATOM     17  H   UNL     1      -2.276  12.108  16.764  0.00  0.00    +0.000 HD
ATOM     18  H   UNL     1      -1.840  13.168  18.015  0.00  0.00    +0.000 HD
ENDBRANCH   1  14
BRANCH   2  19
ATOM     19  C   UNL     1       2.623   5.420  19.725  0.00  0.00    +0.000 C 
ATOM     20  C   UNL     1       1.850   4.717  18.573  0.00  0.00    +0.000 C 
ATOM     21  C   UNL     1       1.901   3.181  18.576  0.00  0.00    +0.000 C 
ATOM     22  C   UNL     1       1.626   2.550  19.935  0.00  0.00    +0.000 C 
ATOM     23  C   UNL     1       2.468   3.177  21.033  0.00  0.00    +0.000 C 
ATOM     24  C   UNL     1       2.285   4.689  21.059  0.00  0.00    +0.000 C 
BRANCH  19  25
ATOM     25  C   UNL     1       4.148   5.414  19.426  0.00  0.00    +0.000 C 
BRANCH  25  26
ATOM     26  C   UNL     1       4.611   5.257  17.989  0.00  0.00    +0.000 A 
ATOM     27  C   UNL     1       5.266   4.090  17.563  0.00  0.00    +0.000 A 
ATOM     28  C   UNL     1       5.833   4.007  16.286  0.00  0.00    +0.000 A 
ATOM     29  C   UNL     1       5.742   5.086  15.410  0.00  0.00    +0.000 A 
ATOM     30  C   UNL     1       5.054   6.223  15.807  0.00  0.00    +0.000 A 
ATOM     31  F   UNL     1       4.958   7.261  14.966  0.00  0.00    +0.000 F 
ATOM     32  C   UNL     1       4.486   6.317  17.078  0.00  0.00    +0.000 A 
ENDBRANCH  25  26
ENDBRANCH  19  25
ENDBRANCH   2  19
TORSDOF 4
ENDMDL
MODEL 3
REMARK VINA RESULT:      -9.5      1.325      1.342
REMARK  Name = 
REMARK  4 active torsions:
REMARK  status: ('A' for Active; 'I' for Inactive)
REMARK    1  A    between atoms: C_10  and  N_11
REMARK    2  A    between atoms: C_12  and  C_14
REMARK    3  A    between atoms: C_14  and  C_15
REMARK    4  A    between atoms: C_15  and  C_16
REMARK                            x       y       z     vdW  Elec       q    Type
REMARK                         _______ _______ _______ _____ _____    ______ ____
ROOT
ATOM      1  N   UNL     1       1.457   7.294  21.008  0.00  0.00    +0.000 N 
ATOM      2  C   UNL     1       2.031   6.945  19.787  0.00  0.00    +0.000 C 
ATOM      3  O   UNL     1       2.117   7.711  18.826  0.00  0.00    +0.000 OA
ATOM      4  H   UNL     1       1.379   6.583  21.727  0.00  0.00    +0.000 HD
ENDROOT
BRANCH   1  14
ATOM      5  N   UNL     1       1.438  13.725  18.589  0.00  0.00    +0.000 N 
ATOM      6  C   UNL     1       1.474  12.429  19.016  0.00  0.00    +0.000 C 
ATOM      7  O   UNL     1       2.078  11.600  18.339  0.00  0.00    +0.000 OA
ATOM      8  N   UNL     1       0.795  12.183  20.183  0.00  0.00    +0.000 N 
ATOM      9  C   UNL     1      -0.065  13.157  20.880  0.00  0.00    +0.000 C 
ATOM     10  C   UNL     1      -0.571  12.500  22.160  0.00  0.00    +0.000 C 
ATOM     11  C   UNL     1      -0.147  11.086  21.956  0.00  0.00    +0.000 A 
ATOM     12  C   UNL     1      -0.448  10.020  22.773  0.00  0.00    +0.000 A 
ATOM     13  C   UNL     1       0.074   8.771  22.448  0.00  0.00    +0.000 A 
ATOM     14  C   UNL     1       0.905   8.573  21.328  0.00  0.00    +0.000 A 
ATOM     15  C   UNL     1       1.197   9.681  20.501  0.00  0.00    +0.000 A 
ATOM     16  C   UNL     1       0.661  10.929  20.830  0.00  0.00    +0.000 A 
ATOM     17  H   UNL     1       2.004  13.884  17.764  0.00  0.00    +0.000 HD
ATOM     18  H   UNL     1       1.514  14.449  19.287  0.00  0.00    +0.000 HD
ENDBRANCH   1  14
BRANCH   2  19
ATOM     19  C   UNL     1       2.593   5.503  19.645  0.00  0.00    +0.000 C 
ATOM     20  C   UNL     1       1.929   4.822  18.414  0.00  0.00    +0.000 C 
ATOM     21  C   UNL     1       2.012   3.289  18.375  0.00  0.00    +0.000 C 
ATOM     22  C   UNL     1       1.642   2.610  19.688  0.00  0.00    +0.000 C 
ATOM     23  C   UNL     1       2.379   3.218  20.869  0.00  0.00    +0.000 C 
ATOM     24  C   UNL     1       2.164   4.724  20.925  0.00  0.00    +0.000 C 
BRANCH  19  25
ATOM     25  C   UNL     1       4.136   5.534  19.471  0.00  0.00    +0.000 C 
BRANCH  25  26
ATOM     26  C   UNL     1       4.714   5.523  18.067  0.00  0.00    +0.000 A 
ATOM     27  C   UNL     1       4.694   6.677  17.267  0.00  0.00    +0.000 A 
ATOM     28  C   UNL     1       5.080   6.630  15.922  0.00  0.00    +0.000 A 
ATOM     29  C   UNL     1       5.504   5.428  15.361  0.00  0.00    +0.000 A 
ATOM     30  C   UNL     1       5.573   4.295  16.158  0.00  0.00    +0.000 A 
ATOM     31  F   UNL     1       5.987   3.139  15.623  0.00  0.00    +0.000 F 
ATOM     32  C   UNL     1       5.190   4.331  17.499  0.00  0.00    +0.000 A 
ENDBRANCH  25  26
ENDBRANCH  19  25
ENDBRANCH   2  19
TORSDOF 4
ENDMDL
MODEL 4
REMARK VINA RESULT:      -9.4      2.289      4.385
REMARK  Name = 
REMARK  4 active torsions:
REMARK  status: ('A' for Active; 'I' for Inactive)
REMARK    1  A    between atoms: C_10  and  N_11
REMARK    2  A    between atoms: C_12  and  C_14
REMARK    3  A    between atoms: C_14  and  C_15
REMARK    4  A    between atoms: C_15  and  C_16
REMARK                            x       y       z     vdW  Elec       q    Type
REMARK                         _______ _______ _______ _____ _____    ______ ____
ROOT
ATOM      1  N   UNL     1       3.168   6.067  18.341  0.00  0.00    +0.000 N 
ATOM      2  C   UNL     1       4.429   5.553  18.635  0.00  0.00    +0.000 C 
ATOM      3  O   UNL     1       5.030   5.770  19.688  0.00  0.00    +0.000 OA
ATOM      4  H   UNL     1       2.771   5.882  17.427  0.00  0.00    +0.000 HD
ENDROOT
BRANCH   1  14
ATOM      5  N   UNL     1       0.991  12.569  18.771  0.00  0.00    +0.000 N 
ATOM      6  C   UNL     1       1.447  11.291  18.627  0.00  0.00    +0.000 C 
ATOM      7  O   UNL     1       2.082  11.001  17.615  0.00  0.00    +0.000 OA
ATOM      8  N   UNL     1       1.121  10.439  19.651  0.00  0.00    +0.000 N 
ATOM      9  C   UNL     1       0.212  10.768  20.765  0.00  0.00    +0.000 C 
ATOM     10  C   UNL     1       0.178   9.569  21.708  0.00  0.00    +0.000 C 
ATOM     11  C   UNL     1       0.894   8.539  20.905  0.00  0.00    +0.000 A 
ATOM     12  C   UNL     1       1.057   7.213  21.241  0.00  0.00    +0.000 A 
ATOM     13  C   UNL     1       1.798   6.403  20.385  0.00  0.00    +0.000 A 
ATOM     14  C   UNL     1       2.390   6.897  19.207  0.00  0.00    +0.000 A 
ATOM     15  C   UNL     1       2.206   8.259  18.880  0.00  0.00    +0.000 A 
ATOM     16  C   UNL     1       1.453   9.063  19.740  0.00  0.00    +0.000 A 
ATOM     17  H   UNL     1       1.306  13.186  18.032  0.00  0.00    +0.000 HD
ATOM     18  H   UNL     1       1.028  12.977  19.693  0.00  0.00    +0.000 HD
ENDBRANCH   1  14
BRANCH   2  19
ATOM     19  C   UNL     1       5.105   4.653  17.563  0.00  0.00    +0.000 C 
ATOM     20  C   UNL     1       6.649   4.755  17.719  0.00  0.00    +0.000 C 
ATOM     21  C   UNL     1       7.473   4.308  16.502  0.00  0.00    +0.000 C 
ATOM     22  C   UNL     1       6.982   4.872  15.174  0.00  0.00    +0.000 C 
ATOM     23  C   UNL     1       5.488   4.670  14.991  0.00  0.00    +0.000 C 
ATOM     24  C   UNL     1       4.714   5.239  16.172  0.00  0.00    +0.000 C 
BRANCH  19  25
ATOM     25  C   UNL     1       4.648   3.177  17.724  0.00  0.00    +0.000 C 
BRANCH  25  26
ATOM     26  C   UNL     1       3.384   2.884  18.512  0.00  0.00    +0.000 A 
ATOM     27  C   UNL     1       2.128   2.859  17.883  0.00  0.00    +0.000 A 
ATOM     28  C   UNL     1       0.950   2.747  18.630  0.00  0.00    +0.000 A 
ATOM     29  C   UNL     1       1.010   2.646  20.018  0.00  0.00    +0.000 A 
ATOM     30  C   UNL     1       2.250   2.621  20.642  0.00  0.00    +0.000 A 
ATOM     31  F   UNL     1       2.312   2.517  21.975  0.00  0.00    +0.000 F 
ATOM     32  C   UNL     1       3.430   2.732  19.907  0.00  0.00    +0.000 A 
ENDBRANCH  25  26
ENDBRANCH  19  25
ENDBRANCH   2  19
TORSDOF 4
ENDMDL
MODEL 5
REMARK VINA RESULT:      -9.4      1.036      1.078
REMARK  Name = 
REMARK  4 active torsions:
REMARK  status: ('A' for Active; 'I' for Inactive)
REMARK    1  A    between atoms: C_10  and  N_11
REMARK    2  A    between atoms: C_12  and  C_14
REMARK    3  A    between atoms: C_14  and  C_15
REMARK    4  A    between atoms: C_15  and  C_16
REMARK                            x       y       z     vdW  Elec       q    Type
REMARK                         _______ _______ _______ _____ _____    ______ ____
ROOT
ATOM      1  N   UNL     1       2.226   7.239  20.030  0.00  0.00    +0.000 N 
ATOM      2  C   UNL     1       1.944   5.883  20.181  0.00  0.00    +0.000 C 
ATOM      3  O   UNL     1       0.984   5.449  20.821  0.00  0.00    +0.000 OA
ATOM      4  H   UNL     1       3.069   7.505  19.533  0.00  0.00    +0.000 HD
ENDROOT
BRANCH   1  14
ATOM      5  N   UNL     1      -2.159  12.092  17.928  0.00  0.00    +0.000 N 
ATOM      6  C   UNL     1      -1.289  11.104  18.285  0.00  0.00    +0.000 C 
ATOM      7  O   UNL     1      -0.896  10.323  17.422  0.00  0.00    +0.000 OA
ATOM      8  N   UNL     1      -0.952  11.079  19.615  0.00  0.00    +0.000 N 
ATOM      9  C   UNL     1      -1.573  11.917  20.658  0.00  0.00    +0.000 C 
ATOM     10  C   UNL     1      -0.865  11.620  21.977  0.00  0.00    +0.000 C 
ATOM     11  C   UNL     1      -0.047  10.429  21.613  0.00  0.00    +0.000 A 
ATOM     12  C   UNL     1       0.718   9.674  22.474  0.00  0.00    +0.000 A 
ATOM     13  C   UNL     1       1.455   8.617  21.946  0.00  0.00    +0.000 A 
ATOM     14  C   UNL     1       1.451   8.311  20.571  0.00  0.00    +0.000 A 
ATOM     15  C   UNL     1       0.656   9.097  19.708  0.00  0.00    +0.000 A 
ATOM     16  C   UNL     1      -0.087  10.150  20.248  0.00  0.00    +0.000 A 
ATOM     17  H   UNL     1      -2.333  12.123  16.931  0.00  0.00    +0.000 HD
ATOM     18  H   UNL     1      -2.037  12.999  18.354  0.00  0.00    +0.000 HD
ENDBRANCH   1  14
BRANCH   2  19
ATOM     19  C   UNL     1       2.903   4.870  19.497  0.00  0.00    +0.000 C 
ATOM     20  C   UNL     1       2.379   4.567  18.064  0.00  0.00    +0.000 C 
ATOM     21  C   UNL     1       2.921   3.285  17.413  0.00  0.00    +0.000 C 
ATOM     22  C   UNL     1       2.883   2.060  18.319  0.00  0.00    +0.000 C 
ATOM     23  C   UNL     1       3.494   2.343  19.680  0.00  0.00    +0.000 C 
ATOM     24  C   UNL     1       2.837   3.553  20.330  0.00  0.00    +0.000 C 
BRANCH  19  25
ATOM     25  C   UNL     1       4.344   5.445  19.428  0.00  0.00    +0.000 C 
BRANCH  25  26
ATOM     26  C   UNL     1       4.993   5.632  18.068  0.00  0.00    +0.000 A 
ATOM     27  C   UNL     1       4.516   6.597  17.165  0.00  0.00    +0.000 A 
ATOM     28  C   UNL     1       5.006   6.664  15.857  0.00  0.00    +0.000 A 
ATOM     29  C   UNL     1       5.992   5.776  15.434  0.00  0.00    +0.000 A 
ATOM     30  C   UNL     1       6.503   4.852  16.336  0.00  0.00    +0.000 A 
ATOM     31  F   UNL     1       7.455   4.001  15.935  0.00  0.00    +0.000 F 
ATOM     32  C   UNL     1       6.020   4.776  17.642  0.00  0.00    +0.000 A 
ENDBRANCH  25  26
ENDBRANCH  19  25
ENDBRANCH   2  19
TORSDOF 4
ENDMDL
MODEL 6
REMARK VINA RESULT:      -9.4      1.272      1.539
REMARK  Name = 
REMARK  4 active torsions:
REMARK  status: ('A' for Active; 'I' for Inactive)
REMARK    1  A    between atoms: C_10  and  N_11
REMARK    2  A    between atoms: C_12  and  C_14
REMARK    3  A    between atoms: C_14  and  C_15
REMARK    4  A    between atoms: C_15  and  C_16
REMARK                            x       y       z     vdW  Elec       q    Type
REMARK                         _______ _______ _______ _____ _____    ______ ____
ROOT
ATOM      1  N   UNL     1       2.206   7.202  20.082  0.00  0.00    +0.000 N 
ATOM      2  C   UNL     1       1.897   5.851  20.223  0.00  0.00    +0.000 C 
ATOM      3  O   UNL     1       0.917   5.432  20.840  0.00  0.00    +0.000 OA
ATOM      4  H   UNL     1       3.064   7.456  19.605  0.00  0.00    +0.000 HD
ENDROOT
BRANCH   1  14
ATOM      5  N   UNL     1      -2.138  12.061  17.907  0.00  0.00    +0.000 N 
ATOM      6  C   UNL     1      -1.276  11.071  18.280  0.00  0.00    +0.000 C 
ATOM      7  O   UNL     1      -0.885  10.277  17.427  0.00  0.00    +0.000 OA
ATOM      8  N   UNL     1      -0.944  11.060  19.611  0.00  0.00    +0.000 N 
ATOM      9  C   UNL     1      -1.563  11.914  20.642  0.00  0.00    +0.000 C 
ATOM     10  C   UNL     1      -0.861  11.628  21.966  0.00  0.00    +0.000 C 
ATOM     11  C   UNL     1      -0.050  10.427  21.620  0.00  0.00    +0.000 A 
ATOM     12  C   UNL     1       0.706   9.677  22.492  0.00  0.00    +0.000 A 
ATOM     13  C   UNL     1       1.438   8.609  21.979  0.00  0.00    +0.000 A 
ATOM     14  C   UNL     1       1.437   8.287  20.608  0.00  0.00    +0.000 A 
ATOM     15  C   UNL     1       0.650   9.068  19.732  0.00  0.00    +0.000 A 
ATOM     16  C   UNL     1      -0.088  10.132  20.257  0.00  0.00    +0.000 A 
ATOM     17  H   UNL     1      -2.308  12.081  16.909  0.00  0.00    +0.000 HD
ATOM     18  H   UNL     1      -2.011  12.972  18.323  0.00  0.00    +0.000 HD
ENDBRANCH   1  14
BRANCH   2  19
ATOM     19  C   UNL     1       2.855   4.823  19.559  0.00  0.00    +0.000 C 
ATOM     20  C   UNL     1       2.269   4.404  18.181  0.00  0.00    +0.000 C 
ATOM     21  C   UNL     1       2.821   3.097  17.591  0.00  0.00    +0.000 C 
ATOM     22  C   UNL     1       2.874   1.939  18.580  0.00  0.00    +0.000 C 
ATOM     23  C   UNL     1       3.546   2.337  19.883  0.00  0.00    +0.000 C 
ATOM     24  C   UNL     1       2.880   3.568  20.483  0.00  0.00    +0.000 C 
BRANCH  19  25
ATOM     25  C   UNL     1       4.270   5.438  19.373  0.00  0.00    +0.000 C 
BRANCH  25  26
ATOM     26  C   UNL     1       4.925   5.364  18.006  0.00  0.00    +0.000 A 
ATOM     27  C   UNL     1       5.997   4.487  17.764  0.00  0.00    +0.000 A 
ATOM     28  C   UNL     1       6.704   4.529  16.556  0.00  0.00    +0.000 A 
ATOM     29  C   UNL     1       6.342   5.440  15.567  0.00  0.00    +0.000 A 
ATOM     30  C   UNL     1       5.254   6.275  15.780  0.00  0.00    +0.000 A 
ATOM     31  F   UNL     1       4.899   7.147  14.829  0.00  0.00    +0.000 F 
ATOM     32  C   UNL     1       4.543   6.242  16.980  0.00  0.00    +0.000 A 
ENDBRANCH  25  26
ENDBRANCH  19  25
ENDBRANCH   2  19
TORSDOF 4
ENDMDL
MODEL 7
REMARK VINA RESULT:      -9.4      1.546      1.784
REMARK  Name = 
REMARK  4 active torsions:
REMARK  status: ('A' for Active; 'I' for Inactive)
REMARK    1  A    between atoms: C_10  and  N_11
REMARK    2  A    between atoms: C_12  and  C_14
REMARK    3  A    between atoms: C_14  and  C_15
REMARK    4  A    between atoms: C_15  and  C_16
REMARK                            x       y       z     vdW  Elec       q    Type
REMARK                         _______ _______ _______ _____ _____    ______ ____
ROOT
ATOM      1  N   UNL     1       1.390   7.317  21.100  0.00  0.00    +0.000 N 
ATOM      2  C   UNL     1       1.984   6.980  19.886  0.00  0.00    +0.000 C 
ATOM      3  O   UNL     1       2.088   7.755  18.934  0.00  0.00    +0.000 OA
ATOM      4  H   UNL     1       1.298   6.599  21.810  0.00  0.00    +0.000 HD
ENDROOT
BRANCH   1  14
ATOM      5  N   UNL     1       1.300  13.740  18.662  0.00  0.00    +0.000 N 
ATOM      6  C   UNL     1       1.349  12.446  19.093  0.00  0.00    +0.000 C 
ATOM      7  O   UNL     1       1.949  11.619  18.410  0.00  0.00    +0.000 OA
ATOM      8  N   UNL     1       0.688  12.199  20.270  0.00  0.00    +0.000 N 
ATOM      9  C   UNL     1      -0.168  13.171  20.976  0.00  0.00    +0.000 C 
ATOM     10  C   UNL     1      -0.653  12.514  22.264  0.00  0.00    +0.000 C 
ATOM     11  C   UNL     1      -0.223  11.103  22.059  0.00  0.00    +0.000 A 
ATOM     12  C   UNL     1      -0.507  10.037  22.883  0.00  0.00    +0.000 A 
ATOM     13  C   UNL     1       0.019   8.791  22.555  0.00  0.00    +0.000 A 
ATOM     14  C   UNL     1       0.834   8.594  21.424  0.00  0.00    +0.000 A 
ATOM     15  C   UNL     1       1.109   9.701  20.590  0.00  0.00    +0.000 A 
ATOM     16  C   UNL     1       0.570  10.946  20.923  0.00  0.00    +0.000 A 
ATOM     17  H   UNL     1       1.853  13.900  17.829  0.00  0.00    +0.000 HD
ATOM     18  H   UNL     1       1.381  14.467  19.357  0.00  0.00    +0.000 HD
ENDBRANCH   1  14
BRANCH   2  19
ATOM     19  C   UNL     1       2.546   5.538  19.738  0.00  0.00    +0.000 C 
ATOM     20  C   UNL     1       1.846   4.845  18.534  0.00  0.00    +0.000 C 
ATOM     21  C   UNL     1       1.933   3.311  18.506  0.00  0.00    +0.000 C 
ATOM     22  C   UNL     1       1.605   2.642  19.835  0.00  0.00    +0.000 C 
ATOM     23  C   UNL     1       2.377   3.263  20.987  0.00  0.00    +0.000 C 
ATOM     24  C   UNL     1       2.159   4.769  21.038  0.00  0.00    +0.000 C 
BRANCH  19  25
ATOM     25  C   UNL     1       4.082   5.572  19.516  0.00  0.00    +0.000 C 
BRANCH  25  26
ATOM     26  C   UNL     1       4.622   5.385  18.110  0.00  0.00    +0.000 A 
ATOM     27  C   UNL     1       5.401   4.263  17.776  0.00  0.00    +0.000 A 
ATOM     28  C   UNL     1       6.030   4.167  16.530  0.00  0.00    +0.000 A 
ATOM     29  C   UNL     1       5.880   5.185  15.592  0.00  0.00    +0.000 A 
ATOM     30  C   UNL     1       5.073   6.273  15.896  0.00  0.00    +0.000 A 
ATOM     31  F   UNL     1       4.920   7.251  14.995  0.00  0.00    +0.000 F 
ATOM     32  C   UNL     1       4.442   6.379  17.136  0.00  0.00    +0.000 A 
ENDBRANCH  25  26
ENDBRANCH  19  25
ENDBRANCH   2  19
TORSDOF 4
ENDMDL
MODEL 8
REMARK VINA RESULT:      -9.4      2.350      2.977
REMARK  Name = 
REMARK  4 active torsions:
REMARK  status: ('A' for Active; 'I' for Inactive)
REMARK    1  A    between atoms: C_10  and  N_11
REMARK    2  A    between atoms: C_12  and  C_14
REMARK    3  A    between atoms: C_14  and  C_15
REMARK    4  A    between atoms: C_15  and  C_16
REMARK                            x       y       z     vdW  Elec       q    Type
REMARK                         _______ _______ _______ _____ _____    ______ ____
ROOT
ATOM      1  N   UNL     1       2.234   7.317  18.272  0.00  0.00    +0.000 N 
ATOM      2  C   UNL     1       2.683   6.353  19.172  0.00  0.00    +0.000 C 
ATOM      3  O   UNL     1       2.832   6.557  20.378  0.00  0.00    +0.000 OA
ATOM      4  H   UNL     1       2.193   7.079  17.288  0.00  0.00    +0.000 HD
ENDROOT
BRANCH   1  14
ATOM      5  N   UNL     1      -1.139  10.742  23.181  0.00  0.00    +0.000 N 
ATOM      6  C   UNL     1      -0.476  10.008  22.241  0.00  0.00    +0.000 C 
ATOM      7  O   UNL     1      -0.363   8.796  22.410  0.00  0.00    +0.000 OA
ATOM      8  N   UNL     1       0.025  10.730  21.187  0.00  0.00    +0.000 N 
ATOM      9  C   UNL     1       0.028  12.202  21.098  0.00  0.00    +0.000 C 
ATOM     10  C   UNL     1       0.614  12.586  19.743  0.00  0.00    +0.000 C 
ATOM     11  C   UNL     1       1.137  11.276  19.264  0.00  0.00    +0.000 A 
ATOM     12  C   UNL     1       1.873  11.062  18.120  0.00  0.00    +0.000 A 
ATOM     13  C   UNL     1       2.241   9.757  17.806  0.00  0.00    +0.000 A 
ATOM     14  C   UNL     1       1.873   8.660  18.609  0.00  0.00    +0.000 A 
ATOM     15  C   UNL     1       1.122   8.902  19.780  0.00  0.00    +0.000 A 
ATOM     16  C   UNL     1       0.765  10.217  20.092  0.00  0.00    +0.000 A 
ATOM     17  H   UNL     1      -1.552  10.171  23.908  0.00  0.00    +0.000 HD
ATOM     18  H   UNL     1      -1.734  11.490  22.856  0.00  0.00    +0.000 HD
ENDBRANCH   1  14
BRANCH   2  19
ATOM     19  C   UNL     1       3.008   4.942  18.608  0.00  0.00    +0.000 C 
ATOM     20  C   UNL     1       1.714   4.331  17.999  0.00  0.00    +0.000 C 
ATOM     21  C   UNL     1       1.724   2.807  17.803  0.00  0.00    +0.000 C 
ATOM     22  C   UNL     1       2.226   2.026  19.011  0.00  0.00    +0.000 C 
ATOM     23  C   UNL     1       3.546   2.570  19.530  0.00  0.00    +0.000 C 
ATOM     24  C   UNL     1       3.442   4.061  19.819  0.00  0.00    +0.000 C 
BRANCH  19  25
ATOM     25  C   UNL     1       4.118   5.031  17.525  0.00  0.00    +0.000 C 
BRANCH  25  26
ATOM     26  C   UNL     1       5.398   5.780  17.848  0.00  0.00    +0.000 A 
ATOM     27  C   UNL     1       5.752   6.945  17.146  0.00  0.00    +0.000 A 
ATOM     28  C   UNL     1       7.002   7.546  17.332  0.00  0.00    +0.000 A 
ATOM     29  C   UNL     1       7.913   6.999  18.233  0.00  0.00    +0.000 A 
ATOM     30  C   UNL     1       7.550   5.877  18.965  0.00  0.00    +0.000 A 
ATOM     31  F   UNL     1       8.421   5.352  19.837  0.00  0.00    +0.000 F 
ATOM     32  C   UNL     1       6.308   5.270  18.787  0.00  0.00    +0.000 A 
ENDBRANCH  25  26
ENDBRANCH  19  25
ENDBRANCH   2  19
TORSDOF 4
ENDMDL
MODEL 9
REMARK VINA RESULT:      -9.3      1.743      3.533
REMARK  Name = 
REMARK  4 active torsions:
REMARK  status: ('A' for Active; 'I' for Inactive)
REMARK    1  A    between atoms: C_10  and  N_11
REMARK    2  A    between atoms: C_12  and  C_14
REMARK    3  A    between atoms: C_14  and  C_15
REMARK    4  A    between atoms: C_15  and  C_16
REMARK                            x       y       z     vdW  Elec       q    Type
REMARK                         _______ _______ _______ _____ _____    ______ ____
ROOT
ATOM      1  N   UNL     1       1.831   8.586  18.482  0.00  0.00    +0.000 N 
ATOM      2  C   UNL     1       2.244   7.414  19.113  0.00  0.00    +0.000 C 
ATOM      3  O   UNL     1       1.868   7.071  20.235  0.00  0.00    +0.000 OA
ATOM      4  H   UNL     1       2.233   8.817  17.581  0.00  0.00    +0.000 HD
ENDROOT
BRANCH   1  14
ATOM      5  N   UNL     1      -3.972  11.829  16.744  0.00  0.00    +0.000 N 
ATOM      6  C   UNL     1      -2.824  11.150  17.035  0.00  0.00    +0.000 C 
ATOM      7  O   UNL     1      -2.405  10.325  16.226  0.00  0.00    +0.000 OA
ATOM      8  N   UNL     1      -2.257  11.459  18.246  0.00  0.00    +0.000 N 
ATOM      9  C   UNL     1      -2.874  12.320  19.271  0.00  0.00    +0.000 C 
ATOM     10  C   UNL     1      -1.886  12.451  20.426  0.00  0.00    +0.000 C 
ATOM     11  C   UNL     1      -0.867  11.428  20.063  0.00  0.00    +0.000 A 
ATOM     12  C   UNL     1       0.211  11.044  20.829  0.00  0.00    +0.000 A 
ATOM     13  C   UNL     1       1.089  10.099  20.306  0.00  0.00    +0.000 A 
ATOM     14  C   UNL     1       0.915   9.541  19.025  0.00  0.00    +0.000 A 
ATOM     15  C   UNL     1      -0.200   9.945  18.258  0.00  0.00    +0.000 A 
ATOM     16  C   UNL     1      -1.081  10.888  18.795  0.00  0.00    +0.000 A 
ATOM     17  H   UNL     1      -4.326  11.627  15.817  0.00  0.00    +0.000 HD
ATOM     18  H   UNL     1      -4.014  12.805  16.999  0.00  0.00    +0.000 HD
ENDBRANCH   1  14
BRANCH   2  19
ATOM     19  C   UNL     1       3.235   6.496  18.345  0.00  0.00    +0.000 C 
ATOM     20  C   UNL     1       4.217   5.849  19.364  0.00  0.00    +0.000 C 
ATOM     21  C   UNL     1       5.515   5.283  18.770  0.00  0.00    +0.000 C 
ATOM     22  C   UNL     1       6.218   6.221  17.796  0.00  0.00    +0.000 C 
ATOM     23  C   UNL     1       5.267   6.762  16.743  0.00  0.00    +0.000 C 
ATOM     24  C   UNL     1       4.055   7.417  17.392  0.00  0.00    +0.000 C 
BRANCH  19  25
ATOM     25  C   UNL     1       2.466   5.392  17.569  0.00  0.00    +0.000 C 
BRANCH  25  26
ATOM     26  C   UNL     1       2.242   4.048  18.240  0.00  0.00    +0.000 A 
ATOM     27  C   UNL     1       1.273   3.894  19.246  0.00  0.00    +0.000 A 
ATOM     28  C   UNL     1       1.173   2.703  19.973  0.00  0.00    +0.000 A 
ATOM     29  C   UNL     1       2.032   1.642  19.697  0.00  0.00    +0.000 A 
ATOM     30  C   UNL     1       2.959   1.770  18.672  0.00  0.00    +0.000 A 
ATOM     31  F   UNL     1       3.782   0.750  18.399  0.00  0.00    +0.000 F 
ATOM     32  C   UNL     1       3.067   2.954  17.941  0.00  0.00    +0.000 A 
ENDBRANCH  25  26
ENDBRANCH  19  25
ENDBRANCH   2  19
TORSDOF 4
ENDMDL
