MODEL 1
REMARK VINA RESULT:      -8.7      0.000      0.000
REMARK  Name = 
REMARK  4 active torsions:
REMARK  status: ('A' for Active; 'I' for Inactive)
REMARK    1  A    between atoms: C_1  and  C_2
REMARK    2  A    between atoms: C_2  and  C_3
REMARK    3  A    between atoms: C_10  and  C_11
REMARK    4  A    between atoms: C_18  and  C_19
REMARK                            x       y       z     vdW  Elec       q    Type
REMARK                         _______ _______ _______ _____ _____    ______ ____
ROOT
ATOM      1  C   UNL     1       3.494   6.753  18.061  0.00  0.00    +0.000 C 
ATOM      2  O   UNL     1       4.562   7.071  17.532  0.00  0.00    +0.000 OA
ATOM      3  N   UNL     1       3.186   5.410  18.313  0.00  0.00    +0.000 N 
ATOM      4  C   UNL     1       4.233   4.405  18.066  0.00  0.00    +0.000 C 
ATOM      5  C   UNL     1       3.807   3.336  17.065  0.00  0.00    +0.000 C 
ATOM      6  C   UNL     1       2.445   2.742  17.407  0.00  0.00    +0.000 C 
ATOM      7  C   UNL     1       1.410   3.848  17.583  0.00  0.00    +0.000 C 
ATOM      8  C   UNL     1       1.846   4.875  18.635  0.00  0.00    +0.000 C 
ENDROOT
BRANCH   1  18
ATOM      9  C   UNL     1       1.464   9.443  22.590  0.00  0.00    +0.000 C 
ATOM     10  C   UNL     1       0.505   9.116  21.451  0.00  0.00    +0.000 C 
ATOM     11  C   UNL     1      -0.388   7.917  21.776  0.00  0.00    +0.000 C 
ATOM     12  C   UNL     1      -0.382  10.345  21.124  0.00  0.00    +0.000 C 
ATOM     13  O   UNL     1      -1.147  10.924  21.878  0.00  0.00    +0.000 OA
ATOM     14  N   UNL     1      -0.175  10.664  19.788  0.00  0.00    +0.000 N 
ATOM     15  C   UNL     1       0.743   9.813  19.200  0.00  0.00    +0.000 A 
ATOM     16  C   UNL     1       1.130   9.785  17.882  0.00  0.00    +0.000 A 
ATOM     17  C   UNL     1       2.021   8.776  17.496  0.00  0.00    +0.000 A 
ATOM     18  C   UNL     1       2.583   7.881  18.433  0.00  0.00    +0.000 A 
ATOM     19  C   UNL     1       2.160   7.948  19.775  0.00  0.00    +0.000 A 
ATOM     20  C   UNL     1       1.221   8.902  20.136  0.00  0.00    +0.000 A 
ATOM     21  H   UNL     1      -0.665  11.417  19.328  0.00  0.00    +0.000 HD
ENDBRANCH   1  18
BRANCH   8  22
ATOM     22  C   UNL     1       1.835   4.298  20.057  0.00  0.00    +0.000 A 
ATOM     23  N   UNL     1       1.199   3.196  20.376  0.00  0.00    +0.000 NA
ATOM     24  C   UNL     1       1.516   2.981  21.699  0.00  0.00    +0.000 A 
ATOM     25  O   UNL     1       1.015   2.138  22.432  0.00  0.00    +0.000 OA
ATOM     26  N   UNL     1       2.459   3.906  22.094  0.00  0.00    +0.000 N 
ATOM     27  N   UNL     1       2.499   4.898  21.114  0.00  0.00    +0.000 N 
ATOM     28  H   UNL     1       2.488   4.148  23.075  0.00  0.00    +0.000 HD
ATOM     29  H   UNL     1       3.417   5.286  20.887  0.00  0.00    +0.000 HD
ENDBRANCH   8  22
TORSDOF 2
ENDMDL
MODEL 2
REMARK VINA RESULT:      -8.1      3.836      5.863
REMARK  Name = 
REMARK  4 active torsions:
REMARK  status: ('A' for Active; 'I' for Inactive)
REMARK    1  A    between atoms: C_1  and  C_2
REMARK    2  A    between atoms: C_2  and  C_3
REMARK    3  A    between atoms: C_10  and  C_11
REMARK    4  A    between atoms: C_18  and  C_19
REMARK                            x       y       z     vdW  Elec       q    Type
REMARK                         _______ _______ _______ _____ _____    ______ ____
ROOT
ATOM      1  C   UNL     1       2.014   4.201  17.976  0.00  0.00    +0.000 C 
ATOM      2  O   UNL     1       1.070   4.111  17.187  0.00  0.00    +0.000 OA
ATOM      3  N   UNL     1       2.107   3.355  19.089  0.00  0.00    +0.000 N 
ATOM      4  C   UNL     1       1.128   2.262  19.206  0.00  0.00    +0.000 C 
ATOM      5  C   UNL     1       0.322   2.320  20.500  0.00  0.00    +0.000 C 
ATOM      6  C   UNL     1       1.217   2.487  21.723  0.00  0.00    +0.000 C 
ATOM      7  C   UNL     1       2.152   3.678  21.542  0.00  0.00    +0.000 C 
ATOM      8  C   UNL     1       2.985   3.559  20.260  0.00  0.00    +0.000 C 
ENDROOT
BRANCH   1  18
ATOM      9  C   UNL     1       7.030   4.751  15.444  0.00  0.00    +0.000 C 
ATOM     10  C   UNL     1       6.804   5.470  16.769  0.00  0.00    +0.000 C 
ATOM     11  C   UNL     1       7.484   4.754  17.937  0.00  0.00    +0.000 C 
ATOM     12  C   UNL     1       7.325   6.928  16.686  0.00  0.00    +0.000 C 
ATOM     13  O   UNL     1       8.464   7.292  16.445  0.00  0.00    +0.000 OA
ATOM     14  N   UNL     1       6.255   7.769  16.966  0.00  0.00    +0.000 N 
ATOM     15  C   UNL     1       5.097   7.053  17.209  0.00  0.00    +0.000 A 
ATOM     16  C   UNL     1       3.874   7.548  17.591  0.00  0.00    +0.000 A 
ATOM     17  C   UNL     1       2.860   6.619  17.859  0.00  0.00    +0.000 A 
ATOM     18  C   UNL     1       3.046   5.235  17.651  0.00  0.00    +0.000 A 
ATOM     19  C   UNL     1       4.316   4.771  17.256  0.00  0.00    +0.000 A 
ATOM     20  C   UNL     1       5.337   5.691  17.064  0.00  0.00    +0.000 A 
ATOM     21  H   UNL     1       6.350   8.773  17.001  0.00  0.00    +0.000 HD
ENDBRANCH   1  18
BRANCH   8  22
ATOM     22  C   UNL     1       4.027   2.435  20.341  0.00  0.00    +0.000 A 
ATOM     23  N   UNL     1       4.584   2.056  21.467  0.00  0.00    +0.000 NA
ATOM     24  C   UNL     1       5.372   0.981  21.122  0.00  0.00    +0.000 A 
ATOM     25  O   UNL     1       6.180   0.418  21.849  0.00  0.00    +0.000 OA
ATOM     26  N   UNL     1       5.148   0.662  19.800  0.00  0.00    +0.000 N 
ATOM     27  N   UNL     1       4.459   1.733  19.229  0.00  0.00    +0.000 N 
ATOM     28  H   UNL     1       5.898   0.205  19.299  0.00  0.00    +0.000 HD
ATOM     29  H   UNL     1       3.731   1.504  18.549  0.00  0.00    +0.000 HD
ENDBRANCH   8  22
TORSDOF 2
ENDMDL
MODEL 3
REMARK VINA RESULT:      -7.9      1.225      2.218
REMARK  Name = 
REMARK  4 active torsions:
REMARK  status: ('A' for Active; 'I' for Inactive)
REMARK    1  A    between atoms: C_1  and  C_2
REMARK    2  A    between atoms: C_2  and  C_3
REMARK    3  A    between atoms: C_10  and  C_11
REMARK    4  A    between atoms: C_18  and  C_19
REMARK                            x       y       z     vdW  Elec       q    Type
REMARK                         _______ _______ _______ _____ _____    ______ ____
ROOT
ATOM      1  C   UNL     1       3.024   7.118  18.604  0.00  0.00    +0.000 C 
ATOM      2  O   UNL     1       3.949   7.761  18.104  0.00  0.00    +0.000 OA
ATOM      3  N   UNL     1       2.976   5.722  18.501  0.00  0.00    +0.000 N 
ATOM      4  C   UNL     1       4.136   5.036  17.908  0.00  0.00    +0.000 C 
ATOM      5  C   UNL     1       3.773   4.197  16.687  0.00  0.00    +0.000 C 
ATOM      6  C   UNL     1       2.582   3.284  16.955  0.00  0.00    +0.000 C 
ATOM      7  C   UNL     1       1.408   4.087  17.506  0.00  0.00    +0.000 C 
ATOM      8  C   UNL     1       1.794   4.874  18.764  0.00  0.00    +0.000 C 
ENDROOT
BRANCH   1  18
ATOM      9  C   UNL     1      -1.174  10.780  17.685  0.00  0.00    +0.000 C 
ATOM     10  C   UNL     1      -0.219  11.048  18.843  0.00  0.00    +0.000 C 
ATOM     11  C   UNL     1       0.795  12.144  18.512  0.00  0.00    +0.000 C 
ATOM     12  C   UNL     1      -1.012  11.448  20.113  0.00  0.00    +0.000 C 
ATOM     13  O   UNL     1      -1.767  12.398  20.244  0.00  0.00    +0.000 OA
ATOM     14  N   UNL     1      -0.689  10.535  21.111  0.00  0.00    +0.000 N 
ATOM     15  C   UNL     1       0.202   9.581  20.655  0.00  0.00    +0.000 A 
ATOM     16  C   UNL     1       0.795   8.577  21.382  0.00  0.00    +0.000 A 
ATOM     17  C   UNL     1       1.732   7.774  20.722  0.00  0.00    +0.000 A 
ATOM     18  C   UNL     1       1.992   7.915  19.340  0.00  0.00    +0.000 A 
ATOM     19  C   UNL     1       1.360   8.956  18.633  0.00  0.00    +0.000 A 
ATOM     20  C   UNL     1       0.488   9.795  19.311  0.00  0.00    +0.000 A 
ATOM     21  H   UNL     1      -1.060  10.602  22.047  0.00  0.00    +0.000 HD
ENDBRANCH   1  18
BRANCH   8  22
ATOM     22  C   UNL     1       2.057   3.961  19.968  0.00  0.00    +0.000 A 
ATOM     23  N   UNL     1       1.097   3.451  20.703  0.00  0.00    +0.000 NA
ATOM     24  C   UNL     1       1.742   2.632  21.601  0.00  0.00    +0.000 A 
ATOM     25  O   UNL     1       1.230   2.075  22.565  0.00  0.00    +0.000 OA
ATOM     26  N   UNL     1       3.081   2.573  21.279  0.00  0.00    +0.000 N 
ATOM     27  N   UNL     1       3.332   3.603  20.373  0.00  0.00    +0.000 N 
ATOM     28  H   UNL     1       3.730   2.374  22.028  0.00  0.00    +0.000 HD
ATOM     29  H   UNL     1       3.988   3.402  19.616  0.00  0.00    +0.000 HD
ENDBRANCH   8  22
TORSDOF 2
ENDMDL
MODEL 4
REMARK VINA RESULT:      -7.9      2.195      3.801
REMARK  Name = 
REMARK  4 active torsions:
REMARK  status: ('A' for Active; 'I' for Inactive)
REMARK    1  A    between atoms: C_1  and  C_2
REMARK    2  A    between atoms: C_2  and  C_3
REMARK    3  A    between atoms: C_10  and  C_11
REMARK    4  A    between atoms: C_18  and  C_19
REMARK                            x       y       z     vdW  Elec       q    Type
REMARK                         _______ _______ _______ _____ _____    ______ ____
ROOT
ATOM      1  C   UNL     1       2.075   5.109  17.993  0.00  0.00    +0.000 C 
ATOM      2  O   UNL     1       1.046   4.638  17.503  0.00  0.00    +0.000 OA
ATOM      3  N   UNL     1       3.208   4.311  18.199  0.00  0.00    +0.000 N 
ATOM      4  C   UNL     1       3.183   2.934  17.678  0.00  0.00    +0.000 C 
ATOM      5  C   UNL     1       3.407   1.884  18.761  0.00  0.00    +0.000 C 
ATOM      6  C   UNL     1       4.624   2.201  19.622  0.00  0.00    +0.000 C 
ATOM      7  C   UNL     1       4.535   3.621  20.170  0.00  0.00    +0.000 C 
ATOM      8  C   UNL     1       4.366   4.655  19.050  0.00  0.00    +0.000 C 
ENDROOT
BRANCH   1  18
ATOM      9  C   UNL     1       1.809   8.622  22.404  0.00  0.00    +0.000 C 
ATOM     10  C   UNL     1       0.951   8.927  21.182  0.00  0.00    +0.000 C 
ATOM     11  C   UNL     1      -0.518   8.558  21.402  0.00  0.00    +0.000 C 
ATOM     12  C   UNL     1       1.053  10.430  20.814  0.00  0.00    +0.000 C 
ATOM     13  O   UNL     1       0.759  11.384  21.516  0.00  0.00    +0.000 OA
ATOM     14  N   UNL     1       1.521  10.508  19.508  0.00  0.00    +0.000 N 
ATOM     15  C   UNL     1       1.752   9.252  18.976  0.00  0.00    +0.000 A 
ATOM     16  C   UNL     1       2.141   8.946  17.695  0.00  0.00    +0.000 A 
ATOM     17  C   UNL     1       2.236   7.590  17.359  0.00  0.00    +0.000 A 
ATOM     18  C   UNL     1       2.040   6.571  18.317  0.00  0.00    +0.000 A 
ATOM     19  C   UNL     1       1.644   6.929  19.620  0.00  0.00    +0.000 A 
ATOM     20  C   UNL     1       1.480   8.272  19.926  0.00  0.00    +0.000 A 
ATOM     21  H   UNL     1       1.646  11.387  19.028  0.00  0.00    +0.000 HD
ENDBRANCH   1  18
BRANCH   8  22
ATOM     22  C   UNL     1       5.629   4.800  18.191  0.00  0.00    +0.000 A 
ATOM     23  N   UNL     1       5.647   5.445  17.049  0.00  0.00    +0.000 NA
ATOM     24  C   UNL     1       6.966   5.422  16.655  0.00  0.00    +0.000 A 
ATOM     25  O   UNL     1       7.400   5.786  15.570  0.00  0.00    +0.000 OA
ATOM     26  N   UNL     1       7.728   4.871  17.662  0.00  0.00    +0.000 N 
ATOM     27  N   UNL     1       6.850   4.259  18.556  0.00  0.00    +0.000 N 
ATOM     28  H   UNL     1       8.592   4.419  17.395  0.00  0.00    +0.000 HD
ATOM     29  H   UNL     1       7.077   4.331  19.550  0.00  0.00    +0.000 HD
ENDBRANCH   8  22
TORSDOF 2
ENDMDL
MODEL 5
REMARK VINA RESULT:      -7.9      2.384      7.380
REMARK  Name = 
REMARK  4 active torsions:
REMARK  status: ('A' for Active; 'I' for Inactive)
REMARK    1  A    between atoms: C_1  and  C_2
REMARK    2  A    between atoms: C_2  and  C_3
REMARK    3  A    between atoms: C_10  and  C_11
REMARK    4  A    between atoms: C_18  and  C_19
REMARK                            x       y       z     vdW  Elec       q    Type
REMARK                         _______ _______ _______ _____ _____    ______ ____
ROOT
ATOM      1  C   UNL     1       1.203   8.674  21.050  0.00  0.00    +0.000 C 
ATOM      2  O   UNL     1       1.289   8.419  22.253  0.00  0.00    +0.000 OA
ATOM      3  N   UNL     1       0.695   9.902  20.607  0.00  0.00    +0.000 N 
ATOM      4  C   UNL     1       0.407  10.932  21.618  0.00  0.00    +0.000 C 
ATOM      5  C   UNL     1      -1.046  11.395  21.600  0.00  0.00    +0.000 C 
ATOM      6  C   UNL     1      -1.513  11.756  20.194  0.00  0.00    +0.000 C 
ATOM      7  C   UNL     1      -1.234  10.610  19.228  0.00  0.00    +0.000 C 
ATOM      8  C   UNL     1       0.246  10.208  19.232  0.00  0.00    +0.000 C 
ENDROOT
BRANCH   1  18
ATOM      9  C   UNL     1       0.621   3.165  19.960  0.00  0.00    +0.000 C 
ATOM     10  C   UNL     1       2.022   3.764  19.935  0.00  0.00    +0.000 C 
ATOM     11  C   UNL     1       2.819   3.420  21.194  0.00  0.00    +0.000 C 
ATOM     12  C   UNL     1       2.796   3.272  18.685  0.00  0.00    +0.000 C 
ATOM     13  O   UNL     1       3.060   2.118  18.388  0.00  0.00    +0.000 OA
ATOM     14  N   UNL     1       3.172   4.395  17.959  0.00  0.00    +0.000 N 
ATOM     15  C   UNL     1       2.733   5.559  18.562  0.00  0.00    +0.000 A 
ATOM     16  C   UNL     1       2.987   6.851  18.168  0.00  0.00    +0.000 A 
ATOM     17  C   UNL     1       2.501   7.879  18.985  0.00  0.00    +0.000 A 
ATOM     18  C   UNL     1       1.698   7.613  20.116  0.00  0.00    +0.000 A 
ATOM     19  C   UNL     1       1.461   6.274  20.482  0.00  0.00    +0.000 A 
ATOM     20  C   UNL     1       2.007   5.260  19.710  0.00  0.00    +0.000 A 
ATOM     21  H   UNL     1       3.716   4.334  17.111  0.00  0.00    +0.000 HD
ENDBRANCH   1  18
BRANCH   8  22
ATOM     22  C   UNL     1       1.147  11.282  18.609  0.00  0.00    +0.000 A 
ATOM     23  N   UNL     1       1.114  12.542  18.973  0.00  0.00    +0.000 NA
ATOM     24  C   UNL     1       2.124  13.140  18.253  0.00  0.00    +0.000 A 
ATOM     25  O   UNL     1       2.343  14.342  18.182  0.00  0.00    +0.000 OA
ATOM     26  N   UNL     1       2.829  12.171  17.572  0.00  0.00    +0.000 N 
ATOM     27  N   UNL     1       2.067  11.002  17.613  0.00  0.00    +0.000 N 
ATOM     28  H   UNL     1       3.300  12.450  16.723  0.00  0.00    +0.000 HD
ATOM     29  H   UNL     1       2.576  10.123  17.725  0.00  0.00    +0.000 HD
ENDBRANCH   8  22
TORSDOF 2
ENDMDL
MODEL 6
REMARK VINA RESULT:      -7.4      6.468      9.337
REMARK  Name = 
REMARK  4 active torsions:
REMARK  status: ('A' for Active; 'I' for Inactive)
REMARK    1  A    between atoms: C_1  and  C_2
REMARK    2  A    between atoms: C_2  and  C_3
REMARK    3  A    between atoms: C_10  and  C_11
REMARK    4  A    between atoms: C_18  and  C_19
REMARK                            x       y       z     vdW  Elec       q    Type
REMARK                         _______ _______ _______ _____ _____    ______ ____
ROOT
ATOM      1  C   UNL     1      -5.757  11.885  17.572  0.00  0.00    +0.000 C 
ATOM      2  O   UNL     1      -6.446  12.376  16.675  0.00  0.00    +0.000 OA
ATOM      3  N   UNL     1      -4.414  11.554  17.351  0.00  0.00    +0.000 N 
ATOM      4  C   UNL     1      -3.811  11.946  16.067  0.00  0.00    +0.000 C 
ATOM      5  C   UNL     1      -3.252  10.762  15.284  0.00  0.00    +0.000 C 
ATOM      6  C   UNL     1      -2.358   9.879  16.146  0.00  0.00    +0.000 C 
ATOM      7  C   UNL     1      -3.084   9.469  17.423  0.00  0.00    +0.000 C 
ATOM      8  C   UNL     1      -3.583  10.685  18.211  0.00  0.00    +0.000 C 
ENDROOT
BRANCH   1  18
ATOM      9  C   UNL     1      -7.565  14.835  22.033  0.00  0.00    +0.000 C 
ATOM     10  C   UNL     1      -6.836  13.520  22.281  0.00  0.00    +0.000 C 
ATOM     11  C   UNL     1      -5.391  13.738  22.736  0.00  0.00    +0.000 C 
ATOM     12  C   UNL     1      -7.588  12.680  23.345  0.00  0.00    +0.000 C 
ATOM     13  O   UNL     1      -7.837  12.998  24.496  0.00  0.00    +0.000 OA
ATOM     14  N   UNL     1      -7.914  11.462  22.760  0.00  0.00    +0.000 N 
ATOM     15  C   UNL     1      -7.486  11.400  21.446  0.00  0.00    +0.000 A 
ATOM     16  C   UNL     1      -7.567  10.328  20.591  0.00  0.00    +0.000 A 
ATOM     17  C   UNL     1      -6.990  10.472  19.323  0.00  0.00    +0.000 A 
ATOM     18  C   UNL     1      -6.434  11.698  18.894  0.00  0.00    +0.000 A 
ATOM     19  C   UNL     1      -6.374  12.772  19.803  0.00  0.00    +0.000 A 
ATOM     20  C   UNL     1      -6.881  12.599  21.082  0.00  0.00    +0.000 A 
ATOM     21  H   UNL     1      -8.387  10.727  23.265  0.00  0.00    +0.000 HD
ENDBRANCH   1  18
BRANCH   8  22
ATOM     22  C   UNL     1      -2.436  11.495  18.828  0.00  0.00    +0.000 A 
ATOM     23  N   UNL     1      -1.265  10.975  19.111  0.00  0.00    +0.000 NA
ATOM     24  C   UNL     1      -0.508  12.038  19.550  0.00  0.00    +0.000 A 
ATOM     25  O   UNL     1       0.606  11.969  20.054  0.00  0.00    +0.000 OA
ATOM     26  N   UNL     1      -1.224  13.203  19.382  0.00  0.00    +0.000 N 
ATOM     27  N   UNL     1      -2.548  12.841  19.134  0.00  0.00    +0.000 N 
ATOM     28  H   UNL     1      -1.007  13.974  19.998  0.00  0.00    +0.000 HD
ATOM     29  H   UNL     1      -3.059  13.401  18.449  0.00  0.00    +0.000 HD
ENDBRANCH   8  22
TORSDOF 2
ENDMDL
MODEL 7
REMARK VINA RESULT:      -7.4      5.340      8.430
REMARK  Name = 
REMARK  4 active torsions:
REMARK  status: ('A' for Active; 'I' for Inactive)
REMARK    1  A    between atoms: C_1  and  C_2
REMARK    2  A    between atoms: C_2  and  C_3
REMARK    3  A    between atoms: C_10  and  C_11
REMARK    4  A    between atoms: C_18  and  C_19
REMARK                            x       y       z     vdW  Elec       q    Type
REMARK                         _______ _______ _______ _____ _____    ______ ____
ROOT
ATOM      1  C   UNL     1      -1.073  11.179  22.294  0.00  0.00    +0.000 C 
ATOM      2  O   UNL     1      -0.774  10.295  23.100  0.00  0.00    +0.000 OA
ATOM      3  N   UNL     1      -0.785  11.040  20.930  0.00  0.00    +0.000 N 
ATOM      4  C   UNL     1      -0.250   9.748  20.468  0.00  0.00    +0.000 C 
ATOM      5  C   UNL     1       1.104   9.877  19.777  0.00  0.00    +0.000 C 
ATOM      6  C   UNL     1       1.099  10.965  18.709  0.00  0.00    +0.000 C 
ATOM      7  C   UNL     1       0.592  12.280  19.290  0.00  0.00    +0.000 C 
ATOM      8  C   UNL     1      -0.794  12.126  19.928  0.00  0.00    +0.000 C 
ENDROOT
BRANCH   1  18
ATOM      9  C   UNL     1      -6.174  12.836  24.057  0.00  0.00    +0.000 C 
ATOM     10  C   UNL     1      -5.360  13.792  23.194  0.00  0.00    +0.000 C 
ATOM     11  C   UNL     1      -5.859  13.832  21.748  0.00  0.00    +0.000 C 
ATOM     12  C   UNL     1      -5.400  15.223  23.790  0.00  0.00    +0.000 C 
ATOM     13  O   UNL     1      -6.386  15.913  23.988  0.00  0.00    +0.000 OA
ATOM     14  N   UNL     1      -4.088  15.606  24.042  0.00  0.00    +0.000 N 
ATOM     15  C   UNL     1      -3.194  14.608  23.700  0.00  0.00    +0.000 A 
ATOM     16  C   UNL     1      -1.822  14.666  23.740  0.00  0.00    +0.000 A 
ATOM     17  C   UNL     1      -1.117  13.552  23.267  0.00  0.00    +0.000 A 
ATOM     18  C   UNL     1      -1.779  12.373  22.858  0.00  0.00    +0.000 A 
ATOM     19  C   UNL     1      -3.187  12.356  22.835  0.00  0.00    +0.000 A 
ATOM     20  C   UNL     1      -3.878  13.490  23.235  0.00  0.00    +0.000 A 
ATOM     21  H   UNL     1      -3.850  16.516  24.409  0.00  0.00    +0.000 HD
ENDBRANCH   1  18
BRANCH   8  22
ATOM     22  C   UNL     1      -1.893  11.875  18.887  0.00  0.00    +0.000 A 
ATOM     23  N   UNL     1      -3.128  11.574  19.209  0.00  0.00    +0.000 NA
ATOM     24  C   UNL     1      -3.801  11.525  18.009  0.00  0.00    +0.000 A 
ATOM     25  O   UNL     1      -4.949  11.133  17.842  0.00  0.00    +0.000 OA
ATOM     26  N   UNL     1      -2.958  11.942  17.001  0.00  0.00    +0.000 N 
ATOM     27  N   UNL     1      -1.664  11.949  17.523  0.00  0.00    +0.000 N 
ATOM     28  H   UNL     1      -3.137  11.590  16.071  0.00  0.00    +0.000 HD
ATOM     29  H   UNL     1      -1.050  12.709  17.226  0.00  0.00    +0.000 HD
ENDBRANCH   8  22
TORSDOF 2
ENDMDL
MODEL 8
REMARK VINA RESULT:      -7.2      5.608     10.567
REMARK  Name = 
REMARK  4 active torsions:
REMARK  status: ('A' for Active; 'I' for Inactive)
REMARK    1  A    between atoms: C_1  and  C_2
REMARK    2  A    between atoms: C_2  and  C_3
REMARK    3  A    between atoms: C_10  and  C_11
REMARK    4  A    between atoms: C_18  and  C_19
REMARK                            x       y       z     vdW  Elec       q    Type
REMARK                         _______ _______ _______ _____ _____    ______ ____
ROOT
ATOM      1  C   UNL     1      -3.925  14.393  22.478  0.00  0.00    +0.000 C 
ATOM      2  O   UNL     1      -3.546  15.558  22.616  0.00  0.00    +0.000 OA
ATOM      3  N   UNL     1      -5.286  14.066  22.534  0.00  0.00    +0.000 N 
ATOM      4  C   UNL     1      -6.257  15.170  22.616  0.00  0.00    +0.000 C 
ATOM      5  C   UNL     1      -7.151  15.087  23.849  0.00  0.00    +0.000 C 
ATOM      6  C   UNL     1      -7.769  13.703  24.014  0.00  0.00    +0.000 C 
ATOM      7  C   UNL     1      -6.688  12.628  23.981  0.00  0.00    +0.000 C 
ATOM      8  C   UNL     1      -5.844  12.707  22.703  0.00  0.00    +0.000 C 
ENDROOT
BRANCH   1  18
ATOM      9  C   UNL     1      -0.385  12.682  18.427  0.00  0.00    +0.000 C 
ATOM     10  C   UNL     1      -1.115  11.623  19.245  0.00  0.00    +0.000 C 
ATOM     11  C   UNL     1      -2.281  11.000  18.475  0.00  0.00    +0.000 C 
ATOM     12  C   UNL     1      -0.132  10.507  19.681  0.00  0.00    +0.000 C 
ATOM     13  O   UNL     1       0.533   9.784  18.957  0.00  0.00    +0.000 OA
ATOM     14  N   UNL     1      -0.158  10.447  21.070  0.00  0.00    +0.000 N 
ATOM     15  C   UNL     1      -1.020  11.389  21.601  0.00  0.00    +0.000 A 
ATOM     16  C   UNL     1      -1.353  11.565  22.922  0.00  0.00    +0.000 A 
ATOM     17  C   UNL     1      -2.316  12.538  23.218  0.00  0.00    +0.000 A 
ATOM     18  C   UNL     1      -2.855  13.379  22.219  0.00  0.00    +0.000 A 
ATOM     19  C   UNL     1      -2.484  13.165  20.878  0.00  0.00    +0.000 A 
ATOM     20  C   UNL     1      -1.585  12.150  20.583  0.00  0.00    +0.000 A 
ATOM     21  H   UNL     1       0.381   9.774  21.593  0.00  0.00    +0.000 HD
ENDBRANCH   1  18
BRANCH   8  22
ATOM     22  C   UNL     1      -6.634  12.302  21.453  0.00  0.00    +0.000 A 
ATOM     23  N   UNL     1      -6.575  12.965  20.322  0.00  0.00    +0.000 NA
ATOM     24  C   UNL     1      -7.342  12.232  19.446  0.00  0.00    +0.000 A 
ATOM     25  O   UNL     1      -7.674  12.574  18.318  0.00  0.00    +0.000 OA
ATOM     26  N   UNL     1      -7.729  11.058  20.057  0.00  0.00    +0.000 N 
ATOM     27  N   UNL     1      -7.473  11.200  21.421  0.00  0.00    +0.000 N 
ATOM     28  H   UNL     1      -8.586  10.628  19.735  0.00  0.00    +0.000 HD
ATOM     29  H   UNL     1      -7.125  10.375  21.913  0.00  0.00    +0.000 HD
ENDBRANCH   8  22
TORSDOF 2
ENDMDL
MODEL 9
REMARK VINA RESULT:      -7.2      5.451      9.089
REMARK  Name = 
REMARK  4 active torsions:
REMARK  status: ('A' for Active; 'I' for Inactive)
REMARK    1  A    between atoms: C_1  and  C_2
REMARK    2  A    between atoms: C_2  and  C_3
REMARK    3  A    between atoms: C_10  and  C_11
REMARK    4  A    between atoms: C_18  and  C_19
REMARK                            x       y       z     vdW  Elec       q    Type
REMARK                         _______ _______ _______ _____ _____    ______ ____
ROOT
ATOM      1  C   UNL     1      -4.349  11.599  17.145  0.00  0.00    +0.000 C 
ATOM      2  O   UNL     1      -4.308  11.664  15.914  0.00  0.00    +0.000 OA
ATOM      3  N   UNL     1      -5.503  11.966  17.849  0.00  0.00    +0.000 N 
ATOM      4  C   UNL     1      -6.710  12.290  17.071  0.00  0.00    +0.000 C 
ATOM      5  C   UNL     1      -7.235  13.696  17.343  0.00  0.00    +0.000 C 
ATOM      6  C   UNL     1      -7.364  13.979  18.835  0.00  0.00    +0.000 C 
ATOM      7  C   UNL     1      -6.052  13.677  19.551  0.00  0.00    +0.000 C 
ATOM      8  C   UNL     1      -5.583  12.239  19.299  0.00  0.00    +0.000 C 
ENDROOT
BRANCH   1  18
ATOM      9  C   UNL     1      -1.530  11.962  22.023  0.00  0.00    +0.000 C 
ATOM     10  C   UNL     1      -0.736  12.006  20.722  0.00  0.00    +0.000 C 
ATOM     11  C   UNL     1      -0.286  13.425  20.369  0.00  0.00    +0.000 C 
ATOM     12  C   UNL     1       0.505  11.082  20.817  0.00  0.00    +0.000 C 
ATOM     13  O   UNL     1       1.421  11.156  21.620  0.00  0.00    +0.000 OA
ATOM     14  N   UNL     1       0.410  10.150  19.790  0.00  0.00    +0.000 N 
ATOM     15  C   UNL     1      -0.740  10.334  19.043  0.00  0.00    +0.000 A 
ATOM     16  C   UNL     1      -1.119   9.652  17.913  0.00  0.00    +0.000 A 
ATOM     17  C   UNL     1      -2.294  10.069  17.275  0.00  0.00    +0.000 A 
ATOM     18  C   UNL     1      -3.116  11.081  17.818  0.00  0.00    +0.000 A 
ATOM     19  C   UNL     1      -2.690  11.753  18.980  0.00  0.00    +0.000 A 
ATOM     20  C   UNL     1      -1.487  11.385  19.565  0.00  0.00    +0.000 A 
ATOM     21  H   UNL     1       1.119   9.452  19.625  0.00  0.00    +0.000 HD
ENDBRANCH   1  18
BRANCH   8  22
ATOM     22  C   UNL     1      -6.482  11.201  19.983  0.00  0.00    +0.000 A 
ATOM     23  N   UNL     1      -6.619   9.973  19.544  0.00  0.00    +0.000 NA
ATOM     24  C   UNL     1      -7.421   9.355  20.477  0.00  0.00    +0.000 A 
ATOM     25  O   UNL     1      -7.916   8.240  20.376  0.00  0.00    +0.000 OA
ATOM     26  N   UNL     1      -7.627  10.214  21.535  0.00  0.00    +0.000 N 
ATOM     27  N   UNL     1      -7.219  11.482  21.121  0.00  0.00    +0.000 N 
ATOM     28  H   UNL     1      -8.476  10.094  22.071  0.00  0.00    +0.000 HD
ATOM     29  H   UNL     1      -6.744  12.063  21.815  0.00  0.00    +0.000 HD
ENDBRANCH   8  22
TORSDOF 2
ENDMDL
