MODEL 1
REMARK VINA RESULT:      -9.7      0.000      0.000
REMARK  Name = 
REMARK  3 active torsions:
REMARK  status: ('A' for Active; 'I' for Inactive)
REMARK    1  A    between atoms: C_2  and  C_3
REMARK    2  A    between atoms: C_16  and  C_17
REMARK    3  A    between atoms: C_19  and  C_20
REMARK                            x       y       z     vdW  Elec       q    Type
REMARK                         _______ _______ _______ _____ _____    ______ ____
ROOT
ATOM      1  O   UNL     1       5.132   2.296  20.332  0.00  0.00    +0.000 OA
ATOM      2  C   UNL     1       4.450   3.193  19.841  0.00  0.00    +0.000 C 
ATOM      3  N   UNL     1       3.168   3.497  20.317  0.00  0.00    +0.000 N 
ATOM      4  C   UNL     1       2.640   2.752  21.451  0.00  0.00    +0.000 C 
ATOM      5  C   UNL     1       1.224   2.383  21.047  0.00  0.00    +0.000 C 
ATOM      6  C   UNL     1       0.772   3.564  20.204  0.00  0.00    +0.000 C 
ATOM      7  C   UNL     1       2.062   4.103  19.553  0.00  0.00    +0.000 C 
ENDROOT
BRANCH   2   8
ATOM      8  C   UNL     1       5.068   3.969  18.729  0.00  0.00    +0.000 A 
ATOM      9  C   UNL     1       4.814   3.613  17.392  0.00  0.00    +0.000 A 
ATOM     10  C   UNL     1       5.433   4.278  16.315  0.00  0.00    +0.000 A 
ATOM     11  C   UNL     1       6.292   5.326  16.647  0.00  0.00    +0.000 A 
ATOM     12  N   UNL     1       7.055   6.205  15.929  0.00  0.00    +0.000 N 
ATOM     13  N   UNL     1       7.750   7.034  16.716  0.00  0.00    +0.000 NA
ATOM     14  N   UNL     1       7.486   6.707  17.974  0.00  0.00    +0.000 NA
ATOM     15  C   UNL     1       6.597   5.671  17.954  0.00  0.00    +0.000 A 
ATOM     16  C   UNL     1       6.031   4.942  18.999  0.00  0.00    +0.000 A 
ATOM     17  H   UNL     1       7.159   6.292  14.924  0.00  0.00    +0.000 HD
ENDBRANCH   2   8
BRANCH   7  18
ATOM     18  C   UNL     1       2.067   5.586  19.645  0.00  0.00    +0.000 A 
ATOM     19  N   UNL     1       1.415   6.346  20.498  0.00  0.00    +0.000 NA
ATOM     20  C   UNL     1       1.677   7.632  20.072  0.00  0.00    +0.000 A 
ATOM     21  N   UNL     1       2.504   7.688  19.014  0.00  0.00    +0.000 NA
ATOM     22  N   UNL     1       2.759   6.394  18.786  0.00  0.00    +0.000 N 
ATOM     23  H   UNL     1       3.311   6.126  17.978  0.00  0.00    +0.000 HD
BRANCH  20  24
ATOM     24  C   UNL     1       1.115   8.800  20.738  0.00  0.00    +0.000 A 
ATOM     25  C   UNL     1       0.892   9.983  20.019  0.00  0.00    +0.000 A 
ATOM     26  C   UNL     1       0.299  11.089  20.633  0.00  0.00    +0.000 A 
ATOM     27  C   UNL     1      -0.065  11.026  21.976  0.00  0.00    +0.000 A 
ATOM     28  C   UNL     1       0.178   9.867  22.713  0.00  0.00    +0.000 A 
ATOM     29  C   UNL     1       0.768   8.760  22.096  0.00  0.00    +0.000 A 
ENDBRANCH  20  24
ENDBRANCH   7  18
TORSDOF 3
ENDMDL
MODEL 2
REMARK VINA RESULT:      -9.5      0.767      1.396
REMARK  Name = 
REMARK  3 active torsions:
REMARK  status: ('A' for Active; 'I' for Inactive)
REMARK    1  A    between atoms: C_2  and  C_3
REMARK    2  A    between atoms: C_16  and  C_17
REMARK    3  A    between atoms: C_19  and  C_20
REMARK                            x       y       z     vdW  Elec       q    Type
REMARK                         _______ _______ _______ _____ _____    ______ ____
ROOT
ATOM      1  O   UNL     1       5.157   2.274  20.208  0.00  0.00    +0.000 OA
ATOM      2  C   UNL     1       4.602   3.197  19.615  0.00  0.00    +0.000 C 
ATOM      3  N   UNL     1       3.239   3.475  19.783  0.00  0.00    +0.000 N 
ATOM      4  C   UNL     1       2.462   2.669  20.713  0.00  0.00    +0.000 C 
ATOM      5  C   UNL     1       1.190   2.323  19.960  0.00  0.00    +0.000 C 
ATOM      6  C   UNL     1       0.941   3.549  19.097  0.00  0.00    +0.000 C 
ATOM      7  C   UNL     1       2.342   4.123  18.808  0.00  0.00    +0.000 C 
ENDROOT
BRANCH   2   8
ATOM      8  C   UNL     1       5.460   4.033  18.729  0.00  0.00    +0.000 A 
ATOM      9  C   UNL     1       6.083   5.189  19.236  0.00  0.00    +0.000 A 
ATOM     10  C   UNL     1       6.845   6.043  18.415  0.00  0.00    +0.000 A 
ATOM     11  C   UNL     1       6.971   5.666  17.078  0.00  0.00    +0.000 A 
ATOM     12  N   UNL     1       7.611   6.189  15.989  0.00  0.00    +0.000 N 
ATOM     13  N   UNL     1       7.411   5.463  14.884  0.00  0.00    +0.000 NA
ATOM     14  N   UNL     1       6.611   4.456  15.207  0.00  0.00    +0.000 NA
ATOM     15  C   UNL     1       6.334   4.558  16.539  0.00  0.00    +0.000 A 
ATOM     16  C   UNL     1       5.520   3.778  17.359  0.00  0.00    +0.000 A 
ATOM     17  H   UNL     1       8.182   7.024  15.921  0.00  0.00    +0.000 HD
ENDBRANCH   2   8
BRANCH   7  18
ATOM     18  C   UNL     1       2.306   5.598  18.977  0.00  0.00    +0.000 A 
ATOM     19  N   UNL     1       1.682   6.290  19.905  0.00  0.00    +0.000 NA
ATOM     20  C   UNL     1       1.878   7.605  19.533  0.00  0.00    +0.000 A 
ATOM     21  N   UNL     1       2.639   7.743  18.434  0.00  0.00    +0.000 NA
ATOM     22  N   UNL     1       2.921   6.472  18.124  0.00  0.00    +0.000 N 
ATOM     23  H   UNL     1       3.432   6.265  17.273  0.00  0.00    +0.000 HD
BRANCH  20  24
ATOM     24  C   UNL     1       1.320   8.718  20.291  0.00  0.00    +0.000 A 
ATOM     25  C   UNL     1       0.998   9.920  19.646  0.00  0.00    +0.000 A 
ATOM     26  C   UNL     1       0.408  10.972  20.351  0.00  0.00    +0.000 A 
ATOM     27  C   UNL     1       0.144  10.834  21.712  0.00  0.00    +0.000 A 
ATOM     28  C   UNL     1       0.485   9.655  22.374  0.00  0.00    +0.000 A 
ATOM     29  C   UNL     1       1.073   8.603  21.667  0.00  0.00    +0.000 A 
ENDBRANCH  20  24
ENDBRANCH   7  18
TORSDOF 3
ENDMDL
MODEL 3
REMARK VINA RESULT:      -8.6      1.826      4.791
REMARK  Name = 
REMARK  3 active torsions:
REMARK  status: ('A' for Active; 'I' for Inactive)
REMARK    1  A    between atoms: C_2  and  C_3
REMARK    2  A    between atoms: C_16  and  C_17
REMARK    3  A    between atoms: C_19  and  C_20
REMARK                            x       y       z     vdW  Elec       q    Type
REMARK                         _______ _______ _______ _____ _____    ______ ____
ROOT
ATOM      1  O   UNL     1       4.525   2.617  16.299  0.00  0.00    +0.000 OA
ATOM      2  C   UNL     1       4.307   3.579  17.033  0.00  0.00    +0.000 C 
ATOM      3  N   UNL     1       4.937   4.816  16.844  0.00  0.00    +0.000 N 
ATOM      4  C   UNL     1       5.852   4.980  15.725  0.00  0.00    +0.000 C 
ATOM      5  C   UNL     1       7.068   5.671  16.314  0.00  0.00    +0.000 C 
ATOM      6  C   UNL     1       6.482   6.568  17.392  0.00  0.00    +0.000 C 
ATOM      7  C   UNL     1       5.216   5.832  17.876  0.00  0.00    +0.000 C 
ENDROOT
BRANCH   2   8
ATOM      8  C   UNL     1       3.308   3.376  18.121  0.00  0.00    +0.000 A 
ATOM      9  C   UNL     1       1.953   3.682  17.900  0.00  0.00    +0.000 A 
ATOM     10  C   UNL     1       0.990   3.570  18.923  0.00  0.00    +0.000 A 
ATOM     11  C   UNL     1       1.450   3.112  20.158  0.00  0.00    +0.000 A 
ATOM     12  N   UNL     1       0.862   2.858  21.367  0.00  0.00    +0.000 N 
ATOM     13  N   UNL     1       1.745   2.449  22.284  0.00  0.00    +0.000 NA
ATOM     14  N   UNL     1       2.942   2.448  21.714  0.00  0.00    +0.000 NA
ATOM     15  C   UNL     1       2.785   2.845  20.418  0.00  0.00    +0.000 A 
ATOM     16  C   UNL     1       3.726   3.043  19.409  0.00  0.00    +0.000 A 
ATOM     17  H   UNL     1      -0.110   2.948  21.638  0.00  0.00    +0.000 HD
ENDBRANCH   2   8
BRANCH   7  18
ATOM     18  C   UNL     1       4.108   6.811  18.009  0.00  0.00    +0.000 A 
ATOM     19  N   UNL     1       3.419   7.111  19.089  0.00  0.00    +0.000 NA
ATOM     20  C   UNL     1       2.447   7.981  18.638  0.00  0.00    +0.000 A 
ATOM     21  N   UNL     1       2.545   8.260  17.328  0.00  0.00    +0.000 NA
ATOM     22  N   UNL     1       3.613   7.541  16.964  0.00  0.00    +0.000 N 
ATOM     23  H   UNL     1       3.882   7.500  15.986  0.00  0.00    +0.000 HD
BRANCH  20  24
ATOM     24  C   UNL     1       1.437   8.544  19.525  0.00  0.00    +0.000 A 
ATOM     25  C   UNL     1       1.285   8.047  20.828  0.00  0.00    +0.000 A 
ATOM     26  C   UNL     1       0.361   8.619  21.705  0.00  0.00    +0.000 A 
ATOM     27  C   UNL     1      -0.429   9.687  21.284  0.00  0.00    +0.000 A 
ATOM     28  C   UNL     1      -0.311  10.173  19.982  0.00  0.00    +0.000 A 
ATOM     29  C   UNL     1       0.616   9.602  19.106  0.00  0.00    +0.000 A 
ENDBRANCH  20  24
ENDBRANCH   7  18
TORSDOF 3
ENDMDL
MODEL 4
REMARK VINA RESULT:      -7.8      1.216      1.733
REMARK  Name = 
REMARK  3 active torsions:
REMARK  status: ('A' for Active; 'I' for Inactive)
REMARK    1  A    between atoms: C_2  and  C_3
REMARK    2  A    between atoms: C_16  and  C_17
REMARK    3  A    between atoms: C_19  and  C_20
REMARK                            x       y       z     vdW  Elec       q    Type
REMARK                         _______ _______ _______ _____ _____    ______ ____
ROOT
ATOM      1  O   UNL     1       5.292   2.555  19.671  0.00  0.00    +0.000 OA
ATOM      2  C   UNL     1       4.566   3.496  19.356  0.00  0.00    +0.000 C 
ATOM      3  N   UNL     1       3.204   3.526  19.683  0.00  0.00    +0.000 N 
ATOM      4  C   UNL     1       2.636   2.425  20.448  0.00  0.00    +0.000 C 
ATOM      5  C   UNL     1       1.347   2.075  19.728  0.00  0.00    +0.000 C 
ATOM      6  C   UNL     1       0.856   3.414  19.202  0.00  0.00    +0.000 C 
ATOM      7  C   UNL     1       2.136   4.238  18.957  0.00  0.00    +0.000 C 
ENDROOT
BRANCH   2   8
ATOM      8  C   UNL     1       5.215   4.628  18.636  0.00  0.00    +0.000 A 
ATOM      9  C   UNL     1       4.754   5.012  17.363  0.00  0.00    +0.000 A 
ATOM     10  C   UNL     1       5.384   6.030  16.620  0.00  0.00    +0.000 A 
ATOM     11  C   UNL     1       6.474   6.655  17.228  0.00  0.00    +0.000 A 
ATOM     12  N   UNL     1       7.326   7.662  16.868  0.00  0.00    +0.000 N 
ATOM     13  N   UNL     1       8.256   7.897  17.799  0.00  0.00    +0.000 NA
ATOM     14  N   UNL     1       8.061   7.033  18.786  0.00  0.00    +0.000 NA
ATOM     15  C   UNL     1       6.978   6.270  18.461  0.00  0.00    +0.000 A 
ATOM     16  C   UNL     1       6.383   5.205  19.135  0.00  0.00    +0.000 A 
ATOM     17  H   UNL     1       7.341   8.216  16.019  0.00  0.00    +0.000 HD
ENDBRANCH   2   8
BRANCH   7  18
ATOM     18  C   UNL     1       1.932   5.615  19.475  0.00  0.00    +0.000 A 
ATOM     19  N   UNL     1       1.800   6.727  18.784  0.00  0.00    +0.000 NA
ATOM     20  C   UNL     1       1.755   7.717  19.745  0.00  0.00    +0.000 A 
ATOM     21  N   UNL     1       1.809   7.246  21.002  0.00  0.00    +0.000 NA
ATOM     22  N   UNL     1       1.886   5.924  20.806  0.00  0.00    +0.000 N 
ATOM     23  H   UNL     1       2.017   5.305  21.599  0.00  0.00    +0.000 HD
BRANCH  20  24
ATOM     24  C   UNL     1       1.638   9.128  19.401  0.00  0.00    +0.000 A 
ATOM     25  C   UNL     1       2.164   9.606  18.192  0.00  0.00    +0.000 A 
ATOM     26  C   UNL     1       2.006  10.944  17.825  0.00  0.00    +0.000 A 
ATOM     27  C   UNL     1       1.329  11.821  18.671  0.00  0.00    +0.000 A 
ATOM     28  C   UNL     1       0.827  11.368  19.890  0.00  0.00    +0.000 A 
ATOM     29  C   UNL     1       0.983  10.028  20.254  0.00  0.00    +0.000 A 
ENDBRANCH  20  24
ENDBRANCH   7  18
TORSDOF 3
ENDMDL
MODEL 5
REMARK VINA RESULT:      -7.8      1.135      1.814
REMARK  Name = 
REMARK  3 active torsions:
REMARK  status: ('A' for Active; 'I' for Inactive)
REMARK    1  A    between atoms: C_2  and  C_3
REMARK    2  A    between atoms: C_16  and  C_17
REMARK    3  A    between atoms: C_19  and  C_20
REMARK                            x       y       z     vdW  Elec       q    Type
REMARK                         _______ _______ _______ _____ _____    ______ ____
ROOT
ATOM      1  O   UNL     1       5.210   2.597  19.947  0.00  0.00    +0.000 OA
ATOM      2  C   UNL     1       4.468   3.520  19.615  0.00  0.00    +0.000 C 
ATOM      3  N   UNL     1       3.148   3.613  20.076  0.00  0.00    +0.000 N 
ATOM      4  C   UNL     1       2.649   2.608  21.002  0.00  0.00    +0.000 C 
ATOM      5  C   UNL     1       1.287   2.220  20.458  0.00  0.00    +0.000 C 
ATOM      6  C   UNL     1       0.761   3.511  19.853  0.00  0.00    +0.000 C 
ATOM      7  C   UNL     1       2.020   4.276  19.397  0.00  0.00    +0.000 C 
ENDROOT
BRANCH   2   8
ATOM      8  C   UNL     1       5.053   4.559  18.722  0.00  0.00    +0.000 A 
ATOM      9  C   UNL     1       4.538   4.747  17.425  0.00  0.00    +0.000 A 
ATOM     10  C   UNL     1       5.108   5.670  16.527  0.00  0.00    +0.000 A 
ATOM     11  C   UNL     1       6.193   6.407  17.001  0.00  0.00    +0.000 A 
ATOM     12  N   UNL     1       6.997   7.380  16.474  0.00  0.00    +0.000 N 
ATOM     13  N   UNL     1       7.948   7.771  17.329  0.00  0.00    +0.000 NA
ATOM     14  N   UNL     1       7.815   7.048  18.433  0.00  0.00    +0.000 NA
ATOM     15  C   UNL     1       6.750   6.213  18.256  0.00  0.00    +0.000 A 
ATOM     16  C   UNL     1       6.215   5.235  19.093  0.00  0.00    +0.000 A 
ATOM     17  H   UNL     1       6.965   7.810  15.557  0.00  0.00    +0.000 HD
ENDBRANCH   2   8
BRANCH   7  18
ATOM     18  C   UNL     1       1.890   5.702  19.791  0.00  0.00    +0.000 A 
ATOM     19  N   UNL     1       1.692   6.742  19.010  0.00  0.00    +0.000 NA
ATOM     20  C   UNL     1       1.767   7.824  19.865  0.00  0.00    +0.000 A 
ATOM     21  N   UNL     1       1.957   7.479  21.150  0.00  0.00    +0.000 NA
ATOM     22  N   UNL     1       1.998   6.143  21.081  0.00  0.00    +0.000 N 
ATOM     23  H   UNL     1       2.211   5.603  21.913  0.00  0.00    +0.000 HD
BRANCH  20  24
ATOM     24  C   UNL     1       1.626   9.196  19.395  0.00  0.00    +0.000 A 
ATOM     25  C   UNL     1       0.910  10.133  20.154  0.00  0.00    +0.000 A 
ATOM     26  C   UNL     1       0.820  11.464  19.743  0.00  0.00    +0.000 A 
ATOM     27  C   UNL     1       1.436  11.870  18.560  0.00  0.00    +0.000 A 
ATOM     28  C   UNL     1       2.127  10.944  17.779  0.00  0.00    +0.000 A 
ATOM     29  C   UNL     1       2.219   9.613  18.194  0.00  0.00    +0.000 A 
ENDBRANCH  20  24
ENDBRANCH   7  18
TORSDOF 3
ENDMDL
MODEL 6
REMARK VINA RESULT:      -7.7      1.143      1.672
REMARK  Name = 
REMARK  3 active torsions:
REMARK  status: ('A' for Active; 'I' for Inactive)
REMARK    1  A    between atoms: C_2  and  C_3
REMARK    2  A    between atoms: C_16  and  C_17
REMARK    3  A    between atoms: C_19  and  C_20
REMARK                            x       y       z     vdW  Elec       q    Type
REMARK                         _______ _______ _______ _____ _____    ______ ____
ROOT
ATOM      1  O   UNL     1       4.833   1.746  19.610  0.00  0.00    +0.000 OA
ATOM      2  C   UNL     1       4.319   2.797  19.232  0.00  0.00    +0.000 C 
ATOM      3  N   UNL     1       2.950   3.051  19.384  0.00  0.00    +0.000 N 
ATOM      4  C   UNL     1       2.114   2.056  20.040  0.00  0.00    +0.000 C 
ATOM      5  C   UNL     1       0.889   1.932  19.152  0.00  0.00    +0.000 C 
ATOM      6  C   UNL     1       0.698   3.338  18.606  0.00  0.00    +0.000 C 
ATOM      7  C   UNL     1       2.117   3.938  18.550  0.00  0.00    +0.000 C 
ENDROOT
BRANCH   2   8
ATOM      8  C   UNL     1       5.234   3.809  18.632  0.00  0.00    +0.000 A 
ATOM      9  C   UNL     1       5.712   4.879  19.412  0.00  0.00    +0.000 A 
ATOM     10  C   UNL     1       6.522   5.893  18.865  0.00  0.00    +0.000 A 
ATOM     11  C   UNL     1       6.846   5.766  17.514  0.00  0.00    +0.000 A 
ATOM     12  N   UNL     1       7.590   6.499  16.632  0.00  0.00    +0.000 N 
ATOM     13  N   UNL     1       7.582   5.974  15.402  0.00  0.00    +0.000 NA
ATOM     14  N   UNL     1       6.810   4.896  15.432  0.00  0.00    +0.000 NA
ATOM     15  C   UNL     1       6.354   4.749  16.710  0.00  0.00    +0.000 A 
ATOM     16  C   UNL     1       5.489   3.805  17.261  0.00  0.00    +0.000 A 
ATOM     17  H   UNL     1       8.113   7.353  16.789  0.00  0.00    +0.000 HD
ENDBRANCH   2   8
BRANCH   7  18
ATOM     18  C   UNL     1       2.078   5.326  19.076  0.00  0.00    +0.000 A 
ATOM     19  N   UNL     1       1.479   5.761  20.164  0.00  0.00    +0.000 NA
ATOM     20  C   UNL     1       1.655   7.129  20.121  0.00  0.00    +0.000 A 
ATOM     21  N   UNL     1       2.379   7.543  19.068  0.00  0.00    +0.000 NA
ATOM     22  N   UNL     1       2.659   6.391  18.447  0.00  0.00    +0.000 N 
ATOM     23  H   UNL     1       3.144   6.405  17.556  0.00  0.00    +0.000 HD
BRANCH  20  24
ATOM     24  C   UNL     1       1.114   8.015  21.145  0.00  0.00    +0.000 A 
ATOM     25  C   UNL     1       1.977   8.764  21.958  0.00  0.00    +0.000 A 
ATOM     26  C   UNL     1       1.469   9.659  22.901  0.00  0.00    +0.000 A 
ATOM     27  C   UNL     1       0.091   9.806  23.048  0.00  0.00    +0.000 A 
ATOM     28  C   UNL     1      -0.780   9.046  22.268  0.00  0.00    +0.000 A 
ATOM     29  C   UNL     1      -0.270   8.153  21.322  0.00  0.00    +0.000 A 
ENDBRANCH  20  24
ENDBRANCH   7  18
TORSDOF 3
ENDMDL
MODEL 7
REMARK VINA RESULT:      -7.5      1.295      2.195
REMARK  Name = 
REMARK  3 active torsions:
REMARK  status: ('A' for Active; 'I' for Inactive)
REMARK    1  A    between atoms: C_2  and  C_3
REMARK    2  A    between atoms: C_16  and  C_17
REMARK    3  A    between atoms: C_19  and  C_20
REMARK                            x       y       z     vdW  Elec       q    Type
REMARK                         _______ _______ _______ _____ _____    ______ ____
ROOT
ATOM      1  O   UNL     1       4.819   1.787  19.630  0.00  0.00    +0.000 OA
ATOM      2  C   UNL     1       4.307   2.841  19.254  0.00  0.00    +0.000 C 
ATOM      3  N   UNL     1       2.940   3.102  19.418  0.00  0.00    +0.000 N 
ATOM      4  C   UNL     1       2.105   2.113  20.082  0.00  0.00    +0.000 C 
ATOM      5  C   UNL     1       0.872   1.992  19.205  0.00  0.00    +0.000 C 
ATOM      6  C   UNL     1       0.684   3.398  18.658  0.00  0.00    +0.000 C 
ATOM      7  C   UNL     1       2.105   3.990  18.588  0.00  0.00    +0.000 C 
ENDROOT
BRANCH   2   8
ATOM      8  C   UNL     1       5.222   3.847  18.645  0.00  0.00    +0.000 A 
ATOM      9  C   UNL     1       5.670   4.944  19.403  0.00  0.00    +0.000 A 
ATOM     10  C   UNL     1       6.479   5.953  18.843  0.00  0.00    +0.000 A 
ATOM     11  C   UNL     1       6.833   5.790  17.503  0.00  0.00    +0.000 A 
ATOM     12  N   UNL     1       7.587   6.507  16.616  0.00  0.00    +0.000 N 
ATOM     13  N   UNL     1       7.611   5.947  15.402  0.00  0.00    +0.000 NA
ATOM     14  N   UNL     1       6.852   4.861  15.448  0.00  0.00    +0.000 NA
ATOM     15  C   UNL     1       6.371   4.745  16.719  0.00  0.00    +0.000 A 
ATOM     16  C   UNL     1       5.506   3.806  17.280  0.00  0.00    +0.000 A 
ATOM     17  H   UNL     1       8.096   7.373  16.760  0.00  0.00    +0.000 HD
ENDBRANCH   2   8
BRANCH   7  18
ATOM     18  C   UNL     1       2.077   5.380  19.112  0.00  0.00    +0.000 A 
ATOM     19  N   UNL     1       1.691   6.472  18.487  0.00  0.00    +0.000 NA
ATOM     20  C   UNL     1       1.975   7.487  19.377  0.00  0.00    +0.000 A 
ATOM     21  N   UNL     1       2.480   7.051  20.544  0.00  0.00    +0.000 NA
ATOM     22  N   UNL     1       2.504   5.726  20.364  0.00  0.00    +0.000 N 
ATOM     23  H   UNL     1       2.918   5.129  21.073  0.00  0.00    +0.000 HD
BRANCH  20  24
ATOM     24  C   UNL     1       1.722   8.888  19.065  0.00  0.00    +0.000 A 
ATOM     25  C   UNL     1       0.834   9.637  19.850  0.00  0.00    +0.000 A 
ATOM     26  C   UNL     1       0.629  10.995  19.596  0.00  0.00    +0.000 A 
ATOM     27  C   UNL     1       1.302  11.614  18.544  0.00  0.00    +0.000 A 
ATOM     28  C   UNL     1       2.165  10.876  17.735  0.00  0.00    +0.000 A 
ATOM     29  C   UNL     1       2.371   9.518  17.993  0.00  0.00    +0.000 A 
ENDBRANCH  20  24
ENDBRANCH   7  18
TORSDOF 3
ENDMDL
MODEL 8
REMARK VINA RESULT:      -7.5      2.349      4.969
REMARK  Name = 
REMARK  3 active torsions:
REMARK  status: ('A' for Active; 'I' for Inactive)
REMARK    1  A    between atoms: C_2  and  C_3
REMARK    2  A    between atoms: C_16  and  C_17
REMARK    3  A    between atoms: C_19  and  C_20
REMARK                            x       y       z     vdW  Elec       q    Type
REMARK                         _______ _______ _______ _____ _____    ______ ____
ROOT
ATOM      1  O   UNL     1       4.023   3.469  16.161  0.00  0.00    +0.000 OA
ATOM      2  C   UNL     1       3.776   4.255  17.074  0.00  0.00    +0.000 C 
ATOM      3  N   UNL     1       4.245   5.575  17.065  0.00  0.00    +0.000 N 
ATOM      4  C   UNL     1       5.021   6.042  15.926  0.00  0.00    +0.000 C 
ATOM      5  C   UNL     1       6.207   6.768  16.534  0.00  0.00    +0.000 C 
ATOM      6  C   UNL     1       5.637   7.386  17.801  0.00  0.00    +0.000 C 
ATOM      7  C   UNL     1       4.514   6.425  18.240  0.00  0.00    +0.000 C 
ENDROOT
BRANCH   2   8
ATOM      8  C   UNL     1       2.919   3.744  18.181  0.00  0.00    +0.000 A 
ATOM      9  C   UNL     1       1.521   3.687  18.023  0.00  0.00    +0.000 A 
ATOM     10  C   UNL     1       0.672   3.276  19.069  0.00  0.00    +0.000 A 
ATOM     11  C   UNL     1       1.293   2.904  20.261  0.00  0.00    +0.000 A 
ATOM     12  N   UNL     1       0.851   2.449  21.473  0.00  0.00    +0.000 N 
ATOM     13  N   UNL     1       1.853   2.250  22.337  0.00  0.00    +0.000 NA
ATOM     14  N   UNL     1       2.980   2.594  21.728  0.00  0.00    +0.000 NA
ATOM     15  C   UNL     1       2.662   2.992  20.462  0.00  0.00    +0.000 A 
ATOM     16  C   UNL     1       3.469   3.479  19.435  0.00  0.00    +0.000 A 
ATOM     17  H   UNL     1      -0.096   2.264  21.781  0.00  0.00    +0.000 HD
ENDBRANCH   2   8
BRANCH   7  18
ATOM     18  C   UNL     1       3.324   7.221  18.636  0.00  0.00    +0.000 A 
ATOM     19  N   UNL     1       2.815   8.272  18.030  0.00  0.00    +0.000 NA
ATOM     20  C   UNL     1       1.802   8.687  18.870  0.00  0.00    +0.000 A 
ATOM     21  N   UNL     1       1.642   7.900  19.947  0.00  0.00    +0.000 NA
ATOM     22  N   UNL     1       2.587   6.970  19.760  0.00  0.00    +0.000 N 
ATOM     23  H   UNL     1       2.751   6.270  20.476  0.00  0.00    +0.000 HD
BRANCH  20  24
ATOM     24  C   UNL     1       0.984   9.858  18.580  0.00  0.00    +0.000 A 
ATOM     25  C   UNL     1      -0.305   9.706  18.050  0.00  0.00    +0.000 A 
ATOM     26  C   UNL     1      -1.119  10.818  17.824  0.00  0.00    +0.000 A 
ATOM     27  C   UNL     1      -0.647  12.096  18.117  0.00  0.00    +0.000 A 
ATOM     28  C   UNL     1       0.644  12.266  18.617  0.00  0.00    +0.000 A 
ATOM     29  C   UNL     1       1.456  11.152  18.845  0.00  0.00    +0.000 A 
ENDBRANCH  20  24
ENDBRANCH   7  18
TORSDOF 3
ENDMDL
MODEL 9
REMARK VINA RESULT:      -7.5      6.629      9.894
REMARK  Name = 
REMARK  3 active torsions:
REMARK  status: ('A' for Active; 'I' for Inactive)
REMARK    1  A    between atoms: C_2  and  C_3
REMARK    2  A    between atoms: C_16  and  C_17
REMARK    3  A    between atoms: C_19  and  C_20
REMARK                            x       y       z     vdW  Elec       q    Type
REMARK                         _______ _______ _______ _____ _____    ______ ____
ROOT
ATOM      1  O   UNL     1      -0.503  14.424  23.287  0.00  0.00    +0.000 OA
ATOM      2  C   UNL     1      -1.359  13.701  22.780  0.00  0.00    +0.000 C 
ATOM      3  N   UNL     1      -2.673  14.140  22.571  0.00  0.00    +0.000 N 
ATOM      4  C   UNL     1      -3.029  15.504  22.933  0.00  0.00    +0.000 C 
ATOM      5  C   UNL     1      -4.340  15.378  23.685  0.00  0.00    +0.000 C 
ATOM      6  C   UNL     1      -5.032  14.207  23.005  0.00  0.00    +0.000 C 
ATOM      7  C   UNL     1      -3.885  13.303  22.509  0.00  0.00    +0.000 C 
ENDROOT
BRANCH   2   8
ATOM      8  C   UNL     1      -0.921  12.339  22.364  0.00  0.00    +0.000 A 
ATOM      9  C   UNL     1      -1.157  11.234  23.204  0.00  0.00    +0.000 A 
ATOM     10  C   UNL     1      -0.699   9.942  22.879  0.00  0.00    +0.000 A 
ATOM     11  C   UNL     1      -0.021   9.813  21.666  0.00  0.00    +0.000 A 
ATOM     12  N   UNL     1       0.556   8.771  20.995  0.00  0.00    +0.000 N 
ATOM     13  N   UNL     1       1.125   9.158  19.849  0.00  0.00    +0.000 NA
ATOM     14  N   UNL     1       0.964  10.470  19.746  0.00  0.00    +0.000 NA
ATOM     15  C   UNL     1       0.266  10.889  20.840  0.00  0.00    +0.000 A 
ATOM     16  C   UNL     1      -0.131  12.168  21.228  0.00  0.00    +0.000 A 
ATOM     17  H   UNL     1       0.608   7.792  21.255  0.00  0.00    +0.000 HD
ENDBRANCH   2   8
BRANCH   7  18
ATOM     18  C   UNL     1      -4.185  12.856  21.125  0.00  0.00    +0.000 A 
ATOM     19  N   UNL     1      -3.435  12.121  20.332  0.00  0.00    +0.000 NA
ATOM     20  C   UNL     1      -4.126  12.103  19.137  0.00  0.00    +0.000 A 
ATOM     21  N   UNL     1      -5.295  12.764  19.184  0.00  0.00    +0.000 NA
ATOM     22  N   UNL     1      -5.323  13.199  20.449  0.00  0.00    +0.000 N 
ATOM     23  H   UNL     1      -6.076  13.807  20.754  0.00  0.00    +0.000 HD
BRANCH  20  24
ATOM     24  C   UNL     1      -3.622  11.407  17.959  0.00  0.00    +0.000 A 
ATOM     25  C   UNL     1      -2.441  10.655  18.036  0.00  0.00    +0.000 A 
ATOM     26  C   UNL     1      -1.981   9.937  16.930  0.00  0.00    +0.000 A 
ATOM     27  C   UNL     1      -2.693   9.973  15.732  0.00  0.00    +0.000 A 
ATOM     28  C   UNL     1      -3.853  10.741  15.632  0.00  0.00    +0.000 A 
ATOM     29  C   UNL     1      -4.313  11.457  16.740  0.00  0.00    +0.000 A 
ENDBRANCH  20  24
ENDBRANCH   7  18
TORSDOF 3
ENDMDL
