MODEL 1
REMARK VINA RESULT:      -9.1      0.000      0.000
REMARK  Name = 
REMARK  5 active torsions:
REMARK  status: ('A' for Active; 'I' for Inactive)
REMARK    1  A    between atoms: C_5  and  C_6
REMARK    2  A    between atoms: N_8  and  C_9
REMARK    3  A    between atoms: C_9  and  C_10
REMARK    4  A    between atoms: C_10  and  C_11
REMARK    5  A    between atoms: C_10  and  C_17
REMARK                            x       y       z     vdW  Elec       q    Type
REMARK                         _______ _______ _______ _____ _____    ______ ____
ROOT
ATOM      1  C   UNL     1       3.328   6.545  18.536  0.00  0.00    +0.000 C 
ENDROOT
BRANCH   1   2
ATOM      2  C   UNL     1       2.633   5.200  18.512  0.00  0.00    +0.000 A 
ATOM      3  C   UNL     1       1.751   4.793  17.519  0.00  0.00    +0.000 A 
ATOM      4  N   UNL     1       1.114   3.662  17.946  0.00  0.00    +0.000 N 
ATOM      5  C   UNL     1       1.354   3.498  19.288  0.00  0.00    +0.000 A 
ATOM      6  C   UNL     1       0.656   2.777  20.261  0.00  0.00    +0.000 A 
ATOM      7  C   UNL     1       1.232   2.689  21.529  0.00  0.00    +0.000 A 
ATOM      8  C   UNL     1       2.502   3.205  21.770  0.00  0.00    +0.000 A 
ATOM      9  C   UNL     1       3.156   3.968  20.796  0.00  0.00    +0.000 A 
ATOM     10  C   UNL     1       2.514   4.221  19.565  0.00  0.00    +0.000 A 
ATOM     11  H   UNL     1       0.470   3.105  17.402  0.00  0.00    +0.000 HD
ENDBRANCH   1   2
BRANCH   1  12
ATOM     12  C   UNL     1       2.305   7.633  18.787  0.00  0.00    +0.000 A 
ATOM     13  C   UNL     1       1.976   8.585  17.811  0.00  0.00    +0.000 A 
ATOM     14  C   UNL     1       1.253   9.728  18.157  0.00  0.00    +0.000 A 
ATOM     15  C   UNL     1       0.830   9.920  19.471  0.00  0.00    +0.000 A 
ATOM     16  C   UNL     1       1.089   8.950  20.434  0.00  0.00    +0.000 A 
ATOM     17  C   UNL     1       1.816   7.811  20.094  0.00  0.00    +0.000 A 
ENDBRANCH   1  12
BRANCH   1  18
ATOM     18  C   UNL     1       4.200   6.904  17.318  0.00  0.00    +0.000 C 
BRANCH  18  21
ATOM     19  C   UNL     1       6.368   6.041  16.538  0.00  0.00    +0.000 C 
ATOM     20  O   UNL     1       6.939   7.105  16.767  0.00  0.00    +0.000 OA
ATOM     21  N   UNL     1       5.048   5.815  16.860  0.00  0.00    +0.000 N 
ATOM     22  H   UNL     1       4.610   4.990  16.461  0.00  0.00    +0.000 HD
BRANCH  19  27
ATOM     23  O   UNL     1       7.473   5.004  12.388  0.00  0.00    +0.000 OA
ATOM     24  C   UNL     1       7.114   4.774  13.530  0.00  0.00    +0.000 C 
ATOM     25  C   UNL     1       5.842   4.097  13.978  0.00  0.00    +0.000 C 
ATOM     26  C   UNL     1       6.092   3.786  15.452  0.00  0.00    +0.000 C 
ATOM     27  C   UNL     1       7.094   4.845  15.892  0.00  0.00    +0.000 C 
ATOM     28  N   UNL     1       7.805   5.155  14.671  0.00  0.00    +0.000 N 
ATOM     29  H   UNL     1       8.671   5.668  14.611  0.00  0.00    +0.000 HD
ENDBRANCH  19  27
ENDBRANCH  18  21
ENDBRANCH   1  18
TORSDOF 5
ENDMDL
MODEL 2
REMARK VINA RESULT:      -8.9      2.941      7.004
REMARK  Name = 
REMARK  5 active torsions:
REMARK  status: ('A' for Active; 'I' for Inactive)
REMARK    1  A    between atoms: C_5  and  C_6
REMARK    2  A    between atoms: N_8  and  C_9
REMARK    3  A    between atoms: C_9  and  C_10
REMARK    4  A    between atoms: C_10  and  C_11
REMARK    5  A    between atoms: C_10  and  C_17
REMARK                            x       y       z     vdW  Elec       q    Type
REMARK                         _______ _______ _______ _____ _____    ______ ____
ROOT
ATOM      1  C   UNL     1       3.571   6.110  18.973  0.00  0.00    +0.000 C 
ENDROOT
BRANCH   1   2
ATOM      2  C   UNL     1       4.830   5.358  18.598  0.00  0.00    +0.000 A 
ATOM      3  C   UNL     1       5.960   5.274  19.402  0.00  0.00    +0.000 A 
ATOM      4  N   UNL     1       6.984   4.764  18.653  0.00  0.00    +0.000 N 
ATOM      5  C   UNL     1       6.620   4.787  17.330  0.00  0.00    +0.000 A 
ATOM      6  C   UNL     1       7.395   4.763  16.167  0.00  0.00    +0.000 A 
ATOM      7  C   UNL     1       6.721   4.658  14.950  0.00  0.00    +0.000 A 
ATOM      8  C   UNL     1       5.343   4.471  14.915  0.00  0.00    +0.000 A 
ATOM      9  C   UNL     1       4.584   4.553  16.088  0.00  0.00    +0.000 A 
ATOM     10  C   UNL     1       5.226   4.835  17.312  0.00  0.00    +0.000 A 
ATOM     11  H   UNL     1       7.904   4.525  18.996  0.00  0.00    +0.000 HD
ENDBRANCH   1   2
BRANCH   1  12
ATOM     12  C   UNL     1       2.461   5.119  19.256  0.00  0.00    +0.000 A 
ATOM     13  C   UNL     1       2.088   4.773  20.563  0.00  0.00    +0.000 A 
ATOM     14  C   UNL     1       1.271   3.664  20.792  0.00  0.00    +0.000 A 
ATOM     15  C   UNL     1       0.799   2.906  19.722  0.00  0.00    +0.000 A 
ATOM     16  C   UNL     1       1.105   3.279  18.417  0.00  0.00    +0.000 A 
ATOM     17  C   UNL     1       1.925   4.381  18.184  0.00  0.00    +0.000 A 
ENDBRANCH   1  12
BRANCH   1  18
ATOM     18  C   UNL     1       3.083   7.192  17.991  0.00  0.00    +0.000 C 
BRANCH  18  21
ATOM     19  C   UNL     1       1.766   9.259  18.211  0.00  0.00    +0.000 C 
ATOM     20  O   UNL     1       2.531   9.891  17.486  0.00  0.00    +0.000 OA
ATOM     21  N   UNL     1       1.901   7.907  18.444  0.00  0.00    +0.000 N 
ATOM     22  H   UNL     1       1.352   7.512  19.201  0.00  0.00    +0.000 HD
BRANCH  19  27
ATOM     23  O   UNL     1       1.342  12.498  21.185  0.00  0.00    +0.000 OA
ATOM     24  C   UNL     1       1.051  11.445  20.645  0.00  0.00    +0.000 C 
ATOM     25  C   UNL     1       0.991  10.073  21.268  0.00  0.00    +0.000 C 
ATOM     26  C   UNL     1       0.259   9.228  20.228  0.00  0.00    +0.000 C 
ATOM     27  C   UNL     1       0.561   9.921  18.905  0.00  0.00    +0.000 C 
ATOM     28  N   UNL     1       0.766  11.299  19.294  0.00  0.00    +0.000 N 
ATOM     29  H   UNL     1       0.794  12.087  18.665  0.00  0.00    +0.000 HD
ENDBRANCH  19  27
ENDBRANCH  18  21
ENDBRANCH   1  18
TORSDOF 5
ENDMDL
MODEL 3
REMARK VINA RESULT:      -8.6      2.888      6.971
REMARK  Name = 
REMARK  5 active torsions:
REMARK  status: ('A' for Active; 'I' for Inactive)
REMARK    1  A    between atoms: C_5  and  C_6
REMARK    2  A    between atoms: N_8  and  C_9
REMARK    3  A    between atoms: C_9  and  C_10
REMARK    4  A    between atoms: C_10  and  C_11
REMARK    5  A    between atoms: C_10  and  C_17
REMARK                            x       y       z     vdW  Elec       q    Type
REMARK                         _______ _______ _______ _____ _____    ______ ____
ROOT
ATOM      1  C   UNL     1       3.851   5.909  19.020  0.00  0.00    +0.000 C 
ENDROOT
BRANCH   1   2
ATOM      2  C   UNL     1       5.154   5.292  18.557  0.00  0.00    +0.000 A 
ATOM      3  C   UNL     1       6.351   5.374  19.257  0.00  0.00    +0.000 A 
ATOM      4  N   UNL     1       7.359   4.953  18.436  0.00  0.00    +0.000 N 
ATOM      5  C   UNL     1       6.882   4.876  17.152  0.00  0.00    +0.000 A 
ATOM      6  C   UNL     1       7.552   4.891  15.924  0.00  0.00    +0.000 A 
ATOM      7  C   UNL     1       6.793   4.655  14.777  0.00  0.00    +0.000 A 
ATOM      8  C   UNL     1       5.448   4.309  14.874  0.00  0.00    +0.000 A 
ATOM      9  C   UNL     1       4.789   4.354  16.108  0.00  0.00    +0.000 A 
ATOM     10  C   UNL     1       5.496   4.762  17.259  0.00  0.00    +0.000 A 
ATOM     11  H   UNL     1       8.327   4.838  18.701  0.00  0.00    +0.000 HD
ENDBRANCH   1   2
BRANCH   1  12
ATOM     12  C   UNL     1       2.854   4.809  19.318  0.00  0.00    +0.000 A 
ATOM     13  C   UNL     1       2.159   4.138  18.301  0.00  0.00    +0.000 A 
ATOM     14  C   UNL     1       1.056   3.339  18.608  0.00  0.00    +0.000 A 
ATOM     15  C   UNL     1       0.651   3.181  19.933  0.00  0.00    +0.000 A 
ATOM     16  C   UNL     1       1.374   3.785  20.958  0.00  0.00    +0.000 A 
ATOM     17  C   UNL     1       2.471   4.588  20.654  0.00  0.00    +0.000 A 
ENDBRANCH   1  12
BRANCH   1  18
ATOM     18  C   UNL     1       3.215   6.971  18.103  0.00  0.00    +0.000 C 
BRANCH  18  21
ATOM     19  C   UNL     1       1.733   8.915  18.384  0.00  0.00    +0.000 C 
ATOM     20  O   UNL     1       2.338   9.571  17.538  0.00  0.00    +0.000 OA
ATOM     21  N   UNL     1       2.030   7.599  18.665  0.00  0.00    +0.000 N 
ATOM     22  H   UNL     1       1.619   7.202  19.503  0.00  0.00    +0.000 HD
BRANCH  19  27
ATOM     23  O   UNL     1       1.350  12.264  21.239  0.00  0.00    +0.000 OA
ATOM     24  C   UNL     1       1.101  11.161  20.786  0.00  0.00    +0.000 C 
ATOM     25  C   UNL     1       1.248   9.826  21.473  0.00  0.00    +0.000 C 
ATOM     26  C   UNL     1       0.484   8.861  20.569  0.00  0.00    +0.000 C 
ATOM     27  C   UNL     1       0.559   9.503  19.190  0.00  0.00    +0.000 C 
ATOM     28  N   UNL     1       0.675  10.914  19.488  0.00  0.00    +0.000 N 
ATOM     29  H   UNL     1       0.551  11.665  18.826  0.00  0.00    +0.000 HD
ENDBRANCH  19  27
ENDBRANCH  18  21
ENDBRANCH   1  18
TORSDOF 5
ENDMDL
MODEL 4
REMARK VINA RESULT:      -8.6      2.906      6.994
REMARK  Name = 
REMARK  5 active torsions:
REMARK  status: ('A' for Active; 'I' for Inactive)
REMARK    1  A    between atoms: C_5  and  C_6
REMARK    2  A    between atoms: N_8  and  C_9
REMARK    3  A    between atoms: C_9  and  C_10
REMARK    4  A    between atoms: C_10  and  C_11
REMARK    5  A    between atoms: C_10  and  C_17
REMARK                            x       y       z     vdW  Elec       q    Type
REMARK                         _______ _______ _______ _____ _____    ______ ____
ROOT
ATOM      1  C   UNL     1       3.728   5.699  19.123  0.00  0.00    +0.000 C 
ENDROOT
BRANCH   1   2
ATOM      2  C   UNL     1       5.053   5.146  18.641  0.00  0.00    +0.000 A 
ATOM      3  C   UNL     1       6.249   5.259  19.340  0.00  0.00    +0.000 A 
ATOM      4  N   UNL     1       7.270   4.900  18.507  0.00  0.00    +0.000 N 
ATOM      5  C   UNL     1       6.792   4.835  17.222  0.00  0.00    +0.000 A 
ATOM      6  C   UNL     1       7.456   4.907  15.993  0.00  0.00    +0.000 A 
ATOM      7  C   UNL     1       6.703   4.669  14.843  0.00  0.00    +0.000 A 
ATOM      8  C   UNL     1       5.374   4.266  14.935  0.00  0.00    +0.000 A 
ATOM      9  C   UNL     1       4.718   4.254  16.171  0.00  0.00    +0.000 A 
ATOM     10  C   UNL     1       5.412   4.663  17.330  0.00  0.00    +0.000 A 
ATOM     11  H   UNL     1       8.243   4.817  18.766  0.00  0.00    +0.000 HD
ENDBRANCH   1   2
BRANCH   1  12
ATOM     12  C   UNL     1       2.778   4.551  19.399  0.00  0.00    +0.000 A 
ATOM     13  C   UNL     1       2.027   3.946  18.381  0.00  0.00    +0.000 A 
ATOM     14  C   UNL     1       0.966   3.096  18.697  0.00  0.00    +0.000 A 
ATOM     15  C   UNL     1       0.660   2.822  20.030  0.00  0.00    +0.000 A 
ATOM     16  C   UNL     1       1.440   3.361  21.048  0.00  0.00    +0.000 A 
ATOM     17  C   UNL     1       2.496   4.215  20.736  0.00  0.00    +0.000 A 
ENDBRANCH   1  12
BRANCH   1  18
ATOM     18  C   UNL     1       3.046   6.754  18.234  0.00  0.00    +0.000 C 
BRANCH  18  21
ATOM     19  C   UNL     1       1.990   8.974  18.349  0.00  0.00    +0.000 C 
ATOM     20  O   UNL     1       2.013   9.112  17.128  0.00  0.00    +0.000 OA
ATOM     21  N   UNL     1       2.388   7.815  18.980  0.00  0.00    +0.000 N 
ATOM     22  H   UNL     1       2.520   7.858  19.986  0.00  0.00    +0.000 HD
BRANCH  19  27
ATOM     23  O   UNL     1      -0.685   9.016  21.865  0.00  0.00    +0.000 OA
ATOM     24  C   UNL     1      -0.192   9.460  20.843  0.00  0.00    +0.000 C 
ATOM     25  C   UNL     1      -0.901   9.850  19.570  0.00  0.00    +0.000 C 
ATOM     26  C   UNL     1       0.150  10.636  18.790  0.00  0.00    +0.000 C 
ATOM     27  C   UNL     1       1.478  10.082  19.289  0.00  0.00    +0.000 C 
ATOM     28  N   UNL     1       1.168   9.643  20.632  0.00  0.00    +0.000 N 
ATOM     29  H   UNL     1       1.844   9.402  21.341  0.00  0.00    +0.000 HD
ENDBRANCH  19  27
ENDBRANCH  18  21
ENDBRANCH   1  18
TORSDOF 5
ENDMDL
MODEL 5
REMARK VINA RESULT:      -8.5      3.017      7.023
REMARK  Name = 
REMARK  5 active torsions:
REMARK  status: ('A' for Active; 'I' for Inactive)
REMARK    1  A    between atoms: C_5  and  C_6
REMARK    2  A    between atoms: N_8  and  C_9
REMARK    3  A    between atoms: C_9  and  C_10
REMARK    4  A    between atoms: C_10  and  C_11
REMARK    5  A    between atoms: C_10  and  C_17
REMARK                            x       y       z     vdW  Elec       q    Type
REMARK                         _______ _______ _______ _____ _____    ______ ____
ROOT
ATOM      1  C   UNL     1       3.775   5.746  19.182  0.00  0.00    +0.000 C 
ENDROOT
BRANCH   1   2
ATOM      2  C   UNL     1       5.087   5.190  18.669  0.00  0.00    +0.000 A 
ATOM      3  C   UNL     1       6.297   5.292  19.343  0.00  0.00    +0.000 A 
ATOM      4  N   UNL     1       7.299   4.932  18.486  0.00  0.00    +0.000 N 
ATOM      5  C   UNL     1       6.794   4.878  17.211  0.00  0.00    +0.000 A 
ATOM      6  C   UNL     1       7.432   4.954  15.970  0.00  0.00    +0.000 A 
ATOM      7  C   UNL     1       6.654   4.727  14.834  0.00  0.00    +0.000 A 
ATOM      8  C   UNL     1       5.325   4.331  14.951  0.00  0.00    +0.000 A 
ATOM      9  C   UNL     1       4.695   4.315  16.201  0.00  0.00    +0.000 A 
ATOM     10  C   UNL     1       5.416   4.712  17.347  0.00  0.00    +0.000 A 
ATOM     11  H   UNL     1       8.277   4.843  18.725  0.00  0.00    +0.000 HD
ENDBRANCH   1   2
BRANCH   1  12
ATOM     12  C   UNL     1       2.806   4.607  19.416  0.00  0.00    +0.000 A 
ATOM     13  C   UNL     1       2.034   4.061  18.379  0.00  0.00    +0.000 A 
ATOM     14  C   UNL     1       0.959   3.218  18.669  0.00  0.00    +0.000 A 
ATOM     15  C   UNL     1       0.659   2.892  19.990  0.00  0.00    +0.000 A 
ATOM     16  C   UNL     1       1.458   3.371  21.024  0.00  0.00    +0.000 A 
ATOM     17  C   UNL     1       2.528   4.217  20.739  0.00  0.00    +0.000 A 
ENDBRANCH   1  12
BRANCH   1  18
ATOM     18  C   UNL     1       3.108   6.851  18.341  0.00  0.00    +0.000 C 
BRANCH  18  21
ATOM     19  C   UNL     1       1.816   8.930  18.591  0.00  0.00    +0.000 C 
ATOM     20  O   UNL     1       2.028   9.269  17.429  0.00  0.00    +0.000 OA
ATOM     21  N   UNL     1       2.226   7.719  19.104  0.00  0.00    +0.000 N 
ATOM     22  H   UNL     1       2.184   7.606  20.112  0.00  0.00    +0.000 HD
BRANCH  19  27
ATOM     23  O   UNL     1      -2.209  10.750  18.559  0.00  0.00    +0.000 OA
ATOM     24  C   UNL     1      -1.017  10.700  18.810  0.00  0.00    +0.000 C 
ATOM     25  C   UNL     1       0.058  11.664  18.374  0.00  0.00    +0.000 C 
ATOM     26  C   UNL     1       1.257  11.296  19.246  0.00  0.00    +0.000 C 
ATOM     27  C   UNL     1       1.041   9.825  19.576  0.00  0.00    +0.000 C 
ATOM     28  N   UNL     1      -0.398   9.682  19.521  0.00  0.00    +0.000 N 
ATOM     29  H   UNL     1      -0.923   8.897  19.875  0.00  0.00    +0.000 HD
ENDBRANCH  19  27
ENDBRANCH  18  21
ENDBRANCH   1  18
TORSDOF 5
ENDMDL
MODEL 6
REMARK VINA RESULT:      -8.4      1.400      4.234
REMARK  Name = 
REMARK  5 active torsions:
REMARK  status: ('A' for Active; 'I' for Inactive)
REMARK    1  A    between atoms: C_5  and  C_6
REMARK    2  A    between atoms: N_8  and  C_9
REMARK    3  A    between atoms: C_9  and  C_10
REMARK    4  A    between atoms: C_10  and  C_11
REMARK    5  A    between atoms: C_10  and  C_17
REMARK                            x       y       z     vdW  Elec       q    Type
REMARK                         _______ _______ _______ _____ _____    ______ ____
ROOT
ATOM      1  C   UNL     1       2.944   6.108  18.704  0.00  0.00    +0.000 C 
ENDROOT
BRANCH   1   2
ATOM      2  C   UNL     1       2.102   7.366  18.657  0.00  0.00    +0.000 A 
ATOM      3  C   UNL     1       2.032   8.220  17.563  0.00  0.00    +0.000 A 
ATOM      4  N   UNL     1       1.410   9.372  17.955  0.00  0.00    +0.000 N 
ATOM      5  C   UNL     1       1.338   9.392  19.326  0.00  0.00    +0.000 A 
ATOM      6  C   UNL     1       1.177  10.456  20.218  0.00  0.00    +0.000 A 
ATOM      7  C   UNL     1       1.002  10.141  21.566  0.00  0.00    +0.000 A 
ATOM      8  C   UNL     1       0.880   8.816  21.976  0.00  0.00    +0.000 A 
ATOM      9  C   UNL     1       1.098   7.769  21.073  0.00  0.00    +0.000 A 
ATOM     10  C   UNL     1       1.453   8.065  19.739  0.00  0.00    +0.000 A 
ATOM     11  H   UNL     1       1.158  10.142  17.352  0.00  0.00    +0.000 HD
ENDBRANCH   1   2
BRANCH   1  12
ATOM     12  C   UNL     1       2.210   5.044  19.493  0.00  0.00    +0.000 A 
ATOM     13  C   UNL     1       2.491   4.793  20.844  0.00  0.00    +0.000 A 
ATOM     14  C   UNL     1       2.009   3.637  21.461  0.00  0.00    +0.000 A 
ATOM     15  C   UNL     1       1.225   2.734  20.745  0.00  0.00    +0.000 A 
ATOM     16  C   UNL     1       0.881   3.005  19.424  0.00  0.00    +0.000 A 
ATOM     17  C   UNL     1       1.365   4.155  18.803  0.00  0.00    +0.000 A 
ENDBRANCH   1  12
BRANCH   1  18
ATOM     18  C   UNL     1       4.388   6.252  19.218  0.00  0.00    +0.000 C 
BRANCH  18  21
ATOM     19  C   UNL     1       5.916   5.810  17.340  0.00  0.00    +0.000 C 
ATOM     20  O   UNL     1       5.783   6.946  16.889  0.00  0.00    +0.000 OA
ATOM     21  N   UNL     1       5.346   5.404  18.527  0.00  0.00    +0.000 N 
ATOM     22  H   UNL     1       5.343   4.407  18.721  0.00  0.00    +0.000 HD
BRANCH  19  27
ATOM     23  O   UNL     1       7.537   5.411  13.250  0.00  0.00    +0.000 OA
ATOM     24  C   UNL     1       7.059   5.009  14.297  0.00  0.00    +0.000 C 
ATOM     25  C   UNL     1       5.776   4.239  14.490  0.00  0.00    +0.000 C 
ATOM     26  C   UNL     1       5.868   3.728  15.926  0.00  0.00    +0.000 C 
ATOM     27  C   UNL     1       6.764   4.740  16.627  0.00  0.00    +0.000 C 
ATOM     28  N   UNL     1       7.596   5.241  15.555  0.00  0.00    +0.000 N 
ATOM     29  H   UNL     1       8.440   5.782  15.672  0.00  0.00    +0.000 HD
ENDBRANCH  19  27
ENDBRANCH  18  21
ENDBRANCH   1  18
TORSDOF 5
ENDMDL
MODEL 7
REMARK VINA RESULT:      -8.4      1.367      1.956
REMARK  Name = 
REMARK  5 active torsions:
REMARK  status: ('A' for Active; 'I' for Inactive)
REMARK    1  A    between atoms: C_5  and  C_6
REMARK    2  A    between atoms: N_8  and  C_9
REMARK    3  A    between atoms: C_9  and  C_10
REMARK    4  A    between atoms: C_10  and  C_11
REMARK    5  A    between atoms: C_10  and  C_17
REMARK                            x       y       z     vdW  Elec       q    Type
REMARK                         _______ _______ _______ _____ _____    ______ ____
ROOT
ATOM      1  C   UNL     1       2.767   7.099  19.272  0.00  0.00    +0.000 C 
ENDROOT
BRANCH   1   2
ATOM      2  C   UNL     1       2.198   5.751  19.661  0.00  0.00    +0.000 A 
ATOM      3  C   UNL     1       1.913   5.369  20.966  0.00  0.00    +0.000 A 
ATOM      4  N   UNL     1       1.678   4.023  20.979  0.00  0.00    +0.000 N 
ATOM      5  C   UNL     1       2.081   3.491  19.780  0.00  0.00    +0.000 A 
ATOM      6  C   UNL     1       2.427   2.182  19.429  0.00  0.00    +0.000 A 
ATOM      7  C   UNL     1       2.667   1.923  18.078  0.00  0.00    +0.000 A 
ATOM      8  C   UNL     1       2.457   2.908  17.118  0.00  0.00    +0.000 A 
ATOM      9  C   UNL     1       2.165   4.223  17.499  0.00  0.00    +0.000 A 
ATOM     10  C   UNL     1       2.091   4.548  18.870  0.00  0.00    +0.000 A 
ATOM     11  H   UNL     1       1.377   3.483  21.778  0.00  0.00    +0.000 HD
ENDBRANCH   1   2
BRANCH   1  12
ATOM     12  C   UNL     1       1.709   8.165  19.471  0.00  0.00    +0.000 A 
ATOM     13  C   UNL     1       1.298   9.010  18.429  0.00  0.00    +0.000 A 
ATOM     14  C   UNL     1       0.542  10.151  18.704  0.00  0.00    +0.000 A 
ATOM     15  C   UNL     1       0.168  10.447  20.014  0.00  0.00    +0.000 A 
ATOM     16  C   UNL     1       0.510   9.581  21.048  0.00  0.00    +0.000 A 
ATOM     17  C   UNL     1       1.270   8.444  20.779  0.00  0.00    +0.000 A 
ENDBRANCH   1  12
BRANCH   1  18
ATOM     18  C   UNL     1       3.385   7.218  17.867  0.00  0.00    +0.000 C 
BRANCH  18  21
ATOM     19  C   UNL     1       5.223   6.376  16.463  0.00  0.00    +0.000 C 
ATOM     20  O   UNL     1       4.900   7.086  15.513  0.00  0.00    +0.000 OA
ATOM     21  N   UNL     1       4.599   6.437  17.690  0.00  0.00    +0.000 N 
ATOM     22  H   UNL     1       4.796   5.687  18.346  0.00  0.00    +0.000 HD
BRANCH  19  27
ATOM     23  O   UNL     1       8.155   5.352  13.322  0.00  0.00    +0.000 OA
ATOM     24  C   UNL     1       7.407   5.123  14.256  0.00  0.00    +0.000 C 
ATOM     25  C   UNL     1       6.238   4.171  14.291  0.00  0.00    +0.000 C 
ATOM     26  C   UNL     1       5.905   4.052  15.776  0.00  0.00    +0.000 C 
ATOM     27  C   UNL     1       6.384   5.368  16.374  0.00  0.00    +0.000 C 
ATOM     28  N   UNL     1       7.460   5.760  15.489  0.00  0.00    +0.000 N 
ATOM     29  H   UNL     1       8.143   6.477  15.678  0.00  0.00    +0.000 HD
ENDBRANCH  19  27
ENDBRANCH  18  21
ENDBRANCH   1  18
TORSDOF 5
ENDMDL
MODEL 8
REMARK VINA RESULT:      -8.3      2.911      6.037
REMARK  Name = 
REMARK  5 active torsions:
REMARK  status: ('A' for Active; 'I' for Inactive)
REMARK    1  A    between atoms: C_5  and  C_6
REMARK    2  A    between atoms: N_8  and  C_9
REMARK    3  A    between atoms: C_9  and  C_10
REMARK    4  A    between atoms: C_10  and  C_11
REMARK    5  A    between atoms: C_10  and  C_17
REMARK                            x       y       z     vdW  Elec       q    Type
REMARK                         _______ _______ _______ _____ _____    ______ ____
ROOT
ATOM      1  C   UNL     1       3.606   5.478  17.427  0.00  0.00    +0.000 C 
ENDROOT
BRANCH   1   2
ATOM      2  C   UNL     1       3.170   4.111  17.913  0.00  0.00    +0.000 A 
ATOM      3  C   UNL     1       2.752   3.081  17.079  0.00  0.00    +0.000 A 
ATOM      4  N   UNL     1       2.183   2.107  17.851  0.00  0.00    +0.000 N 
ATOM      5  C   UNL     1       1.971   2.607  19.111  0.00  0.00    +0.000 A 
ATOM      6  C   UNL     1       1.096   2.198  20.122  0.00  0.00    +0.000 A 
ATOM      7  C   UNL     1       1.209   2.832  21.361  0.00  0.00    +0.000 A 
ATOM      8  C   UNL     1       2.227   3.750  21.600  0.00  0.00    +0.000 A 
ATOM      9  C   UNL     1       3.054   4.182  20.557  0.00  0.00    +0.000 A 
ATOM     10  C   UNL     1       2.844   3.686  19.253  0.00  0.00    +0.000 A 
ATOM     11  H   UNL     1       1.856   1.210  17.522  0.00  0.00    +0.000 HD
ENDBRANCH   1   2
BRANCH   1  12
ATOM     12  C   UNL     1       4.983   5.371  16.804  0.00  0.00    +0.000 A 
ATOM     13  C   UNL     1       5.180   5.453  15.417  0.00  0.00    +0.000 A 
ATOM     14  C   UNL     1       6.401   5.074  14.856  0.00  0.00    +0.000 A 
ATOM     15  C   UNL     1       7.443   4.634  15.671  0.00  0.00    +0.000 A 
ATOM     16  C   UNL     1       7.283   4.614  17.053  0.00  0.00    +0.000 A 
ATOM     17  C   UNL     1       6.064   4.986  17.617  0.00  0.00    +0.000 A 
ENDBRANCH   1  12
BRANCH   1  18
ATOM     18  C   UNL     1       3.571   6.628  18.450  0.00  0.00    +0.000 C 
BRANCH  18  21
ATOM     19  C   UNL     1       1.937   8.442  18.756  0.00  0.00    +0.000 C 
ATOM     20  O   UNL     1       1.737   8.141  19.930  0.00  0.00    +0.000 OA
ATOM     21  N   UNL     1       2.885   7.818  17.974  0.00  0.00    +0.000 N 
ATOM     22  H   UNL     1       2.847   7.991  16.974  0.00  0.00    +0.000 HD
BRANCH  19  27
ATOM     23  O   UNL     1       2.413  12.830  18.580  0.00  0.00    +0.000 OA
ATOM     24  C   UNL     1       1.789  11.783  18.612  0.00  0.00    +0.000 C 
ATOM     25  C   UNL     1       0.762  11.352  19.628  0.00  0.00    +0.000 C 
ATOM     26  C   UNL     1       0.093  10.141  18.982  0.00  0.00    +0.000 C 
ATOM     27  C   UNL     1       1.160   9.573  18.056  0.00  0.00    +0.000 C 
ATOM     28  N   UNL     1       1.955  10.735  17.718  0.00  0.00    +0.000 N 
ATOM     29  H   UNL     1       2.631  10.785  16.972  0.00  0.00    +0.000 HD
ENDBRANCH  19  27
ENDBRANCH  18  21
ENDBRANCH   1  18
TORSDOF 5
ENDMDL
MODEL 9
REMARK VINA RESULT:      -8.3      1.608      4.520
REMARK  Name = 
REMARK  5 active torsions:
REMARK  status: ('A' for Active; 'I' for Inactive)
REMARK    1  A    between atoms: C_5  and  C_6
REMARK    2  A    between atoms: N_8  and  C_9
REMARK    3  A    between atoms: C_9  and  C_10
REMARK    4  A    between atoms: C_10  and  C_11
REMARK    5  A    between atoms: C_10  and  C_17
REMARK                            x       y       z     vdW  Elec       q    Type
REMARK                         _______ _______ _______ _____ _____    ______ ____
ROOT
ATOM      1  C   UNL     1       2.790   6.459  17.990  0.00  0.00    +0.000 C 
ENDROOT
BRANCH   1   2
ATOM      2  C   UNL     1       2.328   7.250  19.196  0.00  0.00    +0.000 A 
ATOM      3  C   UNL     1       2.113   6.702  20.454  0.00  0.00    +0.000 A 
ATOM      4  N   UNL     1       1.452   7.624  21.217  0.00  0.00    +0.000 N 
ATOM      5  C   UNL     1       0.991   8.626  20.401  0.00  0.00    +0.000 A 
ATOM      6  C   UNL     1      -0.037   9.557  20.584  0.00  0.00    +0.000 A 
ATOM      7  C   UNL     1      -0.180  10.553  19.617  0.00  0.00    +0.000 A 
ATOM      8  C   UNL     1       0.739  10.672  18.579  0.00  0.00    +0.000 A 
ATOM      9  C   UNL     1       1.726   9.697  18.386  0.00  0.00    +0.000 A 
ATOM     10  C   UNL     1       1.779   8.583  19.251  0.00  0.00    +0.000 A 
ATOM     11  H   UNL     1       1.227   7.528  22.197  0.00  0.00    +0.000 HD
ENDBRANCH   1   2
BRANCH   1  12
ATOM     12  C   UNL     1       2.899   4.995  18.363  0.00  0.00    +0.000 A 
ATOM     13  C   UNL     1       3.965   4.499  19.128  0.00  0.00    +0.000 A 
ATOM     14  C   UNL     1       4.189   3.124  19.217  0.00  0.00    +0.000 A 
ATOM     15  C   UNL     1       3.340   2.230  18.566  0.00  0.00    +0.000 A 
ATOM     16  C   UNL     1       2.238   2.706  17.861  0.00  0.00    +0.000 A 
ATOM     17  C   UNL     1       2.014   4.078  17.765  0.00  0.00    +0.000 A 
ENDBRANCH   1  12
BRANCH   1  18
ATOM     18  C   UNL     1       4.083   6.930  17.298  0.00  0.00    +0.000 C 
BRANCH  18  21
ATOM     19  C   UNL     1       6.272   6.092  16.550  0.00  0.00    +0.000 C 
ATOM     20  O   UNL     1       6.815   7.179  16.732  0.00  0.00    +0.000 OA
ATOM     21  N   UNL     1       4.958   5.845  16.885  0.00  0.00    +0.000 N 
ATOM     22  H   UNL     1       4.541   4.993  16.523  0.00  0.00    +0.000 HD
BRANCH  19  27
ATOM     23  O   UNL     1       7.506   4.969  12.459  0.00  0.00    +0.000 OA
ATOM     24  C   UNL     1       7.116   4.762  13.595  0.00  0.00    +0.000 C 
ATOM     25  C   UNL     1       5.839   4.082  14.023  0.00  0.00    +0.000 C 
ATOM     26  C   UNL     1       6.048   3.809  15.511  0.00  0.00    +0.000 C 
ATOM     27  C   UNL     1       7.027   4.888  15.954  0.00  0.00    +0.000 C 
ATOM     28  N   UNL     1       7.770   5.176  14.747  0.00  0.00    +0.000 N 
ATOM     29  H   UNL     1       8.633   5.697  14.699  0.00  0.00    +0.000 HD
ENDBRANCH  19  27
ENDBRANCH  18  21
ENDBRANCH   1  18
TORSDOF 5
ENDMDL
