MODEL 1
REMARK VINA RESULT:      -8.2      0.000      0.000
REMARK  Name = 
REMARK  9 active torsions:
REMARK  status: ('A' for Active; 'I' for Inactive)
REMARK    1  A    between atoms: C_1  and  C_2
REMARK    2  A    between atoms: C_5  and  C_6
REMARK    3  A    between atoms: C_7  and  C_8
REMARK    4  A    between atoms: C_8  and  C_9
REMARK    5  A    between atoms: C_8  and  C_10
REMARK    6  A    between atoms: C_10  and  C_11
REMARK    7  A    between atoms: N_13  and  C_14
REMARK    8  A    between atoms: C_14  and  C_15
REMARK    9  A    between atoms: C_15  and  C_16
REMARK                            x       y       z     vdW  Elec       q    Type
REMARK                         _______ _______ _______ _____ _____    ______ ____
ROOT
ATOM      1  C   UNL     1       2.578   4.950  18.003  0.00  0.00    +0.000 C 
ATOM      2  O   UNL     1       1.708   4.609  18.800  0.00  0.00    +0.000 OA
ATOM      3  N   UNL     1       3.037   6.239  17.901  0.00  0.00    +0.000 N 
ATOM      4  H   UNL     1       3.790   6.457  17.260  0.00  0.00    +0.000 HD
ENDROOT
BRANCH   1   5
ATOM      5  C   UNL     1       3.198   3.964  17.033  0.00  0.00    +0.000 C 
BRANCH   5   6
ATOM      6  C   UNL     1       4.611   3.476  17.405  0.00  0.00    +0.000 C 
ATOM      7  C   UNL     1       4.645   3.148  18.903  0.00  0.00    +0.000 C 
BRANCH   6  14
ATOM      8  C   UNL     1       6.464   5.542  19.186  0.00  0.00    +0.000 C 
ATOM      9  C   UNL     1       6.527   5.271  17.725  0.00  0.00    +0.000 A 
ATOM     10  N   UNL     1       7.490   5.860  17.013  0.00  0.00    +0.000 NA
ATOM     11  N   UNL     1       7.285   5.442  15.765  0.00  0.00    +0.000 N 
ATOM     12  C   UNL     1       6.267   4.539  15.645  0.00  0.00    +0.000 A 
ATOM     13  C   UNL     1       5.954   3.952  14.318  0.00  0.00    +0.000 C 
ATOM     14  C   UNL     1       5.734   4.380  16.921  0.00  0.00    +0.000 A 
ATOM     15  H   UNL     1       7.893   5.799  15.035  0.00  0.00    +0.000 HD
ENDBRANCH   6  14
ENDBRANCH   5   6
ENDBRANCH   1   5
BRANCH   3  16
ATOM     16  C   UNL     1       2.589   7.278  18.800  0.00  0.00    +0.000 C 
BRANCH  16  17
ATOM     17  C   UNL     1       1.985   8.461  18.044  0.00  0.00    +0.000 C 
BRANCH  17  18
ATOM     18  C   UNL     1       1.299   9.406  18.995  0.00  0.00    +0.000 A 
ATOM     19  C   UNL     1       0.952  10.695  18.575  0.00  0.00    +0.000 A 
ATOM     20  C   UNL     1       0.247  11.546  19.426  0.00  0.00    +0.000 A 
ATOM     21  C   UNL     1      -0.127  11.129  20.710  0.00  0.00    +0.000 A 
ATOM     22  C   UNL     1      -0.852  11.970  21.570  0.00  0.00    +0.000 A 
ATOM     23  C   UNL     1      -1.224  11.539  22.842  0.00  0.00    +0.000 A 
ATOM     24  C   UNL     1      -0.877  10.261  23.274  0.00  0.00    +0.000 A 
ATOM     25  C   UNL     1      -0.156   9.413  22.432  0.00  0.00    +0.000 A 
ATOM     26  C   UNL     1       0.224   9.831  21.147  0.00  0.00    +0.000 A 
ATOM     27  C   UNL     1       0.936   8.984  20.281  0.00  0.00    +0.000 A 
ENDBRANCH  17  18
ENDBRANCH  16  17
ENDBRANCH   3  16
TORSDOF 6
ENDMDL
MODEL 2
REMARK VINA RESULT:      -8.1      5.713      8.241
REMARK  Name = 
REMARK  9 active torsions:
REMARK  status: ('A' for Active; 'I' for Inactive)
REMARK    1  A    between atoms: C_1  and  C_2
REMARK    2  A    between atoms: C_5  and  C_6
REMARK    3  A    between atoms: C_7  and  C_8
REMARK    4  A    between atoms: C_8  and  C_9
REMARK    5  A    between atoms: C_8  and  C_10
REMARK    6  A    between atoms: C_10  and  C_11
REMARK    7  A    between atoms: N_13  and  C_14
REMARK    8  A    between atoms: C_14  and  C_15
REMARK    9  A    between atoms: C_15  and  C_16
REMARK                            x       y       z     vdW  Elec       q    Type
REMARK                         _______ _______ _______ _____ _____    ______ ____
ROOT
ATOM      1  C   UNL     1       6.688   7.030  16.872  0.00  0.00    +0.000 C 
ATOM      2  O   UNL     1       7.607   6.319  16.475  0.00  0.00    +0.000 OA
ATOM      3  N   UNL     1       6.885   8.269  17.431  0.00  0.00    +0.000 N 
ATOM      4  H   UNL     1       6.089   8.834  17.697  0.00  0.00    +0.000 HD
ENDROOT
BRANCH   1   5
ATOM      5  C   UNL     1       5.243   6.574  16.805  0.00  0.00    +0.000 C 
BRANCH   5   6
ATOM      6  C   UNL     1       4.962   5.191  17.424  0.00  0.00    +0.000 C 
ATOM      7  C   UNL     1       4.731   4.179  16.295  0.00  0.00    +0.000 C 
BRANCH   6  14
ATOM      8  C   UNL     1       4.417   2.906  19.737  0.00  0.00    +0.000 C 
ATOM      9  C   UNL     1       3.687   4.181  19.509  0.00  0.00    +0.000 A 
ATOM     10  N   UNL     1       2.728   4.524  20.371  0.00  0.00    +0.000 NA
ATOM     11  N   UNL     1       2.261   5.682  19.906  0.00  0.00    +0.000 N 
ATOM     12  C   UNL     1       2.931   6.150  18.812  0.00  0.00    +0.000 A 
ATOM     13  C   UNL     1       2.549   7.454  18.214  0.00  0.00    +0.000 C 
ATOM     14  C   UNL     1       3.898   5.195  18.511  0.00  0.00    +0.000 A 
ATOM     15  H   UNL     1       1.487   6.118  20.398  0.00  0.00    +0.000 HD
ENDBRANCH   6  14
ENDBRANCH   5   6
ENDBRANCH   1   5
BRANCH   3  16
ATOM     16  C   UNL     1       8.198   8.867  17.506  0.00  0.00    +0.000 C 
BRANCH  16  17
ATOM     17  C   UNL     1       8.676   9.009  18.950  0.00  0.00    +0.000 C 
BRANCH  17  18
ATOM     18  C   UNL     1       9.395  10.318  19.147  0.00  0.00    +0.000 A 
ATOM     19  C   UNL     1       9.608  10.813  20.439  0.00  0.00    +0.000 A 
ATOM     20  C   UNL     1      10.341  11.985  20.629  0.00  0.00    +0.000 A 
ATOM     21  C   UNL     1      10.877  12.682  19.539  0.00  0.00    +0.000 A 
ATOM     22  C   UNL     1      11.631  13.853  19.720  0.00  0.00    +0.000 A 
ATOM     23  C   UNL     1      12.165  14.533  18.625  0.00  0.00    +0.000 A 
ATOM     24  C   UNL     1      11.951  14.054  17.336  0.00  0.00    +0.000 A 
ATOM     25  C   UNL     1      11.203  12.892  17.139  0.00  0.00    +0.000 A 
ATOM     26  C   UNL     1      10.662  12.194  18.230  0.00  0.00    +0.000 A 
ATOM     27  C   UNL     1       9.920  11.015  18.051  0.00  0.00    +0.000 A 
ENDBRANCH  17  18
ENDBRANCH  16  17
ENDBRANCH   3  16
TORSDOF 6
ENDMDL
MODEL 3
REMARK VINA RESULT:      -8.1      4.068      9.225
REMARK  Name = 
REMARK  9 active torsions:
REMARK  status: ('A' for Active; 'I' for Inactive)
REMARK    1  A    between atoms: C_1  and  C_2
REMARK    2  A    between atoms: C_5  and  C_6
REMARK    3  A    between atoms: C_7  and  C_8
REMARK    4  A    between atoms: C_8  and  C_9
REMARK    5  A    between atoms: C_8  and  C_10
REMARK    6  A    between atoms: C_10  and  C_11
REMARK    7  A    between atoms: N_13  and  C_14
REMARK    8  A    between atoms: C_14  and  C_15
REMARK    9  A    between atoms: C_15  and  C_16
REMARK                            x       y       z     vdW  Elec       q    Type
REMARK                         _______ _______ _______ _____ _____    ______ ____
ROOT
ATOM      1  C   UNL     1      -0.284  10.033  18.604  0.00  0.00    +0.000 C 
ATOM      2  O   UNL     1      -0.205   9.996  19.830  0.00  0.00    +0.000 OA
ATOM      3  N   UNL     1       0.800   9.876  17.777  0.00  0.00    +0.000 N 
ATOM      4  H   UNL     1       0.671   9.867  16.773  0.00  0.00    +0.000 HD
ENDROOT
BRANCH   1   5
ATOM      5  C   UNL     1      -1.602  10.292  17.900  0.00  0.00    +0.000 C 
BRANCH   5   6
ATOM      6  C   UNL     1      -2.079  11.756  17.916  0.00  0.00    +0.000 C 
ATOM      7  C   UNL     1      -0.855  12.676  18.009  0.00  0.00    +0.000 C 
BRANCH   6  14
ATOM      8  C   UNL     1      -5.339  11.522  17.485  0.00  0.00    +0.000 C 
ATOM      9  C   UNL     1      -4.596  11.934  18.706  0.00  0.00    +0.000 A 
ATOM     10  N   UNL     1      -5.293  12.177  19.818  0.00  0.00    +0.000 NA
ATOM     11  N   UNL     1      -4.373  12.527  20.717  0.00  0.00    +0.000 N 
ATOM     12  C   UNL     1      -3.090  12.448  20.255  0.00  0.00    +0.000 A 
ATOM     13  C   UNL     1      -1.959  12.766  21.162  0.00  0.00    +0.000 C 
ATOM     14  C   UNL     1      -3.179  12.048  18.925  0.00  0.00    +0.000 A 
ATOM     15  H   UNL     1      -4.688  12.794  21.644  0.00  0.00    +0.000 HD
ENDBRANCH   6  14
ENDBRANCH   5   6
ENDBRANCH   1   5
BRANCH   3  16
ATOM     16  C   UNL     1       2.110   9.560  18.297  0.00  0.00    +0.000 C 
BRANCH  16  17
ATOM     17  C   UNL     1       2.689   8.301  17.652  0.00  0.00    +0.000 C 
BRANCH  17  18
ATOM     18  C   UNL     1       2.395   7.088  18.494  0.00  0.00    +0.000 A 
ATOM     19  C   UNL     1       2.166   7.226  19.867  0.00  0.00    +0.000 A 
ATOM     20  C   UNL     1       1.817   6.115  20.637  0.00  0.00    +0.000 A 
ATOM     21  C   UNL     1       1.687   4.849  20.052  0.00  0.00    +0.000 A 
ATOM     22  C   UNL     1       1.319   3.727  20.814  0.00  0.00    +0.000 A 
ATOM     23  C   UNL     1       1.187   2.474  20.217  0.00  0.00    +0.000 A 
ATOM     24  C   UNL     1       1.421   2.323  18.853  0.00  0.00    +0.000 A 
ATOM     25  C   UNL     1       1.788   3.428  18.082  0.00  0.00    +0.000 A 
ATOM     26  C   UNL     1       1.923   4.698  18.667  0.00  0.00    +0.000 A 
ATOM     27  C   UNL     1       2.276   5.822  17.903  0.00  0.00    +0.000 A 
ENDBRANCH  17  18
ENDBRANCH  16  17
ENDBRANCH   3  16
TORSDOF 6
ENDMDL
MODEL 4
REMARK VINA RESULT:      -8.1      6.184      8.918
REMARK  Name = 
REMARK  9 active torsions:
REMARK  status: ('A' for Active; 'I' for Inactive)
REMARK    1  A    between atoms: C_1  and  C_2
REMARK    2  A    between atoms: C_5  and  C_6
REMARK    3  A    between atoms: C_7  and  C_8
REMARK    4  A    between atoms: C_8  and  C_9
REMARK    5  A    between atoms: C_8  and  C_10
REMARK    6  A    between atoms: C_10  and  C_11
REMARK    7  A    between atoms: N_13  and  C_14
REMARK    8  A    between atoms: C_14  and  C_15
REMARK    9  A    between atoms: C_15  and  C_16
REMARK                            x       y       z     vdW  Elec       q    Type
REMARK                         _______ _______ _______ _____ _____    ______ ____
ROOT
ATOM      1  C   UNL     1       9.020  10.248  18.640  0.00  0.00    +0.000 C 
ATOM      2  O   UNL     1       8.499  10.962  17.786  0.00  0.00    +0.000 OA
ATOM      3  N   UNL     1       8.738   8.912  18.775  0.00  0.00    +0.000 N 
ATOM      4  H   UNL     1       9.232   8.359  19.465  0.00  0.00    +0.000 HD
ENDROOT
BRANCH   1   5
ATOM      5  C   UNL     1      10.006  10.806  19.648  0.00  0.00    +0.000 C 
BRANCH   5   6
ATOM      6  C   UNL     1      11.025  11.812  19.082  0.00  0.00    +0.000 C 
ATOM      7  C   UNL     1      12.333  11.694  19.873  0.00  0.00    +0.000 C 
BRANCH   6  14
ATOM      8  C   UNL     1      11.231  13.791  16.452  0.00  0.00    +0.000 C 
ATOM      9  C   UNL     1      10.596  14.067  17.768  0.00  0.00    +0.000 A 
ATOM     10  N   UNL     1       9.948  15.223  17.927  0.00  0.00    +0.000 NA
ATOM     11  N   UNL     1       9.508  15.188  19.184  0.00  0.00    +0.000 N 
ATOM     12  C   UNL     1       9.778  14.015  19.832  0.00  0.00    +0.000 A 
ATOM     13  C   UNL     1       9.305  13.817  21.225  0.00  0.00    +0.000 C 
ATOM     14  C   UNL     1      10.491  13.229  18.932  0.00  0.00    +0.000 A 
ATOM     15  H   UNL     1       9.006  15.996  19.538  0.00  0.00    +0.000 HD
ENDBRANCH   6  14
ENDBRANCH   5   6
ENDBRANCH   1   5
BRANCH   3  16
ATOM     16  C   UNL     1       7.868   8.223  17.850  0.00  0.00    +0.000 C 
BRANCH  16  17
ATOM     17  C   UNL     1       7.807   6.723  18.136  0.00  0.00    +0.000 C 
BRANCH  17  18
ATOM     18  C   UNL     1       6.385   6.229  18.092  0.00  0.00    +0.000 A 
ATOM     19  C   UNL     1       5.445   6.868  17.275  0.00  0.00    +0.000 A 
ATOM     20  C   UNL     1       4.148   6.367  17.171  0.00  0.00    +0.000 A 
ATOM     21  C   UNL     1       3.763   5.219  17.876  0.00  0.00    +0.000 A 
ATOM     22  C   UNL     1       2.465   4.695  17.766  0.00  0.00    +0.000 A 
ATOM     23  C   UNL     1       2.098   3.547  18.467  0.00  0.00    +0.000 A 
ATOM     24  C   UNL     1       3.022   2.907  19.290  0.00  0.00    +0.000 A 
ATOM     25  C   UNL     1       4.317   3.416  19.410  0.00  0.00    +0.000 A 
ATOM     26  C   UNL     1       4.703   4.569  18.709  0.00  0.00    +0.000 A 
ATOM     27  C   UNL     1       6.005   5.085  18.807  0.00  0.00    +0.000 A 
ENDBRANCH  17  18
ENDBRANCH  16  17
ENDBRANCH   3  16
TORSDOF 6
ENDMDL
MODEL 5
REMARK VINA RESULT:      -7.9      1.244      2.163
REMARK  Name = 
REMARK  9 active torsions:
REMARK  status: ('A' for Active; 'I' for Inactive)
REMARK    1  A    between atoms: C_1  and  C_2
REMARK    2  A    between atoms: C_5  and  C_6
REMARK    3  A    between atoms: C_7  and  C_8
REMARK    4  A    between atoms: C_8  and  C_9
REMARK    5  A    between atoms: C_8  and  C_10
REMARK    6  A    between atoms: C_10  and  C_11
REMARK    7  A    between atoms: N_13  and  C_14
REMARK    8  A    between atoms: C_14  and  C_15
REMARK    9  A    between atoms: C_15  and  C_16
REMARK                            x       y       z     vdW  Elec       q    Type
REMARK                         _______ _______ _______ _____ _____    ______ ____
ROOT
ATOM      1  C   UNL     1       1.884   5.178  18.539  0.00  0.00    +0.000 C 
ATOM      2  O   UNL     1       1.677   5.017  19.739  0.00  0.00    +0.000 OA
ATOM      3  N   UNL     1       2.334   6.360  18.006  0.00  0.00    +0.000 N 
ATOM      4  H   UNL     1       2.534   6.423  17.016  0.00  0.00    +0.000 HD
ENDROOT
BRANCH   1   5
ATOM      5  C   UNL     1       1.622   4.074  17.533  0.00  0.00    +0.000 C 
BRANCH   5   6
ATOM      6  C   UNL     1       2.754   3.039  17.385  0.00  0.00    +0.000 C 
ATOM      7  C   UNL     1       2.350   1.753  18.117  0.00  0.00    +0.000 C 
BRANCH   6  14
ATOM      8  C   UNL     1       4.295   2.933  20.298  0.00  0.00    +0.000 C 
ATOM      9  C   UNL     1       4.784   3.505  19.015  0.00  0.00    +0.000 A 
ATOM     10  N   UNL     1       6.030   3.980  18.969  0.00  0.00    +0.000 NA
ATOM     11  N   UNL     1       6.170   4.425  17.720  0.00  0.00    +0.000 N 
ATOM     12  C   UNL     1       5.086   4.188  16.924  0.00  0.00    +0.000 A 
ATOM     13  C   UNL     1       5.119   4.588  15.495  0.00  0.00    +0.000 C 
ATOM     14  C   UNL     1       4.137   3.568  17.732  0.00  0.00    +0.000 A 
ATOM     15  H   UNL     1       7.047   4.867  17.466  0.00  0.00    +0.000 HD
ENDBRANCH   6  14
ENDBRANCH   5   6
ENDBRANCH   1   5
BRANCH   3  16
ATOM     16  C   UNL     1       2.689   7.483  18.844  0.00  0.00    +0.000 C 
BRANCH  16  17
ATOM     17  C   UNL     1       1.862   8.724  18.511  0.00  0.00    +0.000 C 
BRANCH  17  18
ATOM     18  C   UNL     1       1.064   9.170  19.708  0.00  0.00    +0.000 A 
ATOM     19  C   UNL     1       1.250   8.547  20.947  0.00  0.00    +0.000 A 
ATOM     20  C   UNL     1       0.571   9.008  22.075  0.00  0.00    +0.000 A 
ATOM     21  C   UNL     1      -0.304  10.099  21.990  0.00  0.00    +0.000 A 
ATOM     22  C   UNL     1      -0.980  10.583  23.122  0.00  0.00    +0.000 A 
ATOM     23  C   UNL     1      -1.842  11.674  23.024  0.00  0.00    +0.000 A 
ATOM     24  C   UNL     1      -2.042  12.296  21.795  0.00  0.00    +0.000 A 
ATOM     25  C   UNL     1      -1.378  11.827  20.660  0.00  0.00    +0.000 A 
ATOM     26  C   UNL     1      -0.504  10.731  20.742  0.00  0.00    +0.000 A 
ATOM     27  C   UNL     1       0.184  10.256  19.613  0.00  0.00    +0.000 A 
ENDBRANCH  17  18
ENDBRANCH  16  17
ENDBRANCH   3  16
TORSDOF 6
ENDMDL
MODEL 6
REMARK VINA RESULT:      -7.9      2.048      3.563
REMARK  Name = 
REMARK  9 active torsions:
REMARK  status: ('A' for Active; 'I' for Inactive)
REMARK    1  A    between atoms: C_1  and  C_2
REMARK    2  A    between atoms: C_5  and  C_6
REMARK    3  A    between atoms: C_7  and  C_8
REMARK    4  A    between atoms: C_8  and  C_9
REMARK    5  A    between atoms: C_8  and  C_10
REMARK    6  A    between atoms: C_10  and  C_11
REMARK    7  A    between atoms: N_13  and  C_14
REMARK    8  A    between atoms: C_14  and  C_15
REMARK    9  A    between atoms: C_15  and  C_16
REMARK                            x       y       z     vdW  Elec       q    Type
REMARK                         _______ _______ _______ _____ _____    ______ ____
ROOT
ATOM      1  C   UNL     1       2.028   7.251  19.954  0.00  0.00    +0.000 C 
ATOM      2  O   UNL     1       2.182   8.036  19.022  0.00  0.00    +0.000 OA
ATOM      3  N   UNL     1       1.671   7.648  21.218  0.00  0.00    +0.000 N 
ATOM      4  H   UNL     1       1.510   6.954  21.938  0.00  0.00    +0.000 HD
ENDROOT
BRANCH   1   5
ATOM      5  C   UNL     1       2.257   5.761  19.784  0.00  0.00    +0.000 C 
BRANCH   5   6
ATOM      6  C   UNL     1       2.642   5.314  18.361  0.00  0.00    +0.000 C 
ATOM      7  C   UNL     1       1.588   4.327  17.847  0.00  0.00    +0.000 C 
BRANCH   6  14
ATOM      8  C   UNL     1       5.035   6.643  16.523  0.00  0.00    +0.000 C 
ATOM      9  C   UNL     1       5.106   5.450  17.409  0.00  0.00    +0.000 A 
ATOM     10  N   UNL     1       6.288   4.852  17.571  0.00  0.00    +0.000 NA
ATOM     11  N   UNL     1       6.035   3.833  18.391  0.00  0.00    +0.000 N 
ATOM     12  C   UNL     1       4.743   3.786  18.834  0.00  0.00    +0.000 A 
ATOM     13  C   UNL     1       4.329   2.730  19.790  0.00  0.00    +0.000 C 
ATOM     14  C   UNL     1       4.083   4.846  18.220  0.00  0.00    +0.000 A 
ATOM     15  H   UNL     1       6.799   3.209  18.629  0.00  0.00    +0.000 HD
ENDBRANCH   6  14
ENDBRANCH   5   6
ENDBRANCH   1   5
BRANCH   3  16
ATOM     16  C   UNL     1       1.357   9.025  21.520  0.00  0.00    +0.000 C 
BRANCH  16  17
ATOM     17  C   UNL     1       0.101   9.146  22.382  0.00  0.00    +0.000 C 
BRANCH  17  18
ATOM     18  C   UNL     1      -0.436  10.552  22.348  0.00  0.00    +0.000 A 
ATOM     19  C   UNL     1       0.114  11.492  21.469  0.00  0.00    +0.000 A 
ATOM     20  C   UNL     1      -0.432  12.773  21.378  0.00  0.00    +0.000 A 
ATOM     21  C   UNL     1      -1.536  13.140  22.158  0.00  0.00    +0.000 A 
ATOM     22  C   UNL     1      -2.104  14.421  22.062  0.00  0.00    +0.000 A 
ATOM     23  C   UNL     1      -3.208  14.770  22.840  0.00  0.00    +0.000 A 
ATOM     24  C   UNL     1      -3.758  13.846  23.724  0.00  0.00    +0.000 A 
ATOM     25  C   UNL     1      -3.204  12.569  23.831  0.00  0.00    +0.000 A 
ATOM     26  C   UNL     1      -2.095  12.200  23.054  0.00  0.00    +0.000 A 
ATOM     27  C   UNL     1      -1.535  10.915  23.138  0.00  0.00    +0.000 A 
ENDBRANCH  17  18
ENDBRANCH  16  17
ENDBRANCH   3  16
TORSDOF 6
ENDMDL
MODEL 7
REMARK VINA RESULT:      -7.9      3.054      4.457
REMARK  Name = 
REMARK  9 active torsions:
REMARK  status: ('A' for Active; 'I' for Inactive)
REMARK    1  A    between atoms: C_1  and  C_2
REMARK    2  A    between atoms: C_5  and  C_6
REMARK    3  A    between atoms: C_7  and  C_8
REMARK    4  A    between atoms: C_8  and  C_9
REMARK    5  A    between atoms: C_8  and  C_10
REMARK    6  A    between atoms: C_10  and  C_11
REMARK    7  A    between atoms: N_13  and  C_14
REMARK    8  A    between atoms: C_14  and  C_15
REMARK    9  A    between atoms: C_15  and  C_16
REMARK                            x       y       z     vdW  Elec       q    Type
REMARK                         _______ _______ _______ _____ _____    ______ ____
ROOT
ATOM      1  C   UNL     1       2.214   7.580  18.889  0.00  0.00    +0.000 C 
ATOM      2  O   UNL     1       2.836   7.859  17.868  0.00  0.00    +0.000 OA
ATOM      3  N   UNL     1       1.617   8.524  19.687  0.00  0.00    +0.000 N 
ATOM      4  H   UNL     1       1.076   8.235  20.492  0.00  0.00    +0.000 HD
ENDROOT
BRANCH   1   5
ATOM      5  C   UNL     1       2.083   6.148  19.373  0.00  0.00    +0.000 C 
BRANCH   5   6
ATOM      6  C   UNL     1       2.610   5.076  18.401  0.00  0.00    +0.000 C 
ATOM      7  C   UNL     1       1.427   4.481  17.627  0.00  0.00    +0.000 C 
BRANCH   6  14
ATOM      8  C   UNL     1       1.894   2.862  20.737  0.00  0.00    +0.000 C 
ATOM      9  C   UNL     1       3.195   3.098  20.057  0.00  0.00    +0.000 A 
ATOM     10  N   UNL     1       4.214   2.285  20.341  0.00  0.00    +0.000 NA
ATOM     11  N   UNL     1       5.223   2.745  19.601  0.00  0.00    +0.000 N 
ATOM     12  C   UNL     1       4.881   3.784  18.784  0.00  0.00    +0.000 A 
ATOM     13  C   UNL     1       5.894   4.368  17.870  0.00  0.00    +0.000 C 
ATOM     14  C   UNL     1       3.539   4.054  19.038  0.00  0.00    +0.000 A 
ATOM     15  H   UNL     1       6.125   2.288  19.686  0.00  0.00    +0.000 HD
ENDBRANCH   6  14
ENDBRANCH   5   6
ENDBRANCH   1   5
BRANCH   3  16
ATOM     16  C   UNL     1       1.601   9.922  19.324  0.00  0.00    +0.000 C 
BRANCH  16  17
ATOM     17  C   UNL     1       0.627  10.722  20.189  0.00  0.00    +0.000 C 
BRANCH  17  18
ATOM     18  C   UNL     1      -0.682  10.922  19.473  0.00  0.00    +0.000 A 
ATOM     19  C   UNL     1      -1.657  11.767  20.015  0.00  0.00    +0.000 A 
ATOM     20  C   UNL     1      -2.839  12.016  19.317  0.00  0.00    +0.000 A 
ATOM     21  C   UNL     1      -3.069  11.431  18.065  0.00  0.00    +0.000 A 
ATOM     22  C   UNL     1      -4.248  11.688  17.345  0.00  0.00    +0.000 A 
ATOM     23  C   UNL     1      -4.461  11.105  16.096  0.00  0.00    +0.000 A 
ATOM     24  C   UNL     1      -3.501  10.256  15.551  0.00  0.00    +0.000 A 
ATOM     25  C   UNL     1      -2.325   9.990  16.254  0.00  0.00    +0.000 A 
ATOM     26  C   UNL     1      -2.094  10.571  17.511  0.00  0.00    +0.000 A 
ATOM     27  C   UNL     1      -0.909  10.327  18.225  0.00  0.00    +0.000 A 
ENDBRANCH  17  18
ENDBRANCH  16  17
ENDBRANCH   3  16
TORSDOF 6
ENDMDL
MODEL 8
REMARK VINA RESULT:      -7.9      5.835      8.503
REMARK  Name = 
REMARK  9 active torsions:
REMARK  status: ('A' for Active; 'I' for Inactive)
REMARK    1  A    between atoms: C_1  and  C_2
REMARK    2  A    between atoms: C_5  and  C_6
REMARK    3  A    between atoms: C_7  and  C_8
REMARK    4  A    between atoms: C_8  and  C_9
REMARK    5  A    between atoms: C_8  and  C_10
REMARK    6  A    between atoms: C_10  and  C_11
REMARK    7  A    between atoms: N_13  and  C_14
REMARK    8  A    between atoms: C_14  and  C_15
REMARK    9  A    between atoms: C_15  and  C_16
REMARK                            x       y       z     vdW  Elec       q    Type
REMARK                         _______ _______ _______ _____ _____    ______ ____
ROOT
ATOM      1  C   UNL     1       8.524   9.516  18.274  0.00  0.00    +0.000 C 
ATOM      2  O   UNL     1       9.191   9.081  19.209  0.00  0.00    +0.000 OA
ATOM      3  N   UNL     1       7.737   8.721  17.479  0.00  0.00    +0.000 N 
ATOM      4  H   UNL     1       7.170   9.139  16.752  0.00  0.00    +0.000 HD
ENDROOT
BRANCH   1   5
ATOM      5  C   UNL     1       8.545  10.986  17.900  0.00  0.00    +0.000 C 
BRANCH   5   6
ATOM      6  C   UNL     1       9.636  11.824  18.592  0.00  0.00    +0.000 C 
ATOM      7  C   UNL     1       9.414  11.776  20.108  0.00  0.00    +0.000 C 
BRANCH   6  14
ATOM      8  C   UNL     1       7.617  14.415  18.874  0.00  0.00    +0.000 C 
ATOM      9  C   UNL     1       8.916  14.331  18.156  0.00  0.00    +0.000 A 
ATOM     10  N   UNL     1       9.405  15.443  17.602  0.00  0.00    +0.000 NA
ATOM     11  N   UNL     1      10.548  15.056  17.035  0.00  0.00    +0.000 N 
ATOM     12  C   UNL     1      10.864  13.747  17.263  0.00  0.00    +0.000 A 
ATOM     13  C   UNL     1      12.132  13.191  16.729  0.00  0.00    +0.000 C 
ATOM     14  C   UNL     1       9.817  13.219  18.013  0.00  0.00    +0.000 A 
ATOM     15  H   UNL     1      11.082  15.747  16.517  0.00  0.00    +0.000 HD
ENDBRANCH   6  14
ENDBRANCH   5   6
ENDBRANCH   1   5
BRANCH   3  16
ATOM     16  C   UNL     1       7.565   7.312  17.749  0.00  0.00    +0.000 C 
BRANCH  16  17
ATOM     17  C   UNL     1       6.826   6.602  16.615  0.00  0.00    +0.000 C 
BRANCH  17  18
ATOM     18  C   UNL     1       5.502   6.068  17.094  0.00  0.00    +0.000 A 
ATOM     19  C   UNL     1       4.468   6.951  17.426  0.00  0.00    +0.000 A 
ATOM     20  C   UNL     1       3.215   6.459  17.795  0.00  0.00    +0.000 A 
ATOM     21  C   UNL     1       2.969   5.081  17.837  0.00  0.00    +0.000 A 
ATOM     22  C   UNL     1       1.707   4.575  18.190  0.00  0.00    +0.000 A 
ATOM     23  C   UNL     1       1.474   3.200  18.221  0.00  0.00    +0.000 A 
ATOM     24  C   UNL     1       2.498   2.313  17.901  0.00  0.00    +0.000 A 
ATOM     25  C   UNL     1       3.758   2.800  17.548  0.00  0.00    +0.000 A 
ATOM     26  C   UNL     1       4.008   4.181  17.509  0.00  0.00    +0.000 A 
ATOM     27  C   UNL     1       5.265   4.688  17.142  0.00  0.00    +0.000 A 
ENDBRANCH  17  18
ENDBRANCH  16  17
ENDBRANCH   3  16
TORSDOF 6
ENDMDL
MODEL 9
REMARK VINA RESULT:      -7.8      3.109      4.416
REMARK  Name = 
REMARK  9 active torsions:
REMARK  status: ('A' for Active; 'I' for Inactive)
REMARK    1  A    between atoms: C_1  and  C_2
REMARK    2  A    between atoms: C_5  and  C_6
REMARK    3  A    between atoms: C_7  and  C_8
REMARK    4  A    between atoms: C_8  and  C_9
REMARK    5  A    between atoms: C_8  and  C_10
REMARK    6  A    between atoms: C_10  and  C_11
REMARK    7  A    between atoms: N_13  and  C_14
REMARK    8  A    between atoms: C_14  and  C_15
REMARK    9  A    between atoms: C_15  and  C_16
REMARK                            x       y       z     vdW  Elec       q    Type
REMARK                         _______ _______ _______ _____ _____    ______ ____
ROOT
ATOM      1  C   UNL     1       2.090   7.091  19.847  0.00  0.00    +0.000 C 
ATOM      2  O   UNL     1       1.567   6.549  20.816  0.00  0.00    +0.000 OA
ATOM      3  N   UNL     1       1.802   8.376  19.459  0.00  0.00    +0.000 N 
ATOM      4  H   UNL     1       2.297   8.792  18.681  0.00  0.00    +0.000 HD
ENDROOT
BRANCH   1   5
ATOM      5  C   UNL     1       3.088   6.360  18.969  0.00  0.00    +0.000 C 
BRANCH   5   6
ATOM      6  C   UNL     1       3.738   5.119  19.608  0.00  0.00    +0.000 C 
ATOM      7  C   UNL     1       5.255   5.185  19.392  0.00  0.00    +0.000 C 
BRANCH   6  14
ATOM      8  C   UNL     1       1.909   3.119  21.486  0.00  0.00    +0.000 C 
ATOM      9  C   UNL     1       2.295   2.949  20.059  0.00  0.00    +0.000 A 
ATOM     10  N   UNL     1       1.799   1.906  19.390  0.00  0.00    +0.000 NA
ATOM     11  N   UNL     1       2.323   2.015  18.170  0.00  0.00    +0.000 N 
ATOM     12  C   UNL     1       3.084   3.136  17.992  0.00  0.00    +0.000 A 
ATOM     13  C   UNL     1       3.694   3.411  16.667  0.00  0.00    +0.000 C 
ATOM     14  C   UNL     1       3.091   3.799  19.215  0.00  0.00    +0.000 A 
ATOM     15  H   UNL     1       2.104   1.295  17.490  0.00  0.00    +0.000 HD
ENDBRANCH   6  14
ENDBRANCH   5   6
ENDBRANCH   1   5
BRANCH   3  16
ATOM     16  C   UNL     1       0.920   9.221  20.231  0.00  0.00    +0.000 C 
BRANCH  16  17
ATOM     17  C   UNL     1       0.767  10.607  19.605  0.00  0.00    +0.000 C 
BRANCH  17  18
ATOM     18  C   UNL     1      -0.551  10.725  18.886  0.00  0.00    +0.000 A 
ATOM     19  C   UNL     1      -0.766  10.022  17.695  0.00  0.00    +0.000 A 
ATOM     20  C   UNL     1      -2.012  10.067  17.068  0.00  0.00    +0.000 A 
ATOM     21  C   UNL     1      -3.065  10.810  17.616  0.00  0.00    +0.000 A 
ATOM     22  C   UNL     1      -4.328  10.848  17.003  0.00  0.00    +0.000 A 
ATOM     23  C   UNL     1      -5.370  11.586  17.564  0.00  0.00    +0.000 A 
ATOM     24  C   UNL     1      -5.164  12.297  18.743  0.00  0.00    +0.000 A 
ATOM     25  C   UNL     1      -3.915  12.269  19.365  0.00  0.00    +0.000 A 
ATOM     26  C   UNL     1      -2.856  11.529  18.815  0.00  0.00    +0.000 A 
ATOM     27  C   UNL     1      -1.597  11.478  19.436  0.00  0.00    +0.000 A 
ENDBRANCH  17  18
ENDBRANCH  16  17
ENDBRANCH   3  16
TORSDOF 6
ENDMDL
