MODEL 1
REMARK VINA RESULT:      -8.3      0.000      0.000
REMARK  Name = 
REMARK  8 active torsions:
REMARK  status: ('A' for Active; 'I' for Inactive)
REMARK    1  A    between atoms: C_1  and  N_2
REMARK    2  A    between atoms: C_6  and  C_7
REMARK    3  A    between atoms: C_7  and  C_8
REMARK    4  A    between atoms: C_8  and  C_9
REMARK    5  A    between atoms: C_13  and  N_14
REMARK    6  A    between atoms: C_19  and  C_20
REMARK    7  A    between atoms: C_20  and  N_21
REMARK    8  A    between atoms: C_23  and  C_24
REMARK                            x       y       z     vdW  Elec       q    Type
REMARK                         _______ _______ _______ _____ _____    ______ ____
ROOT
ATOM      1  N   UNL     1       6.017   5.286  15.615  0.00  0.00    +0.000 N 
ATOM      2  C   UNL     1       4.860   6.195  15.818  0.00  0.00    +0.000 C 
ATOM      3  C   UNL     1       4.074   5.474  16.870  0.00  0.00    +0.000 A 
ATOM      4  C   UNL     1       4.359   4.114  16.743  0.00  0.00    +0.000 A 
ATOM      5  C   UNL     1       3.930   3.161  17.649  0.00  0.00    +0.000 A 
ATOM      6  C   UNL     1       3.187   3.600  18.750  0.00  0.00    +0.000 A 
ATOM      7  C   UNL     1       2.899   4.983  18.888  0.00  0.00    +0.000 A 
ATOM      8  C   UNL     1       3.343   5.945  17.955  0.00  0.00    +0.000 A 
ATOM      9  C   UNL     1       5.505   3.978  15.813  0.00  0.00    +0.000 C 
ATOM     10  O   UNL     1       5.994   2.913  15.488  0.00  0.00    +0.000 OA
ENDROOT
BRANCH   1  15
ATOM     11  C   UNL     1       7.813   7.599  17.772  0.00  0.00    +0.000 A 
ATOM     12  C   UNL     1       7.856   6.795  18.918  0.00  0.00    +0.000 A 
ATOM     13  C   UNL     1       7.731   5.413  18.817  0.00  0.00    +0.000 A 
ATOM     14  C   UNL     1       7.432   4.836  17.588  0.00  0.00    +0.000 A 
ATOM     15  C   UNL     1       7.115   5.662  16.500  0.00  0.00    +0.000 A 
ATOM     16  C   UNL     1       7.470   7.016  16.548  0.00  0.00    +0.000 A 
BRANCH  11  17
ATOM     17  C   UNL     1       8.005   9.092  17.875  0.00  0.00    +0.000 C 
BRANCH  17  18
ATOM     18  C   UNL     1       8.923   9.461  19.041  0.00  0.00    +0.000 C 
BRANCH  18  24
ATOM     19  C   UNL     1       9.110  11.587  21.274  0.00  0.00    +0.000 C 
ATOM     20  N   UNL     1       9.538  11.754  19.910  0.00  0.00    +0.000 N 
ATOM     21  C   UNL     1      10.072  12.880  19.368  0.00  0.00    +0.000 A 
ATOM     22  N   UNL     1      10.341  12.670  18.102  0.00  0.00    +0.000 NA
ATOM     23  N   UNL     1       9.969  11.381  17.806  0.00  0.00    +0.000 NA
ATOM     24  C   UNL     1       9.482  10.831  18.901  0.00  0.00    +0.000 A 
ENDBRANCH  18  24
ENDBRANCH  17  18
ENDBRANCH  11  17
ENDBRANCH   1  15
BRANCH   8  25
ATOM     25  C   UNL     1       3.111   7.408  18.241  0.00  0.00    +0.000 C 
ATOM     26  F   UNL     1       2.152   7.981  17.464  0.00  0.00    +0.000 F 
ATOM     27  F   UNL     1       2.718   7.625  19.526  0.00  0.00    +0.000 F 
ATOM     28  F   UNL     1       4.233   8.160  18.060  0.00  0.00    +0.000 F 
ENDBRANCH   8  25
BRANCH   6  29
ATOM     29  C   UNL     1       2.755   2.623  19.816  0.00  0.00    +0.000 C 
BRANCH  29  30
ATOM     30  N   UNL     1       1.468   2.990  20.394  0.00  0.00    +0.000 NA
ATOM     31  H   UNL     1       0.903   3.455  19.686  0.00  0.00    +0.000 HD
ATOM     32  H   UNL     1       1.620   3.679  21.130  0.00  0.00    +0.000 HD
ENDBRANCH  29  30
ENDBRANCH   6  29
TORSDOF 7
ENDMDL
MODEL 2
REMARK VINA RESULT:      -8.3      3.924      6.751
REMARK  Name = 
REMARK  8 active torsions:
REMARK  status: ('A' for Active; 'I' for Inactive)
REMARK    1  A    between atoms: C_1  and  N_2
REMARK    2  A    between atoms: C_6  and  C_7
REMARK    3  A    between atoms: C_7  and  C_8
REMARK    4  A    between atoms: C_8  and  C_9
REMARK    5  A    between atoms: C_13  and  N_14
REMARK    6  A    between atoms: C_19  and  C_20
REMARK    7  A    between atoms: C_20  and  N_21
REMARK    8  A    between atoms: C_23  and  C_24
REMARK                            x       y       z     vdW  Elec       q    Type
REMARK                         _______ _______ _______ _____ _____    ______ ____
ROOT
ATOM      1  N   UNL     1       4.071   4.510  19.221  0.00  0.00    +0.000 N 
ATOM      2  C   UNL     1       5.413   5.141  19.312  0.00  0.00    +0.000 C 
ATOM      3  C   UNL     1       5.930   4.982  17.915  0.00  0.00    +0.000 A 
ATOM      4  C   UNL     1       5.308   3.859  17.366  0.00  0.00    +0.000 A 
ATOM      5  C   UNL     1       5.428   3.500  16.036  0.00  0.00    +0.000 A 
ATOM      6  C   UNL     1       6.203   4.320  15.209  0.00  0.00    +0.000 A 
ATOM      7  C   UNL     1       6.832   5.466  15.759  0.00  0.00    +0.000 A 
ATOM      8  C   UNL     1       6.702   5.822  17.119  0.00  0.00    +0.000 A 
ATOM      9  C   UNL     1       4.215   3.457  18.282  0.00  0.00    +0.000 C 
ATOM     10  O   UNL     1       3.482   2.506  18.090  0.00  0.00    +0.000 OA
ENDROOT
BRANCH   1  15
ATOM     11  C   UNL     1       1.888   7.321  19.975  0.00  0.00    +0.000 A 
ATOM     12  C   UNL     1       2.336   8.184  18.967  0.00  0.00    +0.000 A 
ATOM     13  C   UNL     1       2.961   7.680  17.831  0.00  0.00    +0.000 A 
ATOM     14  C   UNL     1       3.262   6.325  17.754  0.00  0.00    +0.000 A 
ATOM     15  C   UNL     1       3.065   5.512  18.880  0.00  0.00    +0.000 A 
ATOM     16  C   UNL     1       2.233   5.967  19.910  0.00  0.00    +0.000 A 
BRANCH  11  17
ATOM     17  C   UNL     1       1.160   7.863  21.180  0.00  0.00    +0.000 C 
BRANCH  17  18
ATOM     18  C   UNL     1       1.540   9.318  21.458  0.00  0.00    +0.000 C 
BRANCH  18  24
ATOM     19  C   UNL     1      -0.209  11.349  19.921  0.00  0.00    +0.000 C 
ATOM     20  N   UNL     1      -0.345  10.998  21.310  0.00  0.00    +0.000 N 
ATOM     21  C   UNL     1      -1.245  11.517  22.185  0.00  0.00    +0.000 A 
ATOM     22  N   UNL     1      -1.076  10.967  23.364  0.00  0.00    +0.000 NA
ATOM     23  N   UNL     1      -0.039  10.072  23.259  0.00  0.00    +0.000 NA
ATOM     24  C   UNL     1       0.403  10.095  22.018  0.00  0.00    +0.000 A 
ENDBRANCH  18  24
ENDBRANCH  17  18
ENDBRANCH  11  17
ENDBRANCH   1  15
BRANCH   8  25
ATOM     25  C   UNL     1       7.291   7.126  17.598  0.00  0.00    +0.000 C 
ATOM     26  F   UNL     1       8.164   7.695  16.723  0.00  0.00    +0.000 F 
ATOM     27  F   UNL     1       6.337   8.068  17.828  0.00  0.00    +0.000 F 
ATOM     28  F   UNL     1       7.974   6.991  18.769  0.00  0.00    +0.000 F 
ENDBRANCH   8  25
BRANCH   6  29
ATOM     29  C   UNL     1       6.310   4.028  13.732  0.00  0.00    +0.000 C 
BRANCH  29  30
ATOM     30  N   UNL     1       7.314   4.868  13.088  0.00  0.00    +0.000 NA
ATOM     31  H   UNL     1       7.749   4.347  12.328  0.00  0.00    +0.000 HD
ATOM     32  H   UNL     1       8.058   5.064  13.756  0.00  0.00    +0.000 HD
ENDBRANCH  29  30
ENDBRANCH   6  29
TORSDOF 7
ENDMDL
MODEL 3
REMARK VINA RESULT:      -8.1      3.916      6.472
REMARK  Name = 
REMARK  8 active torsions:
REMARK  status: ('A' for Active; 'I' for Inactive)
REMARK    1  A    between atoms: C_1  and  N_2
REMARK    2  A    between atoms: C_6  and  C_7
REMARK    3  A    between atoms: C_7  and  C_8
REMARK    4  A    between atoms: C_8  and  C_9
REMARK    5  A    between atoms: C_13  and  N_14
REMARK    6  A    between atoms: C_19  and  C_20
REMARK    7  A    between atoms: C_20  and  N_21
REMARK    8  A    between atoms: C_23  and  C_24
REMARK                            x       y       z     vdW  Elec       q    Type
REMARK                         _______ _______ _______ _____ _____    ______ ____
ROOT
ATOM      1  N   UNL     1       4.045   4.498  19.244  0.00  0.00    +0.000 N 
ATOM      2  C   UNL     1       5.391   5.122  19.329  0.00  0.00    +0.000 C 
ATOM      3  C   UNL     1       5.898   4.968  17.927  0.00  0.00    +0.000 A 
ATOM      4  C   UNL     1       5.266   3.852  17.376  0.00  0.00    +0.000 A 
ATOM      5  C   UNL     1       5.374   3.499  16.043  0.00  0.00    +0.000 A 
ATOM      6  C   UNL     1       6.148   4.321  15.215  0.00  0.00    +0.000 A 
ATOM      7  C   UNL     1       6.787   5.460  15.768  0.00  0.00    +0.000 A 
ATOM      8  C   UNL     1       6.668   5.809  17.131  0.00  0.00    +0.000 A 
ATOM      9  C   UNL     1       4.178   3.449  18.298  0.00  0.00    +0.000 C 
ATOM     10  O   UNL     1       3.439   2.503  18.106  0.00  0.00    +0.000 OA
ENDROOT
BRANCH   1  15
ATOM     11  C   UNL     1       2.043   7.450  19.955  0.00  0.00    +0.000 A 
ATOM     12  C   UNL     1       2.411   8.203  18.833  0.00  0.00    +0.000 A 
ATOM     13  C   UNL     1       2.900   7.577  17.691  0.00  0.00    +0.000 A 
ATOM     14  C   UNL     1       3.148   6.210  17.707  0.00  0.00    +0.000 A 
ATOM     15  C   UNL     1       3.042   5.506  18.916  0.00  0.00    +0.000 A 
ATOM     16  C   UNL     1       2.335   6.082  19.978  0.00  0.00    +0.000 A 
BRANCH  11  17
ATOM     17  C   UNL     1       1.460   8.124  21.173  0.00  0.00    +0.000 C 
BRANCH  17  18
ATOM     18  C   UNL     1       0.149   8.839  20.846  0.00  0.00    +0.000 C 
BRANCH  18  24
ATOM     19  C   UNL     1      -0.492  10.761  18.514  0.00  0.00    +0.000 C 
ATOM     20  N   UNL     1       0.017  11.140  19.806  0.00  0.00    +0.000 N 
ATOM     21  C   UNL     1       0.325  12.401  20.210  0.00  0.00    +0.000 A 
ATOM     22  N   UNL     1       0.763  12.368  21.446  0.00  0.00    +0.000 NA
ATOM     23  N   UNL     1       0.748  11.058  21.858  0.00  0.00    +0.000 NA
ATOM     24  C   UNL     1       0.299  10.318  20.864  0.00  0.00    +0.000 A 
ENDBRANCH  18  24
ENDBRANCH  17  18
ENDBRANCH  11  17
ENDBRANCH   1  15
BRANCH   8  25
ATOM     25  C   UNL     1       7.267   7.107  17.613  0.00  0.00    +0.000 C 
ATOM     26  F   UNL     1       7.970   6.997  18.773  0.00  0.00    +0.000 F 
ATOM     27  F   UNL     1       8.135   7.640  16.710  0.00  0.00    +0.000 F 
ATOM     28  F   UNL     1       6.325   8.065  17.838  0.00  0.00    +0.000 F 
ENDBRANCH   8  25
BRANCH   6  29
ATOM     29  C   UNL     1       6.243   4.036  13.736  0.00  0.00    +0.000 C 
BRANCH  29  30
ATOM     30  N   UNL     1       7.281   4.839  13.099  0.00  0.00    +0.000 NA
ATOM     31  H   UNL     1       8.026   4.226  12.773  0.00  0.00    +0.000 HD
ATOM     32  H   UNL     1       7.704   5.448  13.799  0.00  0.00    +0.000 HD
ENDBRANCH  29  30
ENDBRANCH   6  29
TORSDOF 7
ENDMDL
MODEL 4
REMARK VINA RESULT:      -8.1      0.725      1.383
REMARK  Name = 
REMARK  8 active torsions:
REMARK  status: ('A' for Active; 'I' for Inactive)
REMARK    1  A    between atoms: C_1  and  N_2
REMARK    2  A    between atoms: C_6  and  C_7
REMARK    3  A    between atoms: C_7  and  C_8
REMARK    4  A    between atoms: C_8  and  C_9
REMARK    5  A    between atoms: C_13  and  N_14
REMARK    6  A    between atoms: C_19  and  C_20
REMARK    7  A    between atoms: C_20  and  N_21
REMARK    8  A    between atoms: C_23  and  C_24
REMARK                            x       y       z     vdW  Elec       q    Type
REMARK                         _______ _______ _______ _____ _____    ______ ____
ROOT
ATOM      1  N   UNL     1       6.134   5.476  15.566  0.00  0.00    +0.000 N 
ATOM      2  C   UNL     1       4.938   6.325  15.802  0.00  0.00    +0.000 C 
ATOM      3  C   UNL     1       4.149   5.497  16.770  0.00  0.00    +0.000 A 
ATOM      4  C   UNL     1       4.490   4.161  16.548  0.00  0.00    +0.000 A 
ATOM      5  C   UNL     1       4.072   3.126  17.365  0.00  0.00    +0.000 A 
ATOM      6  C   UNL     1       3.282   3.452  18.472  0.00  0.00    +0.000 A 
ATOM      7  C   UNL     1       2.937   4.808  18.707  0.00  0.00    +0.000 A 
ATOM      8  C   UNL     1       3.370   5.855  17.864  0.00  0.00    +0.000 A 
ATOM      9  C   UNL     1       5.667   4.140  15.647  0.00  0.00    +0.000 C 
ATOM     10  O   UNL     1       6.206   3.122  15.258  0.00  0.00    +0.000 OA
ENDROOT
BRANCH   1  15
ATOM     11  C   UNL     1       7.802   7.696  17.916  0.00  0.00    +0.000 A 
ATOM     12  C   UNL     1       7.819   6.830  19.016  0.00  0.00    +0.000 A 
ATOM     13  C   UNL     1       7.726   5.454  18.833  0.00  0.00    +0.000 A 
ATOM     14  C   UNL     1       7.484   4.942  17.564  0.00  0.00    +0.000 A 
ATOM     15  C   UNL     1       7.191   5.822  16.512  0.00  0.00    +0.000 A 
ATOM     16  C   UNL     1       7.516   7.177  16.649  0.00  0.00    +0.000 A 
BRANCH  11  17
ATOM     17  C   UNL     1       7.959   9.184  18.110  0.00  0.00    +0.000 C 
BRANCH  17  18
ATOM     18  C   UNL     1       9.323   9.532  18.708  0.00  0.00    +0.000 C 
BRANCH  18  24
ATOM     19  C   UNL     1       9.559  12.462  17.761  0.00  0.00    +0.000 C 
ATOM     20  N   UNL     1       9.384  12.026  19.121  0.00  0.00    +0.000 N 
ATOM     21  C   UNL     1       9.319  12.824  20.219  0.00  0.00    +0.000 A 
ATOM     22  N   UNL     1       9.158  12.082  21.289  0.00  0.00    +0.000 NA
ATOM     23  N   UNL     1       9.124  10.770  20.883  0.00  0.00    +0.000 NA
ATOM     24  C   UNL     1       9.263  10.739  19.573  0.00  0.00    +0.000 A 
ENDBRANCH  18  24
ENDBRANCH  17  18
ENDBRANCH  11  17
ENDBRANCH   1  15
BRANCH   8  25
ATOM     25  C   UNL     1       3.075   7.283  18.254  0.00  0.00    +0.000 C 
ATOM     26  F   UNL     1       4.104   8.144  18.029  0.00  0.00    +0.000 F 
ATOM     27  F   UNL     1       2.014   7.793  17.571  0.00  0.00    +0.000 F 
ATOM     28  F   UNL     1       2.765   7.410  19.575  0.00  0.00    +0.000 F 
ENDBRANCH   8  25
BRANCH   6  29
ATOM     29  C   UNL     1       2.857   2.380  19.446  0.00  0.00    +0.000 C 
BRANCH  29  30
ATOM     30  N   UNL     1       1.754   1.582  18.923  0.00  0.00    +0.000 NA
ATOM     31  H   UNL     1       1.896   1.428  17.926  0.00  0.00    +0.000 HD
ATOM     32  H   UNL     1       0.891   2.117  19.005  0.00  0.00    +0.000 HD
ENDBRANCH  29  30
ENDBRANCH   6  29
TORSDOF 7
ENDMDL
MODEL 5
REMARK VINA RESULT:      -8.0      4.635      7.446
REMARK  Name = 
REMARK  8 active torsions:
REMARK  status: ('A' for Active; 'I' for Inactive)
REMARK    1  A    between atoms: C_1  and  N_2
REMARK    2  A    between atoms: C_6  and  C_7
REMARK    3  A    between atoms: C_7  and  C_8
REMARK    4  A    between atoms: C_8  and  C_9
REMARK    5  A    between atoms: C_13  and  N_14
REMARK    6  A    between atoms: C_19  and  C_20
REMARK    7  A    between atoms: C_20  and  N_21
REMARK    8  A    between atoms: C_23  and  C_24
REMARK                            x       y       z     vdW  Elec       q    Type
REMARK                         _______ _______ _______ _____ _____    ______ ____
ROOT
ATOM      1  N   UNL     1       2.578   7.365  19.360  0.00  0.00    +0.000 N 
ATOM      2  C   UNL     1       2.253   8.149  20.580  0.00  0.00    +0.000 C 
ATOM      3  C   UNL     1       1.171   9.062  20.089  0.00  0.00    +0.000 A 
ATOM      4  C   UNL     1       1.370   9.243  18.719  0.00  0.00    +0.000 A 
ATOM      5  C   UNL     1       0.469   9.902  17.902  0.00  0.00    +0.000 A 
ATOM      6  C   UNL     1      -0.701  10.393  18.490  0.00  0.00    +0.000 A 
ATOM      7  C   UNL     1      -0.913  10.207  19.880  0.00  0.00    +0.000 A 
ATOM      8  C   UNL     1       0.015   9.532  20.703  0.00  0.00    +0.000 A 
ATOM      9  C   UNL     1       2.390   8.262  18.278  0.00  0.00    +0.000 C 
ATOM     10  O   UNL     1       2.791   8.166  17.134  0.00  0.00    +0.000 OA
ENDROOT
BRANCH   1  15
ATOM     11  C   UNL     1       1.968   3.891  18.475  0.00  0.00    +0.000 A 
ATOM     12  C   UNL     1       1.655   3.421  19.757  0.00  0.00    +0.000 A 
ATOM     13  C   UNL     1       1.206   4.296  20.741  0.00  0.00    +0.000 A 
ATOM     14  C   UNL     1       1.191   5.663  20.492  0.00  0.00    +0.000 A 
ATOM     15  C   UNL     1       1.767   6.153  19.310  0.00  0.00    +0.000 A 
ATOM     16  C   UNL     1       1.991   5.270  18.246  0.00  0.00    +0.000 A 
BRANCH  11  17
ATOM     17  C   UNL     1       2.401   2.933  17.392  0.00  0.00    +0.000 C 
BRANCH  17  18
ATOM     18  C   UNL     1       3.765   2.316  17.701  0.00  0.00    +0.000 C 
BRANCH  18  24
ATOM     19  C   UNL     1       5.221   4.262  15.794  0.00  0.00    +0.000 C 
ATOM     20  N   UNL     1       5.403   4.182  17.219  0.00  0.00    +0.000 N 
ATOM     21  C   UNL     1       6.262   4.928  17.962  0.00  0.00    +0.000 A 
ATOM     22  N   UNL     1       6.162   4.582  19.224  0.00  0.00    +0.000 NA
ATOM     23  N   UNL     1       5.221   3.584  19.307  0.00  0.00    +0.000 NA
ATOM     24  C   UNL     1       4.767   3.342  18.094  0.00  0.00    +0.000 A 
ENDBRANCH  18  24
ENDBRANCH  17  18
ENDBRANCH  11  17
ENDBRANCH   1  15
BRANCH   8  25
ATOM     25  C   UNL     1      -0.342   9.257  22.143  0.00  0.00    +0.000 C 
ATOM     26  F   UNL     1      -1.193  10.169  22.688  0.00  0.00    +0.000 F 
ATOM     27  F   UNL     1      -0.951   8.050  22.301  0.00  0.00    +0.000 F 
ATOM     28  F   UNL     1       0.750   9.235  22.957  0.00  0.00    +0.000 F 
ENDBRANCH   8  25
BRANCH   6  29
ATOM     29  C   UNL     1      -1.760  11.054  17.641  0.00  0.00    +0.000 C 
BRANCH  29  30
ATOM     30  N   UNL     1      -1.460  12.461  17.402  0.00  0.00    +0.000 NA
ATOM     31  H   UNL     1      -1.978  12.779  16.584  0.00  0.00    +0.000 HD
ATOM     32  H   UNL     1      -0.473  12.552  17.163  0.00  0.00    +0.000 HD
ENDBRANCH  29  30
ENDBRANCH   6  29
TORSDOF 7
ENDMDL
MODEL 6
REMARK VINA RESULT:      -8.0      3.942      6.705
REMARK  Name = 
REMARK  8 active torsions:
REMARK  status: ('A' for Active; 'I' for Inactive)
REMARK    1  A    between atoms: C_1  and  N_2
REMARK    2  A    between atoms: C_6  and  C_7
REMARK    3  A    between atoms: C_7  and  C_8
REMARK    4  A    between atoms: C_8  and  C_9
REMARK    5  A    between atoms: C_13  and  N_14
REMARK    6  A    between atoms: C_19  and  C_20
REMARK    7  A    between atoms: C_20  and  N_21
REMARK    8  A    between atoms: C_23  and  C_24
REMARK                            x       y       z     vdW  Elec       q    Type
REMARK                         _______ _______ _______ _____ _____    ______ ____
ROOT
ATOM      1  N   UNL     1       4.007   4.545  19.297  0.00  0.00    +0.000 N 
ATOM      2  C   UNL     1       5.360   5.156  19.366  0.00  0.00    +0.000 C 
ATOM      3  C   UNL     1       5.859   4.975  17.965  0.00  0.00    +0.000 A 
ATOM      4  C   UNL     1       5.213   3.856  17.436  0.00  0.00    +0.000 A 
ATOM      5  C   UNL     1       5.312   3.480  16.108  0.00  0.00    +0.000 A 
ATOM      6  C   UNL     1       6.091   4.280  15.264  0.00  0.00    +0.000 A 
ATOM      7  C   UNL     1       6.744   5.422  15.794  0.00  0.00    +0.000 A 
ATOM      8  C   UNL     1       6.635   5.794  17.153  0.00  0.00    +0.000 A 
ATOM      9  C   UNL     1       4.125   3.480  18.368  0.00  0.00    +0.000 C 
ATOM     10  O   UNL     1       3.376   2.538  18.194  0.00  0.00    +0.000 OA
ENDROOT
BRANCH   1  15
ATOM     11  C   UNL     1       2.038   7.529  19.968  0.00  0.00    +0.000 A 
ATOM     12  C   UNL     1       2.410   8.260  18.833  0.00  0.00    +0.000 A 
ATOM     13  C   UNL     1       2.887   7.611  17.699  0.00  0.00    +0.000 A 
ATOM     14  C   UNL     1       3.121   6.241  17.736  0.00  0.00    +0.000 A 
ATOM     15  C   UNL     1       3.013   5.559  18.957  0.00  0.00    +0.000 A 
ATOM     16  C   UNL     1       2.317   6.159  20.013  0.00  0.00    +0.000 A 
BRANCH  11  17
ATOM     17  C   UNL     1       1.468   8.229  21.177  0.00  0.00    +0.000 C 
BRANCH  17  18
ATOM     18  C   UNL     1      -0.037   8.459  21.035  0.00  0.00    +0.000 C 
BRANCH  18  24
ATOM     19  C   UNL     1      -0.927  10.562  23.115  0.00  0.00    +0.000 C 
ATOM     20  N   UNL     1      -0.766  10.786  21.703  0.00  0.00    +0.000 N 
ATOM     21  C   UNL     1      -1.001  11.950  21.042  0.00  0.00    +0.000 A 
ATOM     22  N   UNL     1      -0.751  11.786  19.765  0.00  0.00    +0.000 NA
ATOM     23  N   UNL     1      -0.349  10.485  19.584  0.00  0.00    +0.000 NA
ATOM     24  C   UNL     1      -0.362   9.882  20.757  0.00  0.00    +0.000 A 
ENDBRANCH  18  24
ENDBRANCH  17  18
ENDBRANCH  11  17
ENDBRANCH   1  15
BRANCH   8  25
ATOM     25  C   UNL     1       7.249   7.093  17.611  0.00  0.00    +0.000 C 
ATOM     26  F   UNL     1       8.104   7.651  16.711  0.00  0.00    +0.000 F 
ATOM     27  F   UNL     1       6.310   8.046  17.862  0.00  0.00    +0.000 F 
ATOM     28  F   UNL     1       7.961   6.956  18.764  0.00  0.00    +0.000 F 
ENDBRANCH   8  25
BRANCH   6  29
ATOM     29  C   UNL     1       6.177   3.971  13.789  0.00  0.00    +0.000 C 
BRANCH  29  30
ATOM     30  N   UNL     1       7.208   4.765  13.131  0.00  0.00    +0.000 NA
ATOM     31  H   UNL     1       8.125   4.414  13.402  0.00  0.00    +0.000 HD
ATOM     32  H   UNL     1       7.160   5.722  13.479  0.00  0.00    +0.000 HD
ENDBRANCH  29  30
ENDBRANCH   6  29
TORSDOF 7
ENDMDL
MODEL 7
REMARK VINA RESULT:      -7.9      4.453      6.693
REMARK  Name = 
REMARK  8 active torsions:
REMARK  status: ('A' for Active; 'I' for Inactive)
REMARK    1  A    between atoms: C_1  and  N_2
REMARK    2  A    between atoms: C_6  and  C_7
REMARK    3  A    between atoms: C_7  and  C_8
REMARK    4  A    between atoms: C_8  and  C_9
REMARK    5  A    between atoms: C_13  and  N_14
REMARK    6  A    between atoms: C_19  and  C_20
REMARK    7  A    between atoms: C_20  and  N_21
REMARK    8  A    between atoms: C_23  and  C_24
REMARK                            x       y       z     vdW  Elec       q    Type
REMARK                         _______ _______ _______ _____ _____    ______ ____
ROOT
ATOM      1  N   UNL     1       3.231   3.845  18.749  0.00  0.00    +0.000 N 
ATOM      2  C   UNL     1       4.602   4.033  19.289  0.00  0.00    +0.000 C 
ATOM      3  C   UNL     1       5.418   4.167  18.040  0.00  0.00    +0.000 A 
ATOM      4  C   UNL     1       4.749   3.471  17.031  0.00  0.00    +0.000 A 
ATOM      5  C   UNL     1       5.131   3.508  15.702  0.00  0.00    +0.000 A 
ATOM      6  C   UNL     1       6.237   4.297  15.366  0.00  0.00    +0.000 A 
ATOM      7  C   UNL     1       6.917   5.012  16.386  0.00  0.00    +0.000 A 
ATOM      8  C   UNL     1       6.516   4.965  17.740  0.00  0.00    +0.000 A 
ATOM      9  C   UNL     1       3.401   3.123  17.540  0.00  0.00    +0.000 C 
ATOM     10  O   UNL     1       2.571   2.508  16.900  0.00  0.00    +0.000 OA
ENDROOT
BRANCH   1  15
ATOM     11  C   UNL     1       1.840   6.945  20.048  0.00  0.00    +0.000 A 
ATOM     12  C   UNL     1       2.578   7.831  19.252  0.00  0.00    +0.000 A 
ATOM     13  C   UNL     1       3.126   7.409  18.046  0.00  0.00    +0.000 A 
ATOM     14  C   UNL     1       3.054   6.068  17.687  0.00  0.00    +0.000 A 
ATOM     15  C   UNL     1       2.562   5.135  18.613  0.00  0.00    +0.000 A 
ATOM     16  C   UNL     1       1.809   5.590  19.702  0.00  0.00    +0.000 A 
BRANCH  11  17
ATOM     17  C   UNL     1       1.198   7.418  21.329  0.00  0.00    +0.000 C 
BRANCH  17  18
ATOM     18  C   UNL     1       1.697   8.807  21.727  0.00  0.00    +0.000 C 
BRANCH  18  24
ATOM     19  C   UNL     1       0.072  10.660  19.865  0.00  0.00    +0.000 C 
ATOM     20  N   UNL     1      -0.107  10.523  21.286  0.00  0.00    +0.000 N 
ATOM     21  C   UNL     1      -1.002  11.201  22.053  0.00  0.00    +0.000 A 
ATOM     22  N   UNL     1      -0.881  10.823  23.303  0.00  0.00    +0.000 NA
ATOM     23  N   UNL     1       0.118   9.881  23.357  0.00  0.00    +0.000 NA
ATOM     24  C   UNL     1       0.585   9.704  22.138  0.00  0.00    +0.000 A 
ENDBRANCH  18  24
ENDBRANCH  17  18
ENDBRANCH  11  17
ENDBRANCH   1  15
BRANCH   8  25
ATOM     25  C   UNL     1       7.207   5.856  18.743  0.00  0.00    +0.000 C 
ATOM     26  F   UNL     1       7.572   7.069  18.248  0.00  0.00    +0.000 F 
ATOM     27  F   UNL     1       6.420   6.122  19.821  0.00  0.00    +0.000 F 
ATOM     28  F   UNL     1       8.346   5.298  19.238  0.00  0.00    +0.000 F 
ENDBRANCH   8  25
BRANCH   6  29
ATOM     29  C   UNL     1       6.659   4.443  13.925  0.00  0.00    +0.000 C 
BRANCH  29  30
ATOM     30  N   UNL     1       6.189   3.328  13.110  0.00  0.00    +0.000 NA
ATOM     31  H   UNL     1       6.579   2.460  13.475  0.00  0.00    +0.000 HD
ATOM     32  H   UNL     1       6.561   3.428  12.167  0.00  0.00    +0.000 HD
ENDBRANCH  29  30
ENDBRANCH   6  29
TORSDOF 7
ENDMDL
MODEL 8
REMARK VINA RESULT:      -7.9      0.730      1.032
REMARK  Name = 
REMARK  8 active torsions:
REMARK  status: ('A' for Active; 'I' for Inactive)
REMARK    1  A    between atoms: C_1  and  N_2
REMARK    2  A    between atoms: C_6  and  C_7
REMARK    3  A    between atoms: C_7  and  C_8
REMARK    4  A    between atoms: C_8  and  C_9
REMARK    5  A    between atoms: C_13  and  N_14
REMARK    6  A    between atoms: C_19  and  C_20
REMARK    7  A    between atoms: C_20  and  N_21
REMARK    8  A    between atoms: C_23  and  C_24
REMARK                            x       y       z     vdW  Elec       q    Type
REMARK                         _______ _______ _______ _____ _____    ______ ____
ROOT
ATOM      1  N   UNL     1       6.003   5.263  15.721  0.00  0.00    +0.000 N 
ATOM      2  C   UNL     1       4.810   6.133  15.887  0.00  0.00    +0.000 C 
ATOM      3  C   UNL     1       4.084   5.461  17.012  0.00  0.00    +0.000 A 
ATOM      4  C   UNL     1       4.429   4.108  16.980  0.00  0.00    +0.000 A 
ATOM      5  C   UNL     1       4.067   3.210  17.967  0.00  0.00    +0.000 A 
ATOM      6  C   UNL     1       3.331   3.699  19.052  0.00  0.00    +0.000 A 
ATOM      7  C   UNL     1       2.983   5.073  19.094  0.00  0.00    +0.000 A 
ATOM      8  C   UNL     1       3.359   5.981  18.078  0.00  0.00    +0.000 A 
ATOM      9  C   UNL     1       5.556   3.953  16.031  0.00  0.00    +0.000 C 
ATOM     10  O   UNL     1       6.087   2.889  15.774  0.00  0.00    +0.000 OA
ENDROOT
BRANCH   1  15
ATOM     11  C   UNL     1       7.697   7.783  17.723  0.00  0.00    +0.000 A 
ATOM     12  C   UNL     1       7.852   7.024  18.890  0.00  0.00    +0.000 A 
ATOM     13  C   UNL     1       7.834   5.634  18.838  0.00  0.00    +0.000 A 
ATOM     14  C   UNL     1       7.531   4.993  17.642  0.00  0.00    +0.000 A 
ATOM     15  C   UNL     1       7.103   5.755  16.544  0.00  0.00    +0.000 A 
ATOM     16  C   UNL     1       7.350   7.133  16.534  0.00  0.00    +0.000 A 
BRANCH  11  17
ATOM     17  C   UNL     1       7.773   9.289  17.772  0.00  0.00    +0.000 C 
BRANCH  17  18
ATOM     18  C   UNL     1       8.977   9.764  18.586  0.00  0.00    +0.000 C 
BRANCH  18  24
ATOM     19  C   UNL     1      11.460  11.297  19.600  0.00  0.00    +0.000 C 
ATOM     20  N   UNL     1      10.372  11.857  18.843  0.00  0.00    +0.000 N 
ATOM     21  C   UNL     1      10.240  13.157  18.468  0.00  0.00    +0.000 A 
ATOM     22  N   UNL     1       9.125  13.306  17.793  0.00  0.00    +0.000 NA
ATOM     23  N   UNL     1       8.511  12.078  17.730  0.00  0.00    +0.000 NA
ATOM     24  C   UNL     1       9.266  11.206  18.368  0.00  0.00    +0.000 A 
ENDBRANCH  18  24
ENDBRANCH  17  18
ENDBRANCH  11  17
ENDBRANCH   1  15
BRANCH   8  25
ATOM     25  C   UNL     1       3.067   7.450  18.260  0.00  0.00    +0.000 C 
ATOM     26  F   UNL     1       2.627   7.779  19.505  0.00  0.00    +0.000 F 
ATOM     27  F   UNL     1       4.166   8.223  18.044  0.00  0.00    +0.000 F 
ATOM     28  F   UNL     1       2.115   7.903  17.397  0.00  0.00    +0.000 F 
ENDBRANCH   8  25
BRANCH   6  29
ATOM     29  C   UNL     1       2.972   2.788  20.200  0.00  0.00    +0.000 C 
BRANCH  29  30
ATOM     30  N   UNL     1       1.533   2.565  20.282  0.00  0.00    +0.000 NA
ATOM     31  H   UNL     1       1.184   2.289  19.365  0.00  0.00    +0.000 HD
ATOM     32  H   UNL     1       1.074   3.448  20.503  0.00  0.00    +0.000 HD
ENDBRANCH  29  30
ENDBRANCH   6  29
TORSDOF 7
ENDMDL
MODEL 9
REMARK VINA RESULT:      -7.9      4.578      7.300
REMARK  Name = 
REMARK  8 active torsions:
REMARK  status: ('A' for Active; 'I' for Inactive)
REMARK    1  A    between atoms: C_1  and  N_2
REMARK    2  A    between atoms: C_6  and  C_7
REMARK    3  A    between atoms: C_7  and  C_8
REMARK    4  A    between atoms: C_8  and  C_9
REMARK    5  A    between atoms: C_13  and  N_14
REMARK    6  A    between atoms: C_19  and  C_20
REMARK    7  A    between atoms: C_20  and  N_21
REMARK    8  A    between atoms: C_23  and  C_24
REMARK                            x       y       z     vdW  Elec       q    Type
REMARK                         _______ _______ _______ _____ _____    ______ ____
ROOT
ATOM      1  N   UNL     1       2.583   7.499  19.372  0.00  0.00    +0.000 N 
ATOM      2  C   UNL     1       2.242   8.271  20.595  0.00  0.00    +0.000 C 
ATOM      3  C   UNL     1       1.116   9.136  20.117  0.00  0.00    +0.000 A 
ATOM      4  C   UNL     1       1.288   9.322  18.744  0.00  0.00    +0.000 A 
ATOM      5  C   UNL     1       0.349   9.941  17.939  0.00  0.00    +0.000 A 
ATOM      6  C   UNL     1      -0.833  10.384  18.542  0.00  0.00    +0.000 A 
ATOM      7  C   UNL     1      -1.016  10.192  19.936  0.00  0.00    +0.000 A 
ATOM      8  C   UNL     1      -0.049   9.559  20.747  0.00  0.00    +0.000 A 
ATOM      9  C   UNL     1       2.342   8.385  18.291  0.00  0.00    +0.000 C 
ATOM     10  O   UNL     1       2.731   8.303  17.142  0.00  0.00    +0.000 OA
ENDROOT
BRANCH   1  15
ATOM     11  C   UNL     1       2.081   4.017  18.448  0.00  0.00    +0.000 A 
ATOM     12  C   UNL     1       1.850   3.512  19.733  0.00  0.00    +0.000 A 
ATOM     13  C   UNL     1       1.411   4.349  20.754  0.00  0.00    +0.000 A 
ATOM     14  C   UNL     1       1.326   5.718  20.533  0.00  0.00    +0.000 A 
ATOM     15  C   UNL     1       1.823   6.254  19.335  0.00  0.00    +0.000 A 
ATOM     16  C   UNL     1       2.035   5.400  18.246  0.00  0.00    +0.000 A 
BRANCH  11  17
ATOM     17  C   UNL     1       2.503   3.099  17.328  0.00  0.00    +0.000 C 
BRANCH  17  18
ATOM     18  C   UNL     1       3.995   2.772  17.402  0.00  0.00    +0.000 C 
BRANCH  18  24
ATOM     19  C   UNL     1       5.613   4.798  19.081  0.00  0.00    +0.000 C 
ATOM     20  N   UNL     1       5.532   4.765  17.644  0.00  0.00    +0.000 N 
ATOM     21  C   UNL     1       6.131   5.631  16.786  0.00  0.00    +0.000 A 
ATOM     22  N   UNL     1       5.835   5.299  15.552  0.00  0.00    +0.000 NA
ATOM     23  N   UNL     1       5.020   4.194  15.604  0.00  0.00    +0.000 NA
ATOM     24  C   UNL     1       4.837   3.875  16.870  0.00  0.00    +0.000 A 
ENDBRANCH  18  24
ENDBRANCH  17  18
ENDBRANCH  11  17
ENDBRANCH   1  15
BRANCH   8  25
ATOM     25  C   UNL     1      -0.374   9.273  22.192  0.00  0.00    +0.000 C 
ATOM     26  F   UNL     1       0.710   9.266  23.015  0.00  0.00    +0.000 F 
ATOM     27  F   UNL     1      -1.227  10.194  22.720  0.00  0.00    +0.000 F 
ATOM     28  F   UNL     1      -0.978   8.064  22.362  0.00  0.00    +0.000 F 
ENDBRANCH   8  25
BRANCH   6  29
ATOM     29  C   UNL     1      -1.930  10.997  17.707  0.00  0.00    +0.000 C 
BRANCH  29  30
ATOM     30  N   UNL     1      -1.553  12.312  17.202  0.00  0.00    +0.000 NA
ATOM     31  H   UNL     1      -2.384  12.898  17.139  0.00  0.00    +0.000 HD
ATOM     32  H   UNL     1      -1.207  12.213  16.248  0.00  0.00    +0.000 HD
ENDBRANCH  29  30
ENDBRANCH   6  29
TORSDOF 7
ENDMDL
