MODEL 1
REMARK VINA RESULT:      -9.7      0.000      0.000
REMARK  Name = 
REMARK  6 active torsions:
REMARK  status: ('A' for Active; 'I' for Inactive)
REMARK    1  A    between atoms: C_1  and  N_2
REMARK    2  A    between atoms: C_6  and  C_7
REMARK    3  A    between atoms: C_7  and  C_8
REMARK    4  A    between atoms: C_8  and  C_9
REMARK    5  A    between atoms: C_13  and  N_14
REMARK    6  A    between atoms: C_20  and  C_21
REMARK                            x       y       z     vdW  Elec       q    Type
REMARK                         _______ _______ _______ _____ _____    ______ ____
ROOT
ATOM      1  C   UNL     1       4.487   5.014  17.223  0.00  0.00    +0.000 A 
ATOM      2  C   UNL     1       3.646   3.890  17.242  0.00  0.00    +0.000 A 
ATOM      3  C   UNL     1       2.349   3.958  17.753  0.00  0.00    +0.000 A 
ATOM      4  C   UNL     1       1.849   5.163  18.258  0.00  0.00    +0.000 A 
ATOM      5  C   UNL     1       2.612   6.330  18.233  0.00  0.00    +0.000 A 
ATOM      6  C   UNL     1       3.915   6.214  17.704  0.00  0.00    +0.000 A 
ENDROOT
BRANCH   5   7
ATOM      7  N   UNL     1       2.147   7.533  18.718  0.00  0.00    +0.000 N 
ATOM      8  C   UNL     1       2.078   8.723  17.854  0.00  0.00    +0.000 C 
ATOM      9  C   UNL     1       1.515   9.752  18.769  0.00  0.00    +0.000 A 
ATOM     10  C   UNL     1       1.331  11.091  18.533  0.00  0.00    +0.000 A 
ATOM     11  N   UNL     1       0.834  11.917  19.478  0.00  0.00    +0.000 NA
ATOM     12  C   UNL     1       0.522  11.371  20.685  0.00  0.00    +0.000 A 
ATOM     13  C   UNL     1       0.668  10.024  21.010  0.00  0.00    +0.000 A 
ATOM     14  C   UNL     1       1.177   9.207  20.008  0.00  0.00    +0.000 A 
ATOM     15  C   UNL     1       1.453   7.728  20.003  0.00  0.00    +0.000 C 
BRANCH  13  16
ATOM     16  C   UNL     1       0.299   9.531  22.369  0.00  0.00    +0.000 C 
ATOM     17  F   UNL     1      -0.233  10.493  23.174  0.00  0.00    +0.000 F 
ATOM     18  F   UNL     1      -0.626   8.531  22.326  0.00  0.00    +0.000 F 
ATOM     19  F   UNL     1       1.362   9.024  23.050  0.00  0.00    +0.000 F 
ENDBRANCH  13  16
ENDBRANCH   5   7
BRANCH   1  20
ATOM     20  C   UNL     1       6.034   4.934  16.750  0.00  0.00    +0.000 C 
ATOM     21  C   UNL     1       6.831   6.268  16.634  0.00  0.00    +0.000 C 
ATOM     22  O   UNL     1       7.783   5.857  17.639  0.00  0.00    +0.000 OA
ATOM     23  C   UNL     1       7.050   4.645  17.892  0.00  0.00    +0.000 C 
BRANCH  20  24
ATOM     24  C   UNL     1       6.225   3.980  15.548  0.00  0.00    +0.000 C 
BRANCH  24  30
ATOM     25  C   UNL     1       5.773   3.334  12.494  0.00  0.00    +0.000 C 
ATOM     26  N   UNL     1       6.701   4.281  13.054  0.00  0.00    +0.000 N 
ATOM     27  C   UNL     1       7.568   5.046  12.329  0.00  0.00    +0.000 A 
ATOM     28  N   UNL     1       8.288   5.778  13.144  0.00  0.00    +0.000 NA
ATOM     29  N   UNL     1       7.896   5.484  14.424  0.00  0.00    +0.000 NA
ATOM     30  C   UNL     1       6.922   4.592  14.372  0.00  0.00    +0.000 A 
ENDBRANCH  24  30
ENDBRANCH  20  24
ENDBRANCH   1  20
TORSDOF 5
ENDMDL
MODEL 2
REMARK VINA RESULT:      -9.5      2.966      4.300
REMARK  Name = 
REMARK  6 active torsions:
REMARK  status: ('A' for Active; 'I' for Inactive)
REMARK    1  A    between atoms: C_1  and  N_2
REMARK    2  A    between atoms: C_6  and  C_7
REMARK    3  A    between atoms: C_7  and  C_8
REMARK    4  A    between atoms: C_8  and  C_9
REMARK    5  A    between atoms: C_13  and  N_14
REMARK    6  A    between atoms: C_20  and  C_21
REMARK                            x       y       z     vdW  Elec       q    Type
REMARK                         _______ _______ _______ _____ _____    ______ ____
ROOT
ATOM      1  C   UNL     1       3.107   5.703  18.573  0.00  0.00    +0.000 A 
ATOM      2  C   UNL     1       3.677   6.282  17.428  0.00  0.00    +0.000 A 
ATOM      3  C   UNL     1       3.464   7.624  17.108  0.00  0.00    +0.000 A 
ATOM      4  C   UNL     1       2.674   8.433  17.931  0.00  0.00    +0.000 A 
ATOM      5  C   UNL     1       2.111   7.938  19.107  0.00  0.00    +0.000 A 
ATOM      6  C   UNL     1       2.357   6.578  19.393  0.00  0.00    +0.000 A 
ENDROOT
BRANCH   5   7
ATOM      7  N   UNL     1       1.333   8.710  19.942  0.00  0.00    +0.000 N 
ATOM      8  C   UNL     1       1.274   8.440  21.387  0.00  0.00    +0.000 C 
ATOM      9  C   UNL     1       0.354   9.502  21.875  0.00  0.00    +0.000 A 
ATOM     10  C   UNL     1      -0.154   9.673  23.138  0.00  0.00    +0.000 A 
ATOM     11  N   UNL     1      -1.012  10.673  23.430  0.00  0.00    +0.000 NA
ATOM     12  C   UNL     1      -1.362  11.512  22.416  0.00  0.00    +0.000 A 
ATOM     13  C   UNL     1      -0.891  11.419  21.108  0.00  0.00    +0.000 A 
ATOM     14  C   UNL     1      -0.005  10.379  20.852  0.00  0.00    +0.000 A 
ATOM     15  C   UNL     1       0.698   9.990  19.581  0.00  0.00    +0.000 C 
BRANCH  13  16
ATOM     16  C   UNL     1      -1.344  12.391  20.071  0.00  0.00    +0.000 C 
ATOM     17  F   UNL     1      -1.931  11.804  18.991  0.00  0.00    +0.000 F 
ATOM     18  F   UNL     1      -2.258  13.279  20.553  0.00  0.00    +0.000 F 
ATOM     19  F   UNL     1      -0.323  13.141  19.574  0.00  0.00    +0.000 F 
ENDBRANCH  13  16
ENDBRANCH   5   7
BRANCH   1  20
ATOM     20  C   UNL     1       3.237   4.123  18.904  0.00  0.00    +0.000 C 
ATOM     21  C   UNL     1       2.833   3.641  20.329  0.00  0.00    +0.000 C 
ATOM     22  O   UNL     1       1.784   2.795  19.812  0.00  0.00    +0.000 OA
ATOM     23  C   UNL     1       2.013   3.265  18.472  0.00  0.00    +0.000 C 
BRANCH  20  24
ATOM     24  C   UNL     1       4.570   3.530  18.392  0.00  0.00    +0.000 C 
BRANCH  24  30
ATOM     25  C   UNL     1       6.829   4.471  16.402  0.00  0.00    +0.000 C 
ATOM     26  N   UNL     1       6.747   4.741  17.813  0.00  0.00    +0.000 N 
ATOM     27  C   UNL     1       7.671   5.443  18.529  0.00  0.00    +0.000 A 
ATOM     28  N   UNL     1       7.310   5.482  19.789  0.00  0.00    +0.000 NA
ATOM     29  N   UNL     1       6.134   4.788  19.905  0.00  0.00    +0.000 NA
ATOM     30  C   UNL     1       5.780   4.354  18.708  0.00  0.00    +0.000 A 
ENDBRANCH  24  30
ENDBRANCH  20  24
ENDBRANCH   1  20
TORSDOF 5
ENDMDL
MODEL 3
REMARK VINA RESULT:      -9.5      1.756      2.911
REMARK  Name = 
REMARK  6 active torsions:
REMARK  status: ('A' for Active; 'I' for Inactive)
REMARK    1  A    between atoms: C_1  and  N_2
REMARK    2  A    between atoms: C_6  and  C_7
REMARK    3  A    between atoms: C_7  and  C_8
REMARK    4  A    between atoms: C_8  and  C_9
REMARK    5  A    between atoms: C_13  and  N_14
REMARK    6  A    between atoms: C_20  and  C_21
REMARK                            x       y       z     vdW  Elec       q    Type
REMARK                         _______ _______ _______ _____ _____    ______ ____
ROOT
ATOM      1  C   UNL     1       4.514   4.543  17.280  0.00  0.00    +0.000 A 
ATOM      2  C   UNL     1       4.036   3.405  17.947  0.00  0.00    +0.000 A 
ATOM      3  C   UNL     1       3.050   3.497  18.931  0.00  0.00    +0.000 A 
ATOM      4  C   UNL     1       2.505   4.738  19.274  0.00  0.00    +0.000 A 
ATOM      5  C   UNL     1       2.901   5.907  18.624  0.00  0.00    +0.000 A 
ATOM      6  C   UNL     1       3.896   5.765  17.634  0.00  0.00    +0.000 A 
ENDROOT
BRANCH   5   7
ATOM      7  N   UNL     1       2.379   7.144  18.935  0.00  0.00    +0.000 N 
ATOM      8  C   UNL     1       2.281   8.202  17.918  0.00  0.00    +0.000 C 
ATOM      9  C   UNL     1       1.660   9.321  18.677  0.00  0.00    +0.000 A 
ATOM     10  C   UNL     1       1.429  10.607  18.260  0.00  0.00    +0.000 A 
ATOM     11  N   UNL     1       0.881  11.532  19.077  0.00  0.00    +0.000 NA
ATOM     12  C   UNL     1       0.567  11.140  20.343  0.00  0.00    +0.000 A 
ATOM     13  C   UNL     1       0.759   9.857  20.848  0.00  0.00    +0.000 A 
ATOM     14  C   UNL     1       1.319   8.934  19.973  0.00  0.00    +0.000 A 
ATOM     15  C   UNL     1       1.653   7.481  20.172  0.00  0.00    +0.000 C 
BRANCH  13  16
ATOM     16  C   UNL     1       0.382   9.535  22.256  0.00  0.00    +0.000 C 
ATOM     17  F   UNL     1      -0.542   8.539  22.360  0.00  0.00    +0.000 F 
ATOM     18  F   UNL     1       1.448   9.131  23.001  0.00  0.00    +0.000 F 
ATOM     19  F   UNL     1      -0.148  10.602  22.914  0.00  0.00    +0.000 F 
ENDBRANCH  13  16
ENDBRANCH   5   7
BRANCH   1  20
ATOM     20  C   UNL     1       5.740   4.481  16.224  0.00  0.00    +0.000 C 
ATOM     21  C   UNL     1       5.675   3.414  15.091  0.00  0.00    +0.000 C 
ATOM     22  O   UNL     1       5.675   4.422  14.058  0.00  0.00    +0.000 OA
ATOM     23  C   UNL     1       5.627   5.477  15.034  0.00  0.00    +0.000 C 
BRANCH  20  24
ATOM     24  C   UNL     1       7.116   4.571  16.925  0.00  0.00    +0.000 C 
BRANCH  24  30
ATOM     25  C   UNL     1       7.879   5.555  19.823  0.00  0.00    +0.000 C 
ATOM     26  N   UNL     1       7.833   6.345  18.621  0.00  0.00    +0.000 N 
ATOM     27  C   UNL     1       8.096   7.682  18.555  0.00  0.00    +0.000 A 
ATOM     28  N   UNL     1       7.938   8.097  17.322  0.00  0.00    +0.000 NA
ATOM     29  N   UNL     1       7.557   7.019  16.566  0.00  0.00    +0.000 NA
ATOM     30  C   UNL     1       7.512   5.953  17.345  0.00  0.00    +0.000 A 
ENDBRANCH  24  30
ENDBRANCH  20  24
ENDBRANCH   1  20
TORSDOF 5
ENDMDL
MODEL 4
REMARK VINA RESULT:      -9.3      1.806      2.290
REMARK  Name = 
REMARK  6 active torsions:
REMARK  status: ('A' for Active; 'I' for Inactive)
REMARK    1  A    between atoms: C_1  and  N_2
REMARK    2  A    between atoms: C_6  and  C_7
REMARK    3  A    between atoms: C_7  and  C_8
REMARK    4  A    between atoms: C_8  and  C_9
REMARK    5  A    between atoms: C_13  and  N_14
REMARK    6  A    between atoms: C_20  and  C_21
REMARK                            x       y       z     vdW  Elec       q    Type
REMARK                         _______ _______ _______ _____ _____    ______ ____
ROOT
ATOM      1  C   UNL     1       4.422   4.845  17.210  0.00  0.00    +0.000 A 
ATOM      2  C   UNL     1       3.587   3.734  17.011  0.00  0.00    +0.000 A 
ATOM      3  C   UNL     1       2.292   3.693  17.530  0.00  0.00    +0.000 A 
ATOM      4  C   UNL     1       1.788   4.772  18.262  0.00  0.00    +0.000 A 
ATOM      5  C   UNL     1       2.544   5.927  18.464  0.00  0.00    +0.000 A 
ATOM      6  C   UNL     1       3.845   5.925  17.917  0.00  0.00    +0.000 A 
ENDROOT
BRANCH   5   7
ATOM      7  N   UNL     1       2.074   7.009  19.175  0.00  0.00    +0.000 N 
ATOM      8  C   UNL     1       1.968   6.963  20.642  0.00  0.00    +0.000 C 
ATOM      9  C   UNL     1       1.447   8.318  20.970  0.00  0.00    +0.000 A 
ATOM     10  C   UNL     1       1.052   8.806  22.189  0.00  0.00    +0.000 A 
ATOM     11  N   UNL     1       0.566  10.057  22.331  0.00  0.00    +0.000 NA
ATOM     12  C   UNL     1       0.477  10.823  21.210  0.00  0.00    +0.000 A 
ATOM     13  C   UNL     1       0.861  10.415  19.935  0.00  0.00    +0.000 A 
ATOM     14  C   UNL     1       1.362   9.122  19.834  0.00  0.00    +0.000 A 
ATOM     15  C   UNL     1       1.872   8.366  18.638  0.00  0.00    +0.000 C 
BRANCH  13  16
ATOM     16  C   UNL     1       0.716  11.336  18.770  0.00  0.00    +0.000 C 
ATOM     17  F   UNL     1       0.293  12.586  19.111  0.00  0.00    +0.000 F 
ATOM     18  F   UNL     1       1.888  11.514  18.098  0.00  0.00    +0.000 F 
ATOM     19  F   UNL     1      -0.176  10.882  17.849  0.00  0.00    +0.000 F 
ENDBRANCH  13  16
ENDBRANCH   5   7
BRANCH   1  20
ATOM     20  C   UNL     1       5.967   4.869  16.725  0.00  0.00    +0.000 C 
ATOM     21  C   UNL     1       6.670   6.253  16.596  0.00  0.00    +0.000 C 
ATOM     22  O   UNL     1       7.655   5.915  17.596  0.00  0.00    +0.000 OA
ATOM     23  C   UNL     1       7.009   4.657  17.861  0.00  0.00    +0.000 C 
BRANCH  20  24
ATOM     24  C   UNL     1       6.215   3.923  15.527  0.00  0.00    +0.000 C 
BRANCH  24  30
ATOM     25  C   UNL     1       5.783   3.328  12.460  0.00  0.00    +0.000 C 
ATOM     26  N   UNL     1       6.702   4.270  13.041  0.00  0.00    +0.000 N 
ATOM     27  C   UNL     1       7.569   5.052  12.335  0.00  0.00    +0.000 A 
ATOM     28  N   UNL     1       8.281   5.774  13.166  0.00  0.00    +0.000 NA
ATOM     29  N   UNL     1       7.884   5.455  14.439  0.00  0.00    +0.000 NA
ATOM     30  C   UNL     1       6.915   4.560  14.366  0.00  0.00    +0.000 A 
ENDBRANCH  24  30
ENDBRANCH  20  24
ENDBRANCH   1  20
TORSDOF 5
ENDMDL
MODEL 5
REMARK VINA RESULT:      -9.2      1.975      3.067
REMARK  Name = 
REMARK  6 active torsions:
REMARK  status: ('A' for Active; 'I' for Inactive)
REMARK    1  A    between atoms: C_1  and  N_2
REMARK    2  A    between atoms: C_6  and  C_7
REMARK    3  A    between atoms: C_7  and  C_8
REMARK    4  A    between atoms: C_8  and  C_9
REMARK    5  A    between atoms: C_13  and  N_14
REMARK    6  A    between atoms: C_20  and  C_21
REMARK                            x       y       z     vdW  Elec       q    Type
REMARK                         _______ _______ _______ _____ _____    ______ ____
ROOT
ATOM      1  C   UNL     1       4.471   4.808  16.874  0.00  0.00    +0.000 A 
ATOM      2  C   UNL     1       3.992   3.630  17.468  0.00  0.00    +0.000 A 
ATOM      3  C   UNL     1       3.019   3.661  18.469  0.00  0.00    +0.000 A 
ATOM      4  C   UNL     1       2.488   4.880  18.903  0.00  0.00    +0.000 A 
ATOM      5  C   UNL     1       2.885   6.088  18.329  0.00  0.00    +0.000 A 
ATOM      6  C   UNL     1       3.867   6.007  17.319  0.00  0.00    +0.000 A 
ENDROOT
BRANCH   5   7
ATOM      7  N   UNL     1       2.378   7.304  18.731  0.00  0.00    +0.000 N 
ATOM      8  C   UNL     1       2.315   8.443  17.802  0.00  0.00    +0.000 C 
ATOM      9  C   UNL     1       1.698   9.507  18.638  0.00  0.00    +0.000 A 
ATOM     10  C   UNL     1       1.495  10.827  18.323  0.00  0.00    +0.000 A 
ATOM     11  N   UNL     1       0.947  11.692  19.203  0.00  0.00    +0.000 NA
ATOM     12  C   UNL     1       0.604  11.204  20.427  0.00  0.00    +0.000 A 
ATOM     13  C   UNL     1       0.765   9.881  20.830  0.00  0.00    +0.000 A 
ATOM     14  C   UNL     1       1.327   9.023  19.892  0.00  0.00    +0.000 A 
ATOM     15  C   UNL     1       1.634   7.553  19.978  0.00  0.00    +0.000 C 
BRANCH  13  16
ATOM     16  C   UNL     1       0.357   9.453  22.199  0.00  0.00    +0.000 C 
ATOM     17  F   UNL     1       1.386   8.971  22.951  0.00  0.00    +0.000 F 
ATOM     18  F   UNL     1      -0.185  10.472  22.924  0.00  0.00    +0.000 F 
ATOM     19  F   UNL     1      -0.582   8.468  22.184  0.00  0.00    +0.000 F 
ENDBRANCH  13  16
ENDBRANCH   5   7
BRANCH   1  20
ATOM     20  C   UNL     1       5.683   4.809  15.801  0.00  0.00    +0.000 C 
ATOM     21  C   UNL     1       6.290   3.436  15.383  0.00  0.00    +0.000 C 
ATOM     22  O   UNL     1       5.915   3.621  14.001  0.00  0.00    +0.000 OA
ATOM     23  C   UNL     1       5.235   4.850  14.312  0.00  0.00    +0.000 C 
BRANCH  20  24
ATOM     24  C   UNL     1       6.739   5.893  16.118  0.00  0.00    +0.000 C 
BRANCH  24  30
ATOM     25  C   UNL     1       7.891   8.271  17.840  0.00  0.00    +0.000 C 
ATOM     26  N   UNL     1       7.799   6.887  18.223  0.00  0.00    +0.000 N 
ATOM     27  C   UNL     1       8.231   6.374  19.411  0.00  0.00    +0.000 A 
ATOM     28  N   UNL     1       8.025   5.080  19.428  0.00  0.00    +0.000 NA
ATOM     29  N   UNL     1       7.457   4.733  18.229  0.00  0.00    +0.000 NA
ATOM     30  C   UNL     1       7.301   5.827  17.505  0.00  0.00    +0.000 A 
ENDBRANCH  24  30
ENDBRANCH  20  24
ENDBRANCH   1  20
TORSDOF 5
ENDMDL
MODEL 6
REMARK VINA RESULT:      -9.1      0.967      1.161
REMARK  Name = 
REMARK  6 active torsions:
REMARK  status: ('A' for Active; 'I' for Inactive)
REMARK    1  A    between atoms: C_1  and  N_2
REMARK    2  A    between atoms: C_6  and  C_7
REMARK    3  A    between atoms: C_7  and  C_8
REMARK    4  A    between atoms: C_8  and  C_9
REMARK    5  A    between atoms: C_13  and  N_14
REMARK    6  A    between atoms: C_20  and  C_21
REMARK                            x       y       z     vdW  Elec       q    Type
REMARK                         _______ _______ _______ _____ _____    ______ ____
ROOT
ATOM      1  C   UNL     1       4.749   5.281  18.259  0.00  0.00    +0.000 A 
ATOM      2  C   UNL     1       4.246   4.058  18.728  0.00  0.00    +0.000 A 
ATOM      3  C   UNL     1       3.073   3.993  19.483  0.00  0.00    +0.000 A 
ATOM      4  C   UNL     1       2.361   5.157  19.787  0.00  0.00    +0.000 A 
ATOM      5  C   UNL     1       2.777   6.403  19.319  0.00  0.00    +0.000 A 
ATOM      6  C   UNL     1       3.965   6.420  18.557  0.00  0.00    +0.000 A 
ENDROOT
BRANCH   5   7
ATOM      7  N   UNL     1       2.095   7.567  19.597  0.00  0.00    +0.000 N 
ATOM      8  C   UNL     1       1.890   8.591  18.560  0.00  0.00    +0.000 C 
ATOM      9  C   UNL     1       1.112   9.632  19.286  0.00  0.00    +0.000 A 
ATOM     10  C   UNL     1       0.730  10.873  18.842  0.00  0.00    +0.000 A 
ATOM     11  N   UNL     1       0.049  11.731  19.629  0.00  0.00    +0.000 NA
ATOM     12  C   UNL     1      -0.246  11.319  20.893  0.00  0.00    +0.000 A 
ATOM     13  C   UNL     1       0.094  10.078  21.425  0.00  0.00    +0.000 A 
ATOM     14  C   UNL     1       0.790   9.222  20.579  0.00  0.00    +0.000 A 
ATOM     15  C   UNL     1       1.299   7.826  20.810  0.00  0.00    +0.000 C 
BRANCH  13  16
ATOM     16  C   UNL     1      -0.276   9.729  22.828  0.00  0.00    +0.000 C 
ATOM     17  F   UNL     1       0.797   9.502  23.636  0.00  0.00    +0.000 F 
ATOM     18  F   UNL     1      -0.996  10.713  23.437  0.00  0.00    +0.000 F 
ATOM     19  F   UNL     1      -1.042   8.607  22.906  0.00  0.00    +0.000 F 
ENDBRANCH  13  16
ENDBRANCH   5   7
BRANCH   1  20
ATOM     20  C   UNL     1       6.168   5.399  17.488  0.00  0.00    +0.000 C 
ATOM     21  C   UNL     1       6.613   6.808  16.991  0.00  0.00    +0.000 C 
ATOM     22  O   UNL     1       7.793   6.796  17.824  0.00  0.00    +0.000 OA
ATOM     23  C   UNL     1       7.405   5.545  18.420  0.00  0.00    +0.000 C 
BRANCH  20  24
ATOM     24  C   UNL     1       6.357   4.275  16.444  0.00  0.00    +0.000 C 
BRANCH  24  30
ATOM     25  C   UNL     1       5.223   3.666  13.564  0.00  0.00    +0.000 C 
ATOM     26  N   UNL     1       6.390   4.443  13.892  0.00  0.00    +0.000 N 
ATOM     27  C   UNL     1       7.219   5.029  12.982  0.00  0.00    +0.000 A 
ATOM     28  N   UNL     1       8.197   5.635  13.609  0.00  0.00    +0.000 NA
ATOM     29  N   UNL     1       8.014   5.438  14.954  0.00  0.00    +0.000 NA
ATOM     30  C   UNL     1       6.910   4.733  15.129  0.00  0.00    +0.000 A 
ENDBRANCH  24  30
ENDBRANCH  20  24
ENDBRANCH   1  20
TORSDOF 5
ENDMDL
MODEL 7
REMARK VINA RESULT:      -9.1      0.793      1.315
REMARK  Name = 
REMARK  6 active torsions:
REMARK  status: ('A' for Active; 'I' for Inactive)
REMARK    1  A    between atoms: C_1  and  N_2
REMARK    2  A    between atoms: C_6  and  C_7
REMARK    3  A    between atoms: C_7  and  C_8
REMARK    4  A    between atoms: C_8  and  C_9
REMARK    5  A    between atoms: C_13  and  N_14
REMARK    6  A    between atoms: C_20  and  C_21
REMARK                            x       y       z     vdW  Elec       q    Type
REMARK                         _______ _______ _______ _____ _____    ______ ____
ROOT
ATOM      1  C   UNL     1       4.478   5.291  17.221  0.00  0.00    +0.000 A 
ATOM      2  C   UNL     1       3.855   4.078  17.553  0.00  0.00    +0.000 A 
ATOM      3  C   UNL     1       2.703   4.043  18.341  0.00  0.00    +0.000 A 
ATOM      4  C   UNL     1       2.133   5.227  18.818  0.00  0.00    +0.000 A 
ATOM      5  C   UNL     1       2.673   6.472  18.494  0.00  0.00    +0.000 A 
ATOM      6  C   UNL     1       3.834   6.460  17.692  0.00  0.00    +0.000 A 
ENDROOT
BRANCH   5   7
ATOM      7  N   UNL     1       2.133   7.657  18.943  0.00  0.00    +0.000 N 
ATOM      8  C   UNL     1       2.015   8.822  18.052  0.00  0.00    +0.000 C 
ATOM      9  C   UNL     1       1.378   9.837  18.934  0.00  0.00    +0.000 A 
ATOM     10  C   UNL     1       1.125  11.159  18.665  0.00  0.00    +0.000 A 
ATOM     11  N   UNL     1       0.565  11.976  19.581  0.00  0.00    +0.000 NA
ATOM     12  C   UNL     1       0.261  11.439  20.795  0.00  0.00    +0.000 A 
ATOM     13  C   UNL     1       0.474  10.110  21.152  0.00  0.00    +0.000 A 
ATOM     14  C   UNL     1       1.047   9.301  20.177  0.00  0.00    +0.000 A 
ATOM     15  C   UNL     1       1.404   7.840  20.211  0.00  0.00    +0.000 C 
BRANCH  13  16
ATOM     16  C   UNL     1       0.107   9.625  22.514  0.00  0.00    +0.000 C 
ATOM     17  F   UNL     1      -0.484  10.575  23.292  0.00  0.00    +0.000 F 
ATOM     18  F   UNL     1      -0.769   8.581  22.477  0.00  0.00    +0.000 F 
ATOM     19  F   UNL     1       1.181   9.183  23.222  0.00  0.00    +0.000 F 
ENDBRANCH  13  16
ENDBRANCH   5   7
BRANCH   1  20
ATOM     20  C   UNL     1       5.880   5.356  16.414  0.00  0.00    +0.000 C 
ATOM     21  C   UNL     1       7.115   5.965  17.143  0.00  0.00    +0.000 C 
ATOM     22  O   UNL     1       7.855   4.728  17.054  0.00  0.00    +0.000 OA
ATOM     23  C   UNL     1       6.726   4.051  16.473  0.00  0.00    +0.000 C 
BRANCH  20  24
ATOM     24  C   UNL     1       5.693   5.860  14.964  0.00  0.00    +0.000 C 
BRANCH  24  30
ATOM     25  C   UNL     1       8.216   5.581  13.091  0.00  0.00    +0.000 C 
ATOM     26  N   UNL     1       7.049   4.739  13.108  0.00  0.00    +0.000 N 
ATOM     27  C   UNL     1       6.840   3.678  12.277  0.00  0.00    +0.000 A 
ATOM     28  N   UNL     1       5.671   3.145  12.535  0.00  0.00    +0.000 NA
ATOM     29  N   UNL     1       5.097   3.871  13.547  0.00  0.00    +0.000 NA
ATOM     30  C   UNL     1       5.937   4.825  13.909  0.00  0.00    +0.000 A 
ENDBRANCH  24  30
ENDBRANCH  20  24
ENDBRANCH   1  20
TORSDOF 5
ENDMDL
MODEL 8
REMARK VINA RESULT:      -9.0      3.978      9.170
REMARK  Name = 
REMARK  6 active torsions:
REMARK  status: ('A' for Active; 'I' for Inactive)
REMARK    1  A    between atoms: C_1  and  N_2
REMARK    2  A    between atoms: C_6  and  C_7
REMARK    3  A    between atoms: C_7  and  C_8
REMARK    4  A    between atoms: C_8  and  C_9
REMARK    5  A    between atoms: C_13  and  N_14
REMARK    6  A    between atoms: C_20  and  C_21
REMARK                            x       y       z     vdW  Elec       q    Type
REMARK                         _______ _______ _______ _____ _____    ______ ____
ROOT
ATOM      1  C   UNL     1       0.424  10.160  19.919  0.00  0.00    +0.000 A 
ATOM      2  C   UNL     1       0.204   9.830  21.265  0.00  0.00    +0.000 A 
ATOM      3  C   UNL     1       0.704   8.650  21.817  0.00  0.00    +0.000 A 
ATOM      4  C   UNL     1       1.449   7.761  21.035  0.00  0.00    +0.000 A 
ATOM      5  C   UNL     1       1.744   8.043  19.701  0.00  0.00    +0.000 A 
ATOM      6  C   UNL     1       1.222   9.249  19.187  0.00  0.00    +0.000 A 
ENDROOT
BRANCH   5   7
ATOM      7  N   UNL     1       2.479   7.191  18.906  0.00  0.00    +0.000 N 
ATOM      8  C   UNL     1       3.478   7.712  17.960  0.00  0.00    +0.000 C 
ATOM      9  C   UNL     1       4.021   6.468  17.349  0.00  0.00    +0.000 A 
ATOM     10  C   UNL     1       4.914   6.348  16.315  0.00  0.00    +0.000 A 
ATOM     11  N   UNL     1       5.296   5.143  15.841  0.00  0.00    +0.000 NA
ATOM     12  C   UNL     1       4.754   4.041  16.429  0.00  0.00    +0.000 A 
ATOM     13  C   UNL     1       3.848   4.068  17.487  0.00  0.00    +0.000 A 
ATOM     14  C   UNL     1       3.487   5.328  17.949  0.00  0.00    +0.000 A 
ATOM     15  C   UNL     1       2.558   5.728  19.062  0.00  0.00    +0.000 C 
BRANCH  13  16
ATOM     16  C   UNL     1       3.312   2.797  18.055  0.00  0.00    +0.000 C 
ATOM     17  F   UNL     1       3.526   2.664  19.394  0.00  0.00    +0.000 F 
ATOM     18  F   UNL     1       1.967   2.674  17.881  0.00  0.00    +0.000 F 
ATOM     19  F   UNL     1       3.862   1.692  17.482  0.00  0.00    +0.000 F 
ENDBRANCH  13  16
ENDBRANCH   5   7
BRANCH   1  20
ATOM     20  C   UNL     1      -0.245  11.460  19.222  0.00  0.00    +0.000 C 
ATOM     21  C   UNL     1      -1.277  11.224  18.079  0.00  0.00    +0.000 C 
ATOM     22  O   UNL     1      -2.336  11.869  18.819  0.00  0.00    +0.000 OA
ATOM     23  C   UNL     1      -1.484  12.033  19.967  0.00  0.00    +0.000 C 
BRANCH  20  24
ATOM     24  C   UNL     1       0.801  12.555  18.909  0.00  0.00    +0.000 C 
BRANCH  24  30
ATOM     25  C   UNL     1       0.067  15.615  19.124  0.00  0.00    +0.000 C 
ATOM     26  N   UNL     1       0.756  14.816  20.103  0.00  0.00    +0.000 N 
ATOM     27  C   UNL     1       1.232  15.279  21.294  0.00  0.00    +0.000 A 
ATOM     28  N   UNL     1       1.830  14.303  21.934  0.00  0.00    +0.000 NA
ATOM     29  N   UNL     1       1.754  13.182  21.148  0.00  0.00    +0.000 NA
ATOM     30  C   UNL     1       1.088  13.484  20.047  0.00  0.00    +0.000 A 
ENDBRANCH  24  30
ENDBRANCH  20  24
ENDBRANCH   1  20
TORSDOF 5
ENDMDL
MODEL 9
REMARK VINA RESULT:      -8.8      4.343      9.293
REMARK  Name = 
REMARK  6 active torsions:
REMARK  status: ('A' for Active; 'I' for Inactive)
REMARK    1  A    between atoms: C_1  and  N_2
REMARK    2  A    between atoms: C_6  and  C_7
REMARK    3  A    between atoms: C_7  and  C_8
REMARK    4  A    between atoms: C_8  and  C_9
REMARK    5  A    between atoms: C_13  and  N_14
REMARK    6  A    between atoms: C_20  and  C_21
REMARK                            x       y       z     vdW  Elec       q    Type
REMARK                         _______ _______ _______ _____ _____    ______ ____
ROOT
ATOM      1  C   UNL     1       0.503  10.260  20.098  0.00  0.00    +0.000 A 
ATOM      2  C   UNL     1       0.317  10.108  21.481  0.00  0.00    +0.000 A 
ATOM      3  C   UNL     1       0.769   8.973  22.156  0.00  0.00    +0.000 A 
ATOM      4  C   UNL     1       1.429   7.952  21.465  0.00  0.00    +0.000 A 
ATOM      5  C   UNL     1       1.687   8.054  20.098  0.00  0.00    +0.000 A 
ATOM      6  C   UNL     1       1.217   9.221  19.458  0.00  0.00    +0.000 A 
ENDROOT
BRANCH   5   7
ATOM      7  N   UNL     1       2.340   7.069  19.389  0.00  0.00    +0.000 N 
ATOM      8  C   UNL     1       2.042   5.646  19.617  0.00  0.00    +0.000 C 
ATOM      9  C   UNL     1       2.943   4.969  18.647  0.00  0.00    +0.000 A 
ATOM     10  C   UNL     1       3.171   3.625  18.492  0.00  0.00    +0.000 A 
ATOM     11  N   UNL     1       4.049   3.152  17.583  0.00  0.00    +0.000 NA
ATOM     12  C   UNL     1       4.710   4.066  16.819  0.00  0.00    +0.000 A 
ATOM     13  C   UNL     1       4.537   5.446  16.902  0.00  0.00    +0.000 A 
ATOM     14  C   UNL     1       3.619   5.890  17.847  0.00  0.00    +0.000 A 
ATOM     15  C   UNL     1       3.180   7.285  18.197  0.00  0.00    +0.000 C 
BRANCH  13  16
ATOM     16  C   UNL     1       5.318   6.359  16.018  0.00  0.00    +0.000 C 
ATOM     17  F   UNL     1       4.541   7.184  15.262  0.00  0.00    +0.000 F 
ATOM     18  F   UNL     1       6.151   7.177  16.720  0.00  0.00    +0.000 F 
ATOM     19  F   UNL     1       6.110   5.689  15.139  0.00  0.00    +0.000 F 
ENDBRANCH  13  16
ENDBRANCH   5   7
BRANCH   1  20
ATOM     20  C   UNL     1      -0.116  11.507  19.270  0.00  0.00    +0.000 C 
ATOM     21  C   UNL     1      -1.084  11.191  18.092  0.00  0.00    +0.000 C 
ATOM     22  O   UNL     1      -2.178  11.892  18.721  0.00  0.00    +0.000 OA
ATOM     23  C   UNL     1      -1.391  12.138  19.900  0.00  0.00    +0.000 C 
BRANCH  20  24
ATOM     24  C   UNL     1       0.954  12.572  18.937  0.00  0.00    +0.000 C 
BRANCH  24  30
ATOM     25  C   UNL     1       0.105  15.599  19.193  0.00  0.00    +0.000 C 
ATOM     26  N   UNL     1       0.879  14.831  20.133  0.00  0.00    +0.000 N 
ATOM     27  C   UNL     1       1.399  15.317  21.297  0.00  0.00    +0.000 A 
ATOM     28  N   UNL     1       2.072  14.369  21.903  0.00  0.00    +0.000 NA
ATOM     29  N   UNL     1       2.001  13.244  21.121  0.00  0.00    +0.000 NA
ATOM     30  C   UNL     1       1.264  13.515  20.059  0.00  0.00    +0.000 A 
ENDBRANCH  24  30
ENDBRANCH  20  24
ENDBRANCH   1  20
TORSDOF 5
ENDMDL
