MODEL 1
REMARK VINA RESULT:      -8.5      0.000      0.000
REMARK  Name = 
REMARK  5 active torsions:
REMARK  status: ('A' for Active; 'I' for Inactive)
REMARK    1  A    between atoms: C_2  and  C_17
REMARK    2  A    between atoms: N_3  and  C_4
REMARK    3  A    between atoms: C_6  and  S_7
REMARK    4  A    between atoms: S_7  and  C_10
REMARK    5  A    between atoms: C_22  and  C_23
REMARK                            x       y       z     vdW  Elec       q    Type
REMARK                         _______ _______ _______ _____ _____    ______ ____
ROOT
ATOM      1  O   UNL     1       1.902   9.402  17.382  0.00  0.00    +0.000 OA
ATOM      2  C   UNL     1       1.753   9.010  18.533  0.00  0.00    +0.000 C 
ATOM      3  N   UNL     1       2.107   7.741  18.954  0.00  0.00    +0.000 N 
ATOM      4  H   UNL     1       1.761   7.432  19.854  0.00  0.00    +0.000 HD
ENDROOT
BRANCH   2   5
ATOM      5  C   UNL     1       1.129   9.907  19.548  0.00  0.00    +0.000 A 
ATOM      6  C   UNL     1       1.105  11.283  19.283  0.00  0.00    +0.000 A 
ATOM      7  C   UNL     1       0.543  12.166  20.206  0.00  0.00    +0.000 A 
ATOM      8  C   UNL     1       0.005  11.678  21.393  0.00  0.00    +0.000 A 
ATOM      9  F   UNL     1      -0.525  12.554  22.257  0.00  0.00    +0.000 F 
ATOM     10  C   UNL     1       0.017  10.316  21.686  0.00  0.00    +0.000 A 
ATOM     11  C   UNL     1       0.597   9.427  20.754  0.00  0.00    +0.000 A 
BRANCH  10  12
ATOM     12  C   UNL     1      -0.582   9.792  22.958  0.00  0.00    +0.000 C 
ATOM     13  F   UNL     1      -1.601  10.528  23.472  0.00  0.00    +0.000 F 
ATOM     14  F   UNL     1      -1.080   8.532  22.792  0.00  0.00    +0.000 F 
ATOM     15  F   UNL     1       0.343   9.688  23.953  0.00  0.00    +0.000 F 
ENDBRANCH  10  12
ENDBRANCH   2   5
BRANCH   3  16
ATOM     16  C   UNL     1       2.628   6.729  18.001  0.00  0.00    +0.000 C 
ATOM     17  C   UNL     1       4.157   6.789  17.748  0.00  0.00    +0.000 C 
ATOM     18  C   UNL     1       4.325   5.816  18.935  0.00  0.00    +0.000 C 
ATOM     19  C   UNL     1       2.878   5.345  18.651  0.00  0.00    +0.000 C 
BRANCH  18  20
ATOM     20  S   UNL     1       5.582   4.556  18.766  0.00  0.00    +0.000 S 
ATOM     21  O   UNL     1       6.787   5.036  19.423  0.00  0.00    +0.000 OA
ATOM     22  O   UNL     1       5.034   3.267  19.148  0.00  0.00    +0.000 OA
BRANCH  20  23
ATOM     23  C   UNL     1       5.979   4.441  17.029  0.00  0.00    +0.000 A 
ATOM     24  C   UNL     1       5.071   3.845  16.150  0.00  0.00    +0.000 A 
ATOM     25  C   UNL     1       5.369   3.794  14.788  0.00  0.00    +0.000 A 
ATOM     26  C   UNL     1       6.561   4.344  14.312  0.00  0.00    +0.000 A 
ATOM     27  C   UNL     1       7.460   4.946  15.195  0.00  0.00    +0.000 A 
ATOM     28  C   UNL     1       7.170   5.000  16.558  0.00  0.00    +0.000 A 
ENDBRANCH  20  23
ENDBRANCH  18  20
ENDBRANCH   3  16
TORSDOF 5
ENDMDL
MODEL 2
REMARK VINA RESULT:      -8.4      4.642      8.676
REMARK  Name = 
REMARK  5 active torsions:
REMARK  status: ('A' for Active; 'I' for Inactive)
REMARK    1  A    between atoms: C_2  and  C_17
REMARK    2  A    between atoms: N_3  and  C_4
REMARK    3  A    between atoms: C_6  and  S_7
REMARK    4  A    between atoms: S_7  and  C_10
REMARK    5  A    between atoms: C_22  and  C_23
REMARK                            x       y       z     vdW  Elec       q    Type
REMARK                         _______ _______ _______ _____ _____    ______ ____
ROOT
ATOM      1  O   UNL     1       3.892   7.800  17.476  0.00  0.00    +0.000 OA
ATOM      2  C   UNL     1       3.036   7.177  18.093  0.00  0.00    +0.000 C 
ATOM      3  N   UNL     1       2.090   7.783  18.899  0.00  0.00    +0.000 N 
ATOM      4  H   UNL     1       1.562   7.191  19.530  0.00  0.00    +0.000 HD
ENDROOT
BRANCH   2   5
ATOM      5  C   UNL     1       3.005   5.688  18.019  0.00  0.00    +0.000 A 
ATOM      6  C   UNL     1       3.953   5.049  17.209  0.00  0.00    +0.000 A 
ATOM      7  C   UNL     1       3.959   3.659  17.097  0.00  0.00    +0.000 A 
ATOM      8  C   UNL     1       3.020   2.903  17.793  0.00  0.00    +0.000 A 
ATOM      9  F   UNL     1       3.054   1.571  17.662  0.00  0.00    +0.000 F 
ATOM     10  C   UNL     1       2.063   3.510  18.605  0.00  0.00    +0.000 A 
ATOM     11  C   UNL     1       2.054   4.918  18.706  0.00  0.00    +0.000 A 
BRANCH  10  12
ATOM     12  C   UNL     1       1.064   2.691  19.369  0.00  0.00    +0.000 C 
ATOM     13  F   UNL     1       1.590   1.755  20.202  0.00  0.00    +0.000 F 
ATOM     14  F   UNL     1       0.268   3.477  20.150  0.00  0.00    +0.000 F 
ATOM     15  F   UNL     1       0.213   2.021  18.542  0.00  0.00    +0.000 F 
ENDBRANCH  10  12
ENDBRANCH   2   5
BRANCH   3  16
ATOM     16  C   UNL     1       2.102   9.249  19.136  0.00  0.00    +0.000 C 
ATOM     17  C   UNL     1       1.422  10.099  18.031  0.00  0.00    +0.000 C 
ATOM     18  C   UNL     1       0.102   9.943  18.817  0.00  0.00    +0.000 C 
ATOM     19  C   UNL     1       0.971   9.727  20.080  0.00  0.00    +0.000 C 
BRANCH  18  20
ATOM     20  S   UNL     1      -0.973  11.370  18.867  0.00  0.00    +0.000 S 
ATOM     21  O   UNL     1      -1.634  11.388  20.162  0.00  0.00    +0.000 OA
ATOM     22  O   UNL     1      -0.242  12.545  18.429  0.00  0.00    +0.000 OA
BRANCH  20  23
ATOM     23  C   UNL     1      -2.261  11.099  17.659  0.00  0.00    +0.000 A 
ATOM     24  C   UNL     1      -2.025  10.249  16.575  0.00  0.00    +0.000 A 
ATOM     25  C   UNL     1      -3.049  10.009  15.657  0.00  0.00    +0.000 A 
ATOM     26  C   UNL     1      -4.297  10.609  15.831  0.00  0.00    +0.000 A 
ATOM     27  C   UNL     1      -4.529  11.450  16.921  0.00  0.00    +0.000 A 
ATOM     28  C   UNL     1      -3.511  11.696  17.843  0.00  0.00    +0.000 A 
ENDBRANCH  20  23
ENDBRANCH  18  20
ENDBRANCH   3  16
TORSDOF 5
ENDMDL
MODEL 3
REMARK VINA RESULT:      -8.3      3.330      3.945
REMARK  Name = 
REMARK  5 active torsions:
REMARK  status: ('A' for Active; 'I' for Inactive)
REMARK    1  A    between atoms: C_2  and  C_17
REMARK    2  A    between atoms: N_3  and  C_4
REMARK    3  A    between atoms: C_6  and  S_7
REMARK    4  A    between atoms: S_7  and  C_10
REMARK    5  A    between atoms: C_22  and  C_23
REMARK                            x       y       z     vdW  Elec       q    Type
REMARK                         _______ _______ _______ _____ _____    ______ ____
ROOT
ATOM      1  O   UNL     1       2.225   9.980  17.626  0.00  0.00    +0.000 OA
ATOM      2  C   UNL     1       1.344   9.488  18.321  0.00  0.00    +0.000 C 
ATOM      3  N   UNL     1       1.518   8.332  19.060  0.00  0.00    +0.000 N 
ATOM      4  H   UNL     1       0.689   7.885  19.432  0.00  0.00    +0.000 HD
ENDROOT
BRANCH   2   5
ATOM      5  C   UNL     1      -0.005  10.122  18.367  0.00  0.00    +0.000 A 
ATOM      6  C   UNL     1      -0.336  10.881  19.498  0.00  0.00    +0.000 A 
ATOM      7  C   UNL     1      -1.590  11.485  19.595  0.00  0.00    +0.000 A 
ATOM      8  C   UNL     1      -2.515  11.334  18.565  0.00  0.00    +0.000 A 
ATOM      9  F   UNL     1      -3.709  11.926  18.692  0.00  0.00    +0.000 F 
ATOM     10  C   UNL     1      -2.215  10.583  17.430  0.00  0.00    +0.000 A 
ATOM     11  C   UNL     1      -0.949   9.964  17.342  0.00  0.00    +0.000 A 
BRANCH  10  12
ATOM     12  C   UNL     1      -3.207  10.438  16.314  0.00  0.00    +0.000 C 
ATOM     13  F   UNL     1      -4.510  10.586  16.666  0.00  0.00    +0.000 F 
ATOM     14  F   UNL     1      -2.983  11.353  15.326  0.00  0.00    +0.000 F 
ATOM     15  F   UNL     1      -3.119   9.221  15.707  0.00  0.00    +0.000 F 
ENDBRANCH  10  12
ENDBRANCH   2   5
BRANCH   3  16
ATOM     16  C   UNL     1       2.782   7.556  18.994  0.00  0.00    +0.000 C 
ATOM     17  C   UNL     1       2.766   6.207  19.760  0.00  0.00    +0.000 C 
ATOM     18  C   UNL     1       2.251   5.552  18.460  0.00  0.00    +0.000 C 
ATOM     19  C   UNL     1       2.923   6.721  17.699  0.00  0.00    +0.000 C 
BRANCH  18  20
ATOM     20  S   UNL     1       2.887   3.927  18.076  0.00  0.00    +0.000 S 
ATOM     21  O   UNL     1       2.972   3.175  19.317  0.00  0.00    +0.000 OA
ATOM     22  O   UNL     1       2.148   3.367  16.959  0.00  0.00    +0.000 OA
BRANCH  20  23
ATOM     23  C   UNL     1       4.568   4.141  17.512  0.00  0.00    +0.000 A 
ATOM     24  C   UNL     1       4.855   4.057  16.147  0.00  0.00    +0.000 A 
ATOM     25  C   UNL     1       6.164   4.266  15.709  0.00  0.00    +0.000 A 
ATOM     26  C   UNL     1       7.170   4.563  16.629  0.00  0.00    +0.000 A 
ATOM     27  C   UNL     1       6.874   4.654  17.991  0.00  0.00    +0.000 A 
ATOM     28  C   UNL     1       5.569   4.446  18.438  0.00  0.00    +0.000 A 
ENDBRANCH  20  23
ENDBRANCH  18  20
ENDBRANCH   3  16
TORSDOF 5
ENDMDL
MODEL 4
REMARK VINA RESULT:      -8.2      4.630      8.671
REMARK  Name = 
REMARK  5 active torsions:
REMARK  status: ('A' for Active; 'I' for Inactive)
REMARK    1  A    between atoms: C_2  and  C_17
REMARK    2  A    between atoms: N_3  and  C_4
REMARK    3  A    between atoms: C_6  and  S_7
REMARK    4  A    between atoms: S_7  and  C_10
REMARK    5  A    between atoms: C_22  and  C_23
REMARK                            x       y       z     vdW  Elec       q    Type
REMARK                         _______ _______ _______ _____ _____    ______ ____
ROOT
ATOM      1  O   UNL     1       4.202   7.591  17.454  0.00  0.00    +0.000 OA
ATOM      2  C   UNL     1       3.247   7.019  17.965  0.00  0.00    +0.000 C 
ATOM      3  N   UNL     1       2.217   7.685  18.603  0.00  0.00    +0.000 N 
ATOM      4  H   UNL     1       1.585   7.135  19.173  0.00  0.00    +0.000 HD
ENDROOT
BRANCH   2   5
ATOM      5  C   UNL     1       3.177   5.530  17.945  0.00  0.00    +0.000 A 
ATOM      6  C   UNL     1       4.139   4.836  17.199  0.00  0.00    +0.000 A 
ATOM      7  C   UNL     1       4.110   3.442  17.138  0.00  0.00    +0.000 A 
ATOM      8  C   UNL     1       3.123   2.739  17.822  0.00  0.00    +0.000 A 
ATOM      9  F   UNL     1       3.124   1.402  17.741  0.00  0.00    +0.000 F 
ATOM     10  C   UNL     1       2.151   3.401  18.570  0.00  0.00    +0.000 A 
ATOM     11  C   UNL     1       2.177   4.812  18.618  0.00  0.00    +0.000 A 
BRANCH  10  12
ATOM     12  C   UNL     1       1.099   2.639  19.321  0.00  0.00    +0.000 C 
ATOM     13  F   UNL     1       0.457   3.333  20.296  0.00  0.00    +0.000 F 
ATOM     14  F   UNL     1       0.122   2.183  18.485  0.00  0.00    +0.000 F 
ATOM     15  F   UNL     1       1.607   1.528  19.925  0.00  0.00    +0.000 F 
ENDBRANCH  10  12
ENDBRANCH   2   5
BRANCH   3  16
ATOM     16  C   UNL     1       2.243   9.158  18.783  0.00  0.00    +0.000 C 
ATOM     17  C   UNL     1       1.371   9.959  17.781  0.00  0.00    +0.000 C 
ATOM     18  C   UNL     1       0.207   9.818  18.785  0.00  0.00    +0.000 C 
ATOM     19  C   UNL     1       1.282   9.660  19.888  0.00  0.00    +0.000 C 
BRANCH  18  20
ATOM     20  S   UNL     1      -0.869  11.235  18.967  0.00  0.00    +0.000 S 
ATOM     21  O   UNL     1      -1.457  11.182  20.296  0.00  0.00    +0.000 OA
ATOM     22  O   UNL     1      -0.167  12.435  18.551  0.00  0.00    +0.000 OA
BRANCH  20  23
ATOM     23  C   UNL     1      -2.220  11.018  17.821  0.00  0.00    +0.000 A 
ATOM     24  C   UNL     1      -3.410  11.725  18.013  0.00  0.00    +0.000 A 
ATOM     25  C   UNL     1      -4.449  11.583  17.091  0.00  0.00    +0.000 A 
ATOM     26  C   UNL     1      -4.290  10.748  15.984  0.00  0.00    +0.000 A 
ATOM     27  C   UNL     1      -3.095  10.051  15.793  0.00  0.00    +0.000 A 
ATOM     28  C   UNL     1      -2.053  10.186  16.710  0.00  0.00    +0.000 A 
ENDBRANCH  20  23
ENDBRANCH  18  20
ENDBRANCH   3  16
TORSDOF 5
ENDMDL
MODEL 5
REMARK VINA RESULT:      -8.1      1.105      2.307
REMARK  Name = 
REMARK  5 active torsions:
REMARK  status: ('A' for Active; 'I' for Inactive)
REMARK    1  A    between atoms: C_2  and  C_17
REMARK    2  A    between atoms: N_3  and  C_4
REMARK    3  A    between atoms: C_6  and  S_7
REMARK    4  A    between atoms: S_7  and  C_10
REMARK    5  A    between atoms: C_22  and  C_23
REMARK                            x       y       z     vdW  Elec       q    Type
REMARK                         _______ _______ _______ _____ _____    ______ ____
ROOT
ATOM      1  O   UNL     1       1.629   9.658  18.037  0.00  0.00    +0.000 OA
ATOM      2  C   UNL     1       1.479   8.984  19.049  0.00  0.00    +0.000 C 
ATOM      3  N   UNL     1       1.930   7.682  19.167  0.00  0.00    +0.000 N 
ATOM      4  H   UNL     1       1.584   7.135  19.946  0.00  0.00    +0.000 HD
ENDROOT
BRANCH   2   5
ATOM      5  C   UNL     1       0.747   9.553  20.218  0.00  0.00    +0.000 A 
ATOM      6  C   UNL     1       0.869   8.900  21.451  0.00  0.00    +0.000 A 
ATOM      7  C   UNL     1       0.195   9.386  22.572  0.00  0.00    +0.000 A 
ATOM      8  C   UNL     1      -0.601  10.523  22.465  0.00  0.00    +0.000 A 
ATOM      9  F   UNL     1      -1.234  10.961  23.560  0.00  0.00    +0.000 F 
ATOM     10  C   UNL     1      -0.743  11.192  21.250  0.00  0.00    +0.000 A 
ATOM     11  C   UNL     1      -0.069  10.690  20.116  0.00  0.00    +0.000 A 
BRANCH  10  12
ATOM     12  C   UNL     1      -1.587  12.428  21.142  0.00  0.00    +0.000 C 
ATOM     13  F   UNL     1      -2.890  12.280  21.495  0.00  0.00    +0.000 F 
ATOM     14  F   UNL     1      -1.101  13.433  21.928  0.00  0.00    +0.000 F 
ATOM     15  F   UNL     1      -1.597  12.931  19.876  0.00  0.00    +0.000 F 
ENDBRANCH  10  12
ENDBRANCH   2   5
BRANCH   3  16
ATOM     16  C   UNL     1       2.567   6.979  18.025  0.00  0.00    +0.000 C 
ATOM     17  C   UNL     1       4.083   6.695  18.190  0.00  0.00    +0.000 C 
ATOM     18  C   UNL     1       3.692   5.354  18.849  0.00  0.00    +0.000 C 
ATOM     19  C   UNL     1       2.364   5.445  18.058  0.00  0.00    +0.000 C 
BRANCH  18  20
ATOM     20  S   UNL     1       4.717   3.943  18.458  0.00  0.00    +0.000 S 
ATOM     21  O   UNL     1       5.767   3.860  19.461  0.00  0.00    +0.000 OA
ATOM     22  O   UNL     1       3.876   2.784  18.217  0.00  0.00    +0.000 OA
BRANCH  20  23
ATOM     23  C   UNL     1       5.537   4.301  16.913  0.00  0.00    +0.000 A 
ATOM     24  C   UNL     1       6.881   4.684  16.916  0.00  0.00    +0.000 A 
ATOM     25  C   UNL     1       7.528   4.923  15.703  0.00  0.00    +0.000 A 
ATOM     26  C   UNL     1       6.836   4.770  14.500  0.00  0.00    +0.000 A 
ATOM     27  C   UNL     1       5.496   4.378  14.504  0.00  0.00    +0.000 A 
ATOM     28  C   UNL     1       4.841   4.138  15.712  0.00  0.00    +0.000 A 
ENDBRANCH  20  23
ENDBRANCH  18  20
ENDBRANCH   3  16
TORSDOF 5
ENDMDL
MODEL 6
REMARK VINA RESULT:      -8.1      1.077      2.082
REMARK  Name = 
REMARK  5 active torsions:
REMARK  status: ('A' for Active; 'I' for Inactive)
REMARK    1  A    between atoms: C_2  and  C_17
REMARK    2  A    between atoms: N_3  and  C_4
REMARK    3  A    between atoms: C_6  and  S_7
REMARK    4  A    between atoms: S_7  and  C_10
REMARK    5  A    between atoms: C_22  and  C_23
REMARK                            x       y       z     vdW  Elec       q    Type
REMARK                         _______ _______ _______ _____ _____    ______ ____
ROOT
ATOM      1  O   UNL     1       1.554   9.392  18.010  0.00  0.00    +0.000 OA
ATOM      2  C   UNL     1       1.454   8.858  19.108  0.00  0.00    +0.000 C 
ATOM      3  N   UNL     1       1.960   7.603  19.390  0.00  0.00    +0.000 N 
ATOM      4  H   UNL     1       1.654   7.155  20.245  0.00  0.00    +0.000 HD
ENDROOT
BRANCH   2   5
ATOM      5  C   UNL     1       0.726   9.554  20.207  0.00  0.00    +0.000 A 
ATOM      6  C   UNL     1       0.858   9.050  21.507  0.00  0.00    +0.000 A 
ATOM      7  C   UNL     1       0.188   9.658  22.569  0.00  0.00    +0.000 A 
ATOM      8  C   UNL     1      -0.615  10.770  22.335  0.00  0.00    +0.000 A 
ATOM      9  F   UNL     1      -1.245  11.329  23.377  0.00  0.00    +0.000 F 
ATOM     10  C   UNL     1      -0.769  11.293  21.053  0.00  0.00    +0.000 A 
ATOM     11  C   UNL     1      -0.099  10.667  19.980  0.00  0.00    +0.000 A 
BRANCH  10  12
ATOM     12  C   UNL     1      -1.621  12.504  20.807  0.00  0.00    +0.000 C 
ATOM     13  F   UNL     1      -1.236  13.632  21.459  0.00  0.00    +0.000 F 
ATOM     14  F   UNL     1      -1.651  12.832  19.483  0.00  0.00    +0.000 F 
ATOM     15  F   UNL     1      -2.921  12.294  21.158  0.00  0.00    +0.000 F 
ENDBRANCH  10  12
ENDBRANCH   2   5
BRANCH   3  16
ATOM     16  C   UNL     1       2.600   6.774  18.337  0.00  0.00    +0.000 C 
ATOM     17  C   UNL     1       4.145   6.888  18.259  0.00  0.00    +0.000 C 
ATOM     18  C   UNL     1       4.216   5.726  19.273  0.00  0.00    +0.000 C 
ATOM     19  C   UNL     1       2.818   5.301  18.763  0.00  0.00    +0.000 C 
BRANCH  18  20
ATOM     20  S   UNL     1       5.516   4.524  19.023  0.00  0.00    +0.000 S 
ATOM     21  O   UNL     1       6.715   5.019  19.679  0.00  0.00    +0.000 OA
ATOM     22  O   UNL     1       5.023   3.199  19.354  0.00  0.00    +0.000 OA
BRANCH  20  23
ATOM     23  C   UNL     1       5.882   4.504  17.275  0.00  0.00    +0.000 A 
ATOM     24  C   UNL     1       4.943   3.989  16.378  0.00  0.00    +0.000 A 
ATOM     25  C   UNL     1       5.218   4.013  15.009  0.00  0.00    +0.000 A 
ATOM     26  C   UNL     1       6.419   4.555  14.548  0.00  0.00    +0.000 A 
ATOM     27  C   UNL     1       7.349   5.076  15.450  0.00  0.00    +0.000 A 
ATOM     28  C   UNL     1       7.082   5.055  16.819  0.00  0.00    +0.000 A 
ENDBRANCH  20  23
ENDBRANCH  18  20
ENDBRANCH   3  16
TORSDOF 5
ENDMDL
MODEL 7
REMARK VINA RESULT:      -8.0      3.438      4.106
REMARK  Name = 
REMARK  5 active torsions:
REMARK  status: ('A' for Active; 'I' for Inactive)
REMARK    1  A    between atoms: C_2  and  C_17
REMARK    2  A    between atoms: N_3  and  C_4
REMARK    3  A    between atoms: C_6  and  S_7
REMARK    4  A    between atoms: S_7  and  C_10
REMARK    5  A    between atoms: C_22  and  C_23
REMARK                            x       y       z     vdW  Elec       q    Type
REMARK                         _______ _______ _______ _____ _____    ______ ____
ROOT
ATOM      1  O   UNL     1       1.239   9.392  20.500  0.00  0.00    +0.000 OA
ATOM      2  C   UNL     1       0.817   9.311  19.353  0.00  0.00    +0.000 C 
ATOM      3  N   UNL     1       1.420   8.541  18.375  0.00  0.00    +0.000 N 
ATOM      4  H   UNL     1       1.134   8.694  17.415  0.00  0.00    +0.000 HD
ENDROOT
BRANCH   2   5
ATOM      5  C   UNL     1      -0.386  10.095  18.948  0.00  0.00    +0.000 A 
ATOM      6  C   UNL     1      -0.846  11.091  19.819  0.00  0.00    +0.000 A 
ATOM      7  C   UNL     1      -1.974  11.844  19.491  0.00  0.00    +0.000 A 
ATOM      8  C   UNL     1      -2.644  11.605  18.296  0.00  0.00    +0.000 A 
ATOM      9  F   UNL     1      -3.723  12.346  18.014  0.00  0.00    +0.000 F 
ATOM     10  C   UNL     1      -2.212  10.619  17.410  0.00  0.00    +0.000 A 
ATOM     11  C   UNL     1      -1.077   9.851  17.751  0.00  0.00    +0.000 A 
BRANCH  10  12
ATOM     12  C   UNL     1      -2.926  10.377  16.113  0.00  0.00    +0.000 C 
ATOM     13  F   UNL     1      -2.631   9.205  15.493  0.00  0.00    +0.000 F 
ATOM     14  F   UNL     1      -4.280  10.376  16.282  0.00  0.00    +0.000 F 
ATOM     15  F   UNL     1      -2.675  11.357  15.201  0.00  0.00    +0.000 F 
ENDBRANCH  10  12
ENDBRANCH   2   5
BRANCH   3  16
ATOM     16  C   UNL     1       2.687   7.813  18.638  0.00  0.00    +0.000 C 
ATOM     17  C   UNL     1       2.542   6.530  19.497  0.00  0.00    +0.000 C 
ATOM     18  C   UNL     1       2.322   5.753  18.182  0.00  0.00    +0.000 C 
ATOM     19  C   UNL     1       3.112   6.882  17.476  0.00  0.00    +0.000 C 
BRANCH  18  20
ATOM     20  S   UNL     1       3.060   4.128  18.079  0.00  0.00    +0.000 S 
ATOM     21  O   UNL     1       3.175   3.602  19.430  0.00  0.00    +0.000 OA
ATOM     22  O   UNL     1       2.370   3.343  17.071  0.00  0.00    +0.000 OA
BRANCH  20  23
ATOM     23  C   UNL     1       4.731   4.347  17.490  0.00  0.00    +0.000 A 
ATOM     24  C   UNL     1       5.745   4.676  18.394  0.00  0.00    +0.000 A 
ATOM     25  C   UNL     1       7.057   4.805  17.934  0.00  0.00    +0.000 A 
ATOM     26  C   UNL     1       7.348   4.599  16.585  0.00  0.00    +0.000 A 
ATOM     27  C   UNL     1       6.332   4.262  15.689  0.00  0.00    +0.000 A 
ATOM     28  C   UNL     1       5.018   4.131  16.139  0.00  0.00    +0.000 A 
ENDBRANCH  20  23
ENDBRANCH  18  20
ENDBRANCH   3  16
TORSDOF 5
ENDMDL
MODEL 8
REMARK VINA RESULT:      -8.0      5.089      8.935
REMARK  Name = 
REMARK  5 active torsions:
REMARK  status: ('A' for Active; 'I' for Inactive)
REMARK    1  A    between atoms: C_2  and  C_17
REMARK    2  A    between atoms: N_3  and  C_4
REMARK    3  A    between atoms: C_6  and  S_7
REMARK    4  A    between atoms: S_7  and  C_10
REMARK    5  A    between atoms: C_22  and  C_23
REMARK                            x       y       z     vdW  Elec       q    Type
REMARK                         _______ _______ _______ _____ _____    ______ ____
ROOT
ATOM      1  O   UNL     1       3.086   7.580  18.533  0.00  0.00    +0.000 OA
ATOM      2  C   UNL     1       2.301   7.132  19.361  0.00  0.00    +0.000 C 
ATOM      3  N   UNL     1       1.500   7.931  20.156  0.00  0.00    +0.000 N 
ATOM      4  H   UNL     1       1.043   7.495  20.948  0.00  0.00    +0.000 HD
ENDROOT
BRANCH   2   5
ATOM      5  C   UNL     1       2.204   5.659  19.569  0.00  0.00    +0.000 A 
ATOM      6  C   UNL     1       1.517   5.198  20.699  0.00  0.00    +0.000 A 
ATOM      7  C   UNL     1       1.409   3.829  20.946  0.00  0.00    +0.000 A 
ATOM      8  C   UNL     1       1.986   2.918  20.066  0.00  0.00    +0.000 A 
ATOM      9  F   UNL     1       1.863   1.612  20.333  0.00  0.00    +0.000 F 
ATOM     10  C   UNL     1       2.679   3.347  18.935  0.00  0.00    +0.000 A 
ATOM     11  C   UNL     1       2.796   4.733  18.696  0.00  0.00    +0.000 A 
BRANCH  10  12
ATOM     12  C   UNL     1       3.284   2.361  17.978  0.00  0.00    +0.000 C 
ATOM     13  F   UNL     1       3.991   1.351  18.548  0.00  0.00    +0.000 F 
ATOM     14  F   UNL     1       2.328   1.759  17.212  0.00  0.00    +0.000 F 
ATOM     15  F   UNL     1       4.131   2.960  17.096  0.00  0.00    +0.000 F 
ENDBRANCH  10  12
ENDBRANCH   2   5
BRANCH   3  16
ATOM     16  C   UNL     1       1.600   9.411  20.114  0.00  0.00    +0.000 C 
ATOM     17  C   UNL     1       1.063  10.070  18.816  0.00  0.00    +0.000 C 
ATOM     18  C   UNL     1      -0.318  10.143  19.503  0.00  0.00    +0.000 C 
ATOM     19  C   UNL     1       0.442  10.127  20.852  0.00  0.00    +0.000 C 
BRANCH  18  20
ATOM     20  S   UNL     1      -1.289  11.612  19.193  0.00  0.00    +0.000 S 
ATOM     21  O   UNL     1      -2.108  11.862  20.368  0.00  0.00    +0.000 OA
ATOM     22  O   UNL     1      -0.427  12.668  18.693  0.00  0.00    +0.000 OA
BRANCH  20  23
ATOM     23  C   UNL     1      -2.425  11.220  17.873  0.00  0.00    +0.000 A 
ATOM     24  C   UNL     1      -3.729  11.722  17.912  0.00  0.00    +0.000 A 
ATOM     25  C   UNL     1      -4.601  11.447  16.857  0.00  0.00    +0.000 A 
ATOM     26  C   UNL     1      -4.166  10.684  15.772  0.00  0.00    +0.000 A 
ATOM     27  C   UNL     1      -2.859  10.193  15.736  0.00  0.00    +0.000 A 
ATOM     28  C   UNL     1      -1.981  10.463  16.786  0.00  0.00    +0.000 A 
ENDBRANCH  20  23
ENDBRANCH  18  20
ENDBRANCH   3  16
TORSDOF 5
ENDMDL
MODEL 9
REMARK VINA RESULT:      -7.9      4.437      5.772
REMARK  Name = 
REMARK  5 active torsions:
REMARK  status: ('A' for Active; 'I' for Inactive)
REMARK    1  A    between atoms: C_2  and  C_17
REMARK    2  A    between atoms: N_3  and  C_4
REMARK    3  A    between atoms: C_6  and  S_7
REMARK    4  A    between atoms: S_7  and  C_10
REMARK    5  A    between atoms: C_22  and  C_23
REMARK                            x       y       z     vdW  Elec       q    Type
REMARK                         _______ _______ _______ _____ _____    ______ ____
ROOT
ATOM      1  O   UNL     1      -0.062   9.854  20.023  0.00  0.00    +0.000 OA
ATOM      2  C   UNL     1      -0.134   9.873  18.800  0.00  0.00    +0.000 C 
ATOM      3  N   UNL     1       0.896   9.465  17.973  0.00  0.00    +0.000 N 
ATOM      4  H   UNL     1       0.834   9.708  16.992  0.00  0.00    +0.000 HD
ENDROOT
BRANCH   2   5
ATOM      5  C   UNL     1      -1.367  10.388  18.138  0.00  0.00    +0.000 A 
ATOM      6  C   UNL     1      -2.177  11.279  18.856  0.00  0.00    +0.000 A 
ATOM      7  C   UNL     1      -3.347  11.780  18.285  0.00  0.00    +0.000 A 
ATOM      8  C   UNL     1      -3.711  11.395  16.998  0.00  0.00    +0.000 A 
ATOM      9  F   UNL     1      -4.841  11.895  16.481  0.00  0.00    +0.000 F 
ATOM     10  C   UNL     1      -2.928  10.508  16.261  0.00  0.00    +0.000 A 
ATOM     11  C   UNL     1      -1.751   9.995  16.847  0.00  0.00    +0.000 A 
BRANCH  10  12
ATOM     12  C   UNL     1      -3.314  10.110  14.866  0.00  0.00    +0.000 C 
ATOM     13  F   UNL     1      -2.387   9.386  14.187  0.00  0.00    +0.000 F 
ATOM     14  F   UNL     1      -4.451   9.356  14.860  0.00  0.00    +0.000 F 
ATOM     15  F   UNL     1      -3.591  11.190  14.084  0.00  0.00    +0.000 F 
ENDBRANCH  10  12
ENDBRANCH   2   5
BRANCH   3  16
ATOM     16  C   UNL     1       2.208   9.044  18.525  0.00  0.00    +0.000 C 
ATOM     17  C   UNL     1       2.164   7.802  19.454  0.00  0.00    +0.000 C 
ATOM     18  C   UNL     1       2.371   6.935  18.194  0.00  0.00    +0.000 C 
ATOM     19  C   UNL     1       3.035   8.174  17.547  0.00  0.00    +0.000 C 
BRANCH  18  20
ATOM     20  S   UNL     1       3.432   5.507  18.371  0.00  0.00    +0.000 S 
ATOM     21  O   UNL     1       3.528   4.857  17.073  0.00  0.00    +0.000 OA
ATOM     22  O   UNL     1       4.650   5.888  19.062  0.00  0.00    +0.000 OA
BRANCH  20  23
ATOM     23  C   UNL     1       2.585   4.353  19.439  0.00  0.00    +0.000 A 
ATOM     24  C   UNL     1       2.816   4.390  20.817  0.00  0.00    +0.000 A 
ATOM     25  C   UNL     1       2.120   3.514  21.652  0.00  0.00    +0.000 A 
ATOM     26  C   UNL     1       1.199   2.617  21.110  0.00  0.00    +0.000 A 
ATOM     27  C   UNL     1       0.967   2.591  19.733  0.00  0.00    +0.000 A 
ATOM     28  C   UNL     1       1.658   3.463  18.892  0.00  0.00    +0.000 A 
ENDBRANCH  20  23
ENDBRANCH  18  20
ENDBRANCH   3  16
TORSDOF 5
ENDMDL
