MODEL 1
REMARK VINA RESULT:      -7.4      0.000      0.000
REMARK  Name = 
REMARK  6 active torsions:
REMARK  status: ('A' for Active; 'I' for Inactive)
REMARK    1  A    between atoms: C_1  and  C_2
REMARK    2  A    between atoms: C_6  and  N_7
REMARK    3  A    between atoms: C_10  and  C_11
REMARK    4  A    between atoms: N_13  and  C_14
REMARK    5  A    between atoms: C_19  and  N_20
REMARK    6  A    between atoms: C_25  and  C_26
REMARK                            x       y       z     vdW  Elec       q    Type
REMARK                         _______ _______ _______ _____ _____    ______ ____
ROOT
ATOM      1  C   UNL     1       1.115   9.376  21.062  0.00  0.00    +0.000 C 
ATOM      2  O   UNL     1       1.564   9.895  22.080  0.00  0.00    +0.000 OA
ATOM      3  N   UNL     1       0.177  10.011  20.263  0.00  0.00    +0.000 N 
ATOM      4  H   UNL     1      -0.211   9.466  19.499  0.00  0.00    +0.000 HD
ENDROOT
BRANCH   1   8
ATOM      5  N   UNL     1       2.274   6.332  19.416  0.00  0.00    +0.000 N 
ATOM      6  N   UNL     1       1.712   5.872  20.565  0.00  0.00    +0.000 NA
ATOM      7  N   UNL     1       1.344   6.905  21.308  0.00  0.00    +0.000 NA
ATOM      8  C   UNL     1       1.551   8.055  20.586  0.00  0.00    +0.000 A 
ATOM      9  C   UNL     1       2.118   7.714  19.359  0.00  0.00    +0.000 A 
ATOM     10  C   UNL     1       2.366   8.532  18.147  0.00  0.00    +0.000 C 
BRANCH   5  16
ATOM     11  C   UNL     1       6.127   4.797  16.617  0.00  0.00    +0.000 C 
ATOM     12  C   UNL     1       4.704   4.661  17.082  0.00  0.00    +0.000 A 
ATOM     13  C   UNL     1       3.930   3.572  16.664  0.00  0.00    +0.000 A 
ATOM     14  C   UNL     1       2.640   3.395  17.162  0.00  0.00    +0.000 A 
ATOM     15  C   UNL     1       2.112   4.294  18.090  0.00  0.00    +0.000 A 
ATOM     16  C   UNL     1       2.852   5.422  18.482  0.00  0.00    +0.000 A 
ATOM     17  C   UNL     1       4.149   5.595  17.978  0.00  0.00    +0.000 A 
ENDBRANCH   5  16
ENDBRANCH   1   8
BRANCH   3  18
ATOM     18  C   UNL     1      -0.325  11.375  20.526  0.00  0.00    +0.000 C 
ATOM     19  C   UNL     1      -1.368  11.432  21.657  0.00  0.00    +0.000 C 
ATOM     20  C   UNL     1      -1.883  12.850  21.925  0.00  0.00    +0.000 C 
ATOM     21  C   UNL     1      -2.348  13.589  20.675  0.00  0.00    +0.000 C 
ATOM     22  C   UNL     1      -1.308  13.534  19.557  0.00  0.00    +0.000 C 
ATOM     23  C   UNL     1      -0.810  12.108  19.247  0.00  0.00    +0.000 C 
BRANCH  23  24
ATOM     24  N   UNL     1      -1.790  11.350  18.469  0.00  0.00    +0.000 N 
ATOM     25  C   UNL     1      -3.119  11.647  18.329  0.00  0.00    +0.000 A 
ATOM     26  C   UNL     1      -3.655  10.650  17.547  0.00  0.00    +0.000 A 
ATOM     27  C   UNL     1      -2.574   9.801  17.262  0.00  0.00    +0.000 A 
ATOM     28  N   UNL     1      -1.437  10.233  17.807  0.00  0.00    +0.000 NA
ENDBRANCH  23  24
ENDBRANCH   3  18
TORSDOF 4
ENDMDL
MODEL 2
REMARK VINA RESULT:      -7.4      1.460      2.322
REMARK  Name = 
REMARK  6 active torsions:
REMARK  status: ('A' for Active; 'I' for Inactive)
REMARK    1  A    between atoms: C_1  and  C_2
REMARK    2  A    between atoms: C_6  and  N_7
REMARK    3  A    between atoms: C_10  and  C_11
REMARK    4  A    between atoms: N_13  and  C_14
REMARK    5  A    between atoms: C_19  and  N_20
REMARK    6  A    between atoms: C_25  and  C_26
REMARK                            x       y       z     vdW  Elec       q    Type
REMARK                         _______ _______ _______ _____ _____    ______ ____
ROOT
ATOM      1  C   UNL     1       0.629  10.517  20.524  0.00  0.00    +0.000 C 
ATOM      2  O   UNL     1       1.136  10.724  21.623  0.00  0.00    +0.000 OA
ATOM      3  N   UNL     1      -0.538  11.146  20.121  0.00  0.00    +0.000 N 
ATOM      4  H   UNL     1      -0.938  10.839  19.239  0.00  0.00    +0.000 HD
ENDROOT
BRANCH   1   8
ATOM      5  N   UNL     1       2.224   7.957  18.470  0.00  0.00    +0.000 N 
ATOM      6  N   UNL     1       2.145   9.025  17.634  0.00  0.00    +0.000 NA
ATOM      7  N   UNL     1       1.480   9.997  18.238  0.00  0.00    +0.000 NA
ATOM      8  C   UNL     1       1.228   9.611  19.532  0.00  0.00    +0.000 A 
ATOM      9  C   UNL     1       1.720   8.321  19.715  0.00  0.00    +0.000 A 
ATOM     10  C   UNL     1       1.880   7.512  20.949  0.00  0.00    +0.000 C 
BRANCH   5  16
ATOM     11  C   UNL     1       2.007   3.003  17.803  0.00  0.00    +0.000 C 
ATOM     12  C   UNL     1       2.742   4.310  17.708  0.00  0.00    +0.000 A 
ATOM     13  C   UNL     1       3.998   4.367  17.092  0.00  0.00    +0.000 A 
ATOM     14  C   UNL     1       4.643   5.591  16.923  0.00  0.00    +0.000 A 
ATOM     15  C   UNL     1       4.039   6.773  17.355  0.00  0.00    +0.000 A 
ATOM     16  C   UNL     1       2.803   6.733  18.023  0.00  0.00    +0.000 A 
ATOM     17  C   UNL     1       2.159   5.498  18.190  0.00  0.00    +0.000 A 
ENDBRANCH   5  16
ENDBRANCH   1   8
BRANCH   3  18
ATOM     18  C   UNL     1      -1.245  12.152  20.939  0.00  0.00    +0.000 C 
ATOM     19  C   UNL     1      -1.927  11.553  22.183  0.00  0.00    +0.000 C 
ATOM     20  C   UNL     1      -2.656  12.603  23.028  0.00  0.00    +0.000 C 
ATOM     21  C   UNL     1      -3.597  13.498  22.231  0.00  0.00    +0.000 C 
ATOM     22  C   UNL     1      -2.916  14.093  21.000  0.00  0.00    +0.000 C 
ATOM     23  C   UNL     1      -2.212  13.045  20.116  0.00  0.00    +0.000 C 
BRANCH  23  24
ATOM     24  N   UNL     1      -3.168  12.288  19.308  0.00  0.00    +0.000 N 
ATOM     25  C   UNL     1      -4.527  12.263  19.472  0.00  0.00    +0.000 A 
ATOM     26  C   UNL     1      -5.013  11.398  18.520  0.00  0.00    +0.000 A 
ATOM     27  C   UNL     1      -3.875  10.954  17.828  0.00  0.00    +0.000 A 
ATOM     28  N   UNL     1      -2.755  11.506  18.294  0.00  0.00    +0.000 NA
ENDBRANCH  23  24
ENDBRANCH   3  18
TORSDOF 4
ENDMDL
MODEL 3
REMARK VINA RESULT:      -7.3      2.325      8.702
REMARK  Name = 
REMARK  6 active torsions:
REMARK  status: ('A' for Active; 'I' for Inactive)
REMARK    1  A    between atoms: C_1  and  C_2
REMARK    2  A    between atoms: C_6  and  N_7
REMARK    3  A    between atoms: C_10  and  C_11
REMARK    4  A    between atoms: N_13  and  C_14
REMARK    5  A    between atoms: C_19  and  N_20
REMARK    6  A    between atoms: C_25  and  C_26
REMARK                            x       y       z     vdW  Elec       q    Type
REMARK                         _______ _______ _______ _____ _____    ______ ____
ROOT
ATOM      1  C   UNL     1       2.102   7.880  19.437  0.00  0.00    +0.000 C 
ATOM      2  O   UNL     1       2.097   8.128  18.235  0.00  0.00    +0.000 OA
ATOM      3  N   UNL     1       2.772   6.786  19.962  0.00  0.00    +0.000 N 
ATOM      4  H   UNL     1       2.637   6.604  20.952  0.00  0.00    +0.000 HD
ENDROOT
BRANCH   1   8
ATOM      5  N   UNL     1       0.382  10.350  21.501  0.00  0.00    +0.000 N 
ATOM      6  N   UNL     1       0.885   9.476  22.413  0.00  0.00    +0.000 NA
ATOM      7  N   UNL     1       1.448   8.463  21.772  0.00  0.00    +0.000 NA
ATOM      8  C   UNL     1       1.427   8.735  20.426  0.00  0.00    +0.000 A 
ATOM      9  C   UNL     1       0.777   9.951  20.228  0.00  0.00    +0.000 A 
ATOM     10  C   UNL     1       0.645  10.791  19.012  0.00  0.00    +0.000 C 
BRANCH   5  16
ATOM     11  C   UNL     1      -3.524  12.351  23.906  0.00  0.00    +0.000 C 
ATOM     12  C   UNL     1      -2.282  12.492  23.070  0.00  0.00    +0.000 A 
ATOM     13  C   UNL     1      -1.786  13.763  22.760  0.00  0.00    +0.000 A 
ATOM     14  C   UNL     1      -0.588  13.899  22.060  0.00  0.00    +0.000 A 
ATOM     15  C   UNL     1       0.135  12.768  21.673  0.00  0.00    +0.000 A 
ATOM     16  C   UNL     1      -0.372  11.483  21.929  0.00  0.00    +0.000 A 
ATOM     17  C   UNL     1      -1.578  11.353  22.633  0.00  0.00    +0.000 A 
ENDBRANCH   5  16
ENDBRANCH   1   8
BRANCH   3  18
ATOM     18  C   UNL     1       3.576   5.856  19.144  0.00  0.00    +0.000 C 
ATOM     19  C   UNL     1       2.984   5.610  17.744  0.00  0.00    +0.000 C 
ATOM     20  C   UNL     1       3.826   4.646  16.901  0.00  0.00    +0.000 C 
ATOM     21  C   UNL     1       4.180   3.346  17.612  0.00  0.00    +0.000 C 
ATOM     22  C   UNL     1       4.771   3.594  18.999  0.00  0.00    +0.000 C 
ATOM     23  C   UNL     1       3.916   4.530  19.875  0.00  0.00    +0.000 C 
BRANCH  23  24
ATOM     24  N   UNL     1       2.746   3.841  20.420  0.00  0.00    +0.000 N 
ATOM     25  C   UNL     1       2.742   2.938  21.448  0.00  0.00    +0.000 A 
ATOM     26  C   UNL     1       1.438   2.526  21.594  0.00  0.00    +0.000 A 
ATOM     27  C   UNL     1       0.728   3.237  20.613  0.00  0.00    +0.000 A 
ATOM     28  N   UNL     1       1.517   4.049  19.910  0.00  0.00    +0.000 NA
ENDBRANCH  23  24
ENDBRANCH   3  18
TORSDOF 4
ENDMDL
MODEL 4
REMARK VINA RESULT:      -7.3      1.983      8.612
REMARK  Name = 
REMARK  6 active torsions:
REMARK  status: ('A' for Active; 'I' for Inactive)
REMARK    1  A    between atoms: C_1  and  C_2
REMARK    2  A    between atoms: C_6  and  N_7
REMARK    3  A    between atoms: C_10  and  C_11
REMARK    4  A    between atoms: N_13  and  C_14
REMARK    5  A    between atoms: C_19  and  N_20
REMARK    6  A    between atoms: C_25  and  C_26
REMARK                            x       y       z     vdW  Elec       q    Type
REMARK                         _______ _______ _______ _____ _____    ______ ____
ROOT
ATOM      1  C   UNL     1       2.072   8.163  19.190  0.00  0.00    +0.000 C 
ATOM      2  O   UNL     1       2.521   8.585  18.129  0.00  0.00    +0.000 OA
ATOM      3  N   UNL     1       2.453   6.939  19.718  0.00  0.00    +0.000 N 
ATOM      4  H   UNL     1       1.956   6.628  20.547  0.00  0.00    +0.000 HD
ENDROOT
BRANCH   1   8
ATOM      5  N   UNL     1      -0.174  10.468  20.910  0.00  0.00    +0.000 N 
ATOM      6  N   UNL     1      -0.098   9.412  21.762  0.00  0.00    +0.000 NA
ATOM      7  N   UNL     1       0.614   8.451  21.193  0.00  0.00    +0.000 NA
ATOM      8  C   UNL     1       1.118   8.928  20.007  0.00  0.00    +0.000 A 
ATOM      9  C   UNL     1       0.653  10.228  19.817  0.00  0.00    +0.000 A 
ATOM     10  C   UNL     1       1.033  11.255  18.817  0.00  0.00    +0.000 C 
BRANCH   5  16
ATOM     11  C   UNL     1      -1.279  14.325  23.901  0.00  0.00    +0.000 C 
ATOM     12  C   UNL     1      -1.560  13.478  22.692  0.00  0.00    +0.000 A 
ATOM     13  C   UNL     1      -2.578  13.839  21.803  0.00  0.00    +0.000 A 
ATOM     14  C   UNL     1      -2.784  13.106  20.635  0.00  0.00    +0.000 A 
ATOM     15  C   UNL     1      -1.969  12.013  20.334  0.00  0.00    +0.000 A 
ATOM     16  C   UNL     1      -0.975  11.602  21.239  0.00  0.00    +0.000 A 
ATOM     17  C   UNL     1      -0.773  12.343  22.412  0.00  0.00    +0.000 A 
ENDBRANCH   5  16
ENDBRANCH   1   8
BRANCH   3  18
ATOM     18  C   UNL     1       3.463   6.063  19.091  0.00  0.00    +0.000 C 
ATOM     19  C   UNL     1       3.115   5.676  17.641  0.00  0.00    +0.000 C 
ATOM     20  C   UNL     1       4.168   4.767  16.997  0.00  0.00    +0.000 C 
ATOM     21  C   UNL     1       4.543   3.555  17.842  0.00  0.00    +0.000 C 
ATOM     22  C   UNL     1       4.891   3.943  19.278  0.00  0.00    +0.000 C 
ATOM     23  C   UNL     1       3.822   4.824  19.955  0.00  0.00    +0.000 C 
BRANCH  23  24
ATOM     24  N   UNL     1       2.660   4.040  20.373  0.00  0.00    +0.000 N 
ATOM     25  C   UNL     1       2.623   3.127  21.392  0.00  0.00    +0.000 A 
ATOM     26  C   UNL     1       1.347   2.613  21.402  0.00  0.00    +0.000 A 
ATOM     27  C   UNL     1       0.688   3.277  20.356  0.00  0.00    +0.000 A 
ATOM     28  N   UNL     1       1.479   4.157  19.740  0.00  0.00    +0.000 NA
ENDBRANCH  23  24
ENDBRANCH   3  18
TORSDOF 4
ENDMDL
MODEL 5
REMARK VINA RESULT:      -7.2      2.101      8.638
REMARK  Name = 
REMARK  6 active torsions:
REMARK  status: ('A' for Active; 'I' for Inactive)
REMARK    1  A    between atoms: C_1  and  C_2
REMARK    2  A    between atoms: C_6  and  N_7
REMARK    3  A    between atoms: C_10  and  C_11
REMARK    4  A    between atoms: N_13  and  C_14
REMARK    5  A    between atoms: C_19  and  N_20
REMARK    6  A    between atoms: C_25  and  C_26
REMARK                            x       y       z     vdW  Elec       q    Type
REMARK                         _______ _______ _______ _____ _____    ______ ____
ROOT
ATOM      1  C   UNL     1       1.946   8.221  19.333  0.00  0.00    +0.000 C 
ATOM      2  O   UNL     1       2.346   8.675  18.265  0.00  0.00    +0.000 OA
ATOM      3  N   UNL     1       2.393   7.008  19.832  0.00  0.00    +0.000 N 
ATOM      4  H   UNL     1       1.933   6.665  20.670  0.00  0.00    +0.000 HD
ENDROOT
BRANCH   1   8
ATOM      5  N   UNL     1      -0.308  10.418  21.180  0.00  0.00    +0.000 N 
ATOM      6  N   UNL     1      -0.262   9.298  21.949  0.00  0.00    +0.000 NA
ATOM      7  N   UNL     1       0.450   8.374  21.322  0.00  0.00    +0.000 NA
ATOM      8  C   UNL     1       0.984   8.934  20.187  0.00  0.00    +0.000 A 
ATOM      9  C   UNL     1       0.538  10.250  20.088  0.00  0.00    +0.000 A 
ATOM     10  C   UNL     1       0.951  11.346  19.177  0.00  0.00    +0.000 C 
BRANCH   5  16
ATOM     11  C   UNL     1      -4.165  13.522  20.455  0.00  0.00    +0.000 C 
ATOM     12  C   UNL     1      -2.960  13.085  21.240  0.00  0.00    +0.000 A 
ATOM     13  C   UNL     1      -2.636  13.722  22.443  0.00  0.00    +0.000 A 
ATOM     14  C   UNL     1      -1.573  13.263  23.218  0.00  0.00    +0.000 A 
ATOM     15  C   UNL     1      -0.827  12.155  22.808  0.00  0.00    +0.000 A 
ATOM     16  C   UNL     1      -1.102  11.534  21.578  0.00  0.00    +0.000 A 
ATOM     17  C   UNL     1      -2.174  12.000  20.803  0.00  0.00    +0.000 A 
ENDBRANCH   5  16
ENDBRANCH   1   8
BRANCH   3  18
ATOM     18  C   UNL     1       3.420   6.183  19.165  0.00  0.00    +0.000 C 
ATOM     19  C   UNL     1       3.083   5.863  17.697  0.00  0.00    +0.000 C 
ATOM     20  C   UNL     1       4.154   5.008  17.010  0.00  0.00    +0.000 C 
ATOM     21  C   UNL     1       4.551   3.762  17.794  0.00  0.00    +0.000 C 
ATOM     22  C   UNL     1       4.888   4.084  19.249  0.00  0.00    +0.000 C 
ATOM     23  C   UNL     1       3.802   4.909  19.966  0.00  0.00    +0.000 C 
BRANCH  23  24
ATOM     24  N   UNL     1       2.654   4.083  20.342  0.00  0.00    +0.000 N 
ATOM     25  C   UNL     1       2.595   3.209  21.393  0.00  0.00    +0.000 A 
ATOM     26  C   UNL     1       1.348   2.631  21.342  0.00  0.00    +0.000 A 
ATOM     27  C   UNL     1       0.727   3.221  20.230  0.00  0.00    +0.000 A 
ATOM     28  N   UNL     1       1.512   4.116  19.631  0.00  0.00    +0.000 NA
ENDBRANCH  23  24
ENDBRANCH   3  18
TORSDOF 4
ENDMDL
MODEL 6
REMARK VINA RESULT:      -7.2      2.350      8.627
REMARK  Name = 
REMARK  6 active torsions:
REMARK  status: ('A' for Active; 'I' for Inactive)
REMARK    1  A    between atoms: C_1  and  C_2
REMARK    2  A    between atoms: C_6  and  N_7
REMARK    3  A    between atoms: C_10  and  C_11
REMARK    4  A    between atoms: N_13  and  C_14
REMARK    5  A    between atoms: C_19  and  N_20
REMARK    6  A    between atoms: C_25  and  C_26
REMARK                            x       y       z     vdW  Elec       q    Type
REMARK                         _______ _______ _______ _____ _____    ______ ____
ROOT
ATOM      1  C   UNL     1       2.089   6.841  19.370  0.00  0.00    +0.000 C 
ATOM      2  O   UNL     1       1.767   6.504  20.505  0.00  0.00    +0.000 OA
ATOM      3  N   UNL     1       2.544   5.928  18.431  0.00  0.00    +0.000 N 
ATOM      4  H   UNL     1       2.882   6.311  17.553  0.00  0.00    +0.000 HD
ENDROOT
BRANCH   1   8
ATOM      5  N   UNL     1       1.526  10.364  18.603  0.00  0.00    +0.000 N 
ATOM      6  N   UNL     1       2.098   9.884  17.467  0.00  0.00    +0.000 NA
ATOM      7  N   UNL     1       2.450   8.623  17.662  0.00  0.00    +0.000 NA
ATOM      8  C   UNL     1       1.992   8.230  18.897  0.00  0.00    +0.000 A 
ATOM      9  C   UNL     1       1.371   9.318  19.507  0.00  0.00    +0.000 A 
ATOM     10  C   UNL     1       0.553   9.397  20.742  0.00  0.00    +0.000 C 
BRANCH   5  16
ATOM     11  C   UNL     1       2.711  15.221  18.817  0.00  0.00    +0.000 C 
ATOM     12  C   UNL     1       1.693  14.115  18.830  0.00  0.00    +0.000 A 
ATOM     13  C   UNL     1       0.327  14.419  18.849  0.00  0.00    +0.000 A 
ATOM     14  C   UNL     1      -0.621  13.399  18.772  0.00  0.00    +0.000 A 
ATOM     15  C   UNL     1      -0.217  12.067  18.663  0.00  0.00    +0.000 A 
ATOM     16  C   UNL     1       1.149  11.737  18.695  0.00  0.00    +0.000 A 
ATOM     17  C   UNL     1       2.097  12.767  18.773  0.00  0.00    +0.000 A 
ENDBRANCH   5  16
ENDBRANCH   1   8
BRANCH   3  18
ATOM     18  C   UNL     1       2.633   4.476  18.686  0.00  0.00    +0.000 C 
ATOM     19  C   UNL     1       3.237   4.136  20.061  0.00  0.00    +0.000 C 
ATOM     20  C   UNL     1       3.325   2.628  20.318  0.00  0.00    +0.000 C 
ATOM     21  C   UNL     1       3.983   1.842  19.190  0.00  0.00    +0.000 C 
ATOM     22  C   UNL     1       3.378   2.180  17.829  0.00  0.00    +0.000 C 
ATOM     23  C   UNL     1       3.321   3.692  17.536  0.00  0.00    +0.000 C 
BRANCH  23  24
ATOM     24  N   UNL     1       4.632   4.221  17.163  0.00  0.00    +0.000 N 
ATOM     25  C   UNL     1       5.342   3.908  16.036  0.00  0.00    +0.000 A 
ATOM     26  C   UNL     1       6.524   4.608  16.119  0.00  0.00    +0.000 A 
ATOM     27  C   UNL     1       6.435   5.316  17.328  0.00  0.00    +0.000 A 
ATOM     28  N   UNL     1       5.280   5.096  17.956  0.00  0.00    +0.000 NA
ENDBRANCH  23  24
ENDBRANCH   3  18
TORSDOF 4
ENDMDL
MODEL 7
REMARK VINA RESULT:      -7.2      2.254      8.527
REMARK  Name = 
REMARK  6 active torsions:
REMARK  status: ('A' for Active; 'I' for Inactive)
REMARK    1  A    between atoms: C_1  and  C_2
REMARK    2  A    between atoms: C_6  and  N_7
REMARK    3  A    between atoms: C_10  and  C_11
REMARK    4  A    between atoms: N_13  and  C_14
REMARK    5  A    between atoms: C_19  and  N_20
REMARK    6  A    between atoms: C_25  and  C_26
REMARK                            x       y       z     vdW  Elec       q    Type
REMARK                         _______ _______ _______ _____ _____    ______ ____
ROOT
ATOM      1  C   UNL     1       2.338   6.774  18.950  0.00  0.00    +0.000 C 
ATOM      2  O   UNL     1       2.880   6.387  19.982  0.00  0.00    +0.000 OA
ATOM      3  N   UNL     1       1.908   5.895  17.968  0.00  0.00    +0.000 N 
ATOM      4  H   UNL     1       1.564   6.310  17.108  0.00  0.00    +0.000 HD
ENDROOT
BRANCH   1   8
ATOM      5  N   UNL     1       1.380  10.287  18.712  0.00  0.00    +0.000 N 
ATOM      6  N   UNL     1       1.903  10.022  17.486  0.00  0.00    +0.000 NA
ATOM      7  N   UNL     1       2.390   8.791  17.484  0.00  0.00    +0.000 NA
ATOM      8  C   UNL     1       2.071   8.195  18.680  0.00  0.00    +0.000 A 
ATOM      9  C   UNL     1       1.398   9.122  19.473  0.00  0.00    +0.000 A 
ATOM     10  C   UNL     1       0.676   8.953  20.758  0.00  0.00    +0.000 C 
BRANCH   5  16
ATOM     11  C   UNL     1       2.117  15.051  20.055  0.00  0.00    +0.000 C 
ATOM     12  C   UNL     1       1.202  13.913  19.698  0.00  0.00    +0.000 A 
ATOM     13  C   UNL     1      -0.175  14.132  19.572  0.00  0.00    +0.000 A 
ATOM     14  C   UNL     1      -1.015  13.101  19.155  0.00  0.00    +0.000 A 
ATOM     15  C   UNL     1      -0.490  11.844  18.847  0.00  0.00    +0.000 A 
ATOM     16  C   UNL     1       0.881  11.588  19.016  0.00  0.00    +0.000 A 
ATOM     17  C   UNL     1       1.721  12.630  19.436  0.00  0.00    +0.000 A 
ENDBRANCH   5  16
ENDBRANCH   1   8
BRANCH   3  18
ATOM     18  C   UNL     1       2.010   4.427  18.091  0.00  0.00    +0.000 C 
ATOM     19  C   UNL     1       1.849   3.925  19.538  0.00  0.00    +0.000 C 
ATOM     20  C   UNL     1       1.954   2.400  19.656  0.00  0.00    +0.000 C 
ATOM     21  C   UNL     1       3.181   1.808  18.974  0.00  0.00    +0.000 C 
ATOM     22  C   UNL     1       3.335   2.305  17.538  0.00  0.00    +0.000 C 
ATOM     23  C   UNL     1       3.273   3.839  17.406  0.00  0.00    +0.000 C 
BRANCH  23  24
ATOM     24  N   UNL     1       4.522   4.470  17.833  0.00  0.00    +0.000 N 
ATOM     25  C   UNL     1       5.270   4.128  18.926  0.00  0.00    +0.000 A 
ATOM     26  C   UNL     1       6.330   5.004  18.957  0.00  0.00    +0.000 A 
ATOM     27  C   UNL     1       6.137   5.835  17.842  0.00  0.00    +0.000 A 
ATOM     28  N   UNL     1       5.048   5.502  17.148  0.00  0.00    +0.000 NA
ENDBRANCH  23  24
ENDBRANCH   3  18
TORSDOF 4
ENDMDL
MODEL 8
REMARK VINA RESULT:      -7.1      2.973      4.213
REMARK  Name = 
REMARK  6 active torsions:
REMARK  status: ('A' for Active; 'I' for Inactive)
REMARK    1  A    between atoms: C_1  and  C_2
REMARK    2  A    between atoms: C_6  and  N_7
REMARK    3  A    between atoms: C_10  and  C_11
REMARK    4  A    between atoms: N_13  and  C_14
REMARK    5  A    between atoms: C_19  and  N_20
REMARK    6  A    between atoms: C_25  and  C_26
REMARK                            x       y       z     vdW  Elec       q    Type
REMARK                         _______ _______ _______ _____ _____    ______ ____
ROOT
ATOM      1  C   UNL     1       0.652  10.523  19.520  0.00  0.00    +0.000 C 
ATOM      2  O   UNL     1      -0.379  10.314  20.153  0.00  0.00    +0.000 OA
ATOM      3  N   UNL     1       1.218  11.786  19.429  0.00  0.00    +0.000 N 
ATOM      4  H   UNL     1       2.012  11.882  18.803  0.00  0.00    +0.000 HD
ENDROOT
BRANCH   1   8
ATOM      5  N   UNL     1       2.497   7.631  18.278  0.00  0.00    +0.000 N 
ATOM      6  N   UNL     1       2.636   8.542  17.279  0.00  0.00    +0.000 NA
ATOM      7  N   UNL     1       1.911   9.612  17.570  0.00  0.00    +0.000 NA
ATOM      8  C   UNL     1       1.390   9.454  18.831  0.00  0.00    +0.000 A 
ATOM      9  C   UNL     1       1.775   8.207  19.318  0.00  0.00    +0.000 A 
ATOM     10  C   UNL     1       1.650   7.617  20.673  0.00  0.00    +0.000 C 
BRANCH   5  16
ATOM     11  C   UNL     1       2.122   2.656  17.888  0.00  0.00    +0.000 C 
ATOM     12  C   UNL     1       2.948   3.907  18.000  0.00  0.00    +0.000 A 
ATOM     13  C   UNL     1       4.343   3.837  17.908  0.00  0.00    +0.000 A 
ATOM     14  C   UNL     1       5.107   5.002  17.922  0.00  0.00    +0.000 A 
ATOM     15  C   UNL     1       4.489   6.251  18.016  0.00  0.00    +0.000 A 
ATOM     16  C   UNL     1       3.094   6.340  18.163  0.00  0.00    +0.000 A 
ATOM     17  C   UNL     1       2.331   5.164  18.147  0.00  0.00    +0.000 A 
ENDBRANCH   5  16
ENDBRANCH   1   8
BRANCH   3  18
ATOM     18  C   UNL     1       0.674  12.972  20.118  0.00  0.00    +0.000 C 
ATOM     19  C   UNL     1      -0.217  13.846  19.215  0.00  0.00    +0.000 C 
ATOM     20  C   UNL     1      -0.779  15.075  19.938  0.00  0.00    +0.000 C 
ATOM     21  C   UNL     1       0.272  15.895  20.677  0.00  0.00    +0.000 C 
ATOM     22  C   UNL     1       1.150  15.026  21.575  0.00  0.00    +0.000 C 
ATOM     23  C   UNL     1       1.757  13.807  20.852  0.00  0.00    +0.000 C 
BRANCH  23  24
ATOM     24  N   UNL     1       2.884  14.189  20.001  0.00  0.00    +0.000 N 
ATOM     25  C   UNL     1       4.078  14.709  20.422  0.00  0.00    +0.000 A 
ATOM     26  C   UNL     1       4.815  14.948  19.286  0.00  0.00    +0.000 A 
ATOM     27  C   UNL     1       3.985  14.538  18.230  0.00  0.00    +0.000 A 
ATOM     28  N   UNL     1       2.818  14.061  18.663  0.00  0.00    +0.000 NA
ENDBRANCH  23  24
ENDBRANCH   3  18
TORSDOF 4
ENDMDL
MODEL 9
REMARK VINA RESULT:      -7.1      2.656      8.848
REMARK  Name = 
REMARK  6 active torsions:
REMARK  status: ('A' for Active; 'I' for Inactive)
REMARK    1  A    between atoms: C_1  and  C_2
REMARK    2  A    between atoms: C_6  and  N_7
REMARK    3  A    between atoms: C_10  and  C_11
REMARK    4  A    between atoms: N_13  and  C_14
REMARK    5  A    between atoms: C_19  and  N_20
REMARK    6  A    between atoms: C_25  and  C_26
REMARK                            x       y       z     vdW  Elec       q    Type
REMARK                         _______ _______ _______ _____ _____    ______ ____
ROOT
ATOM      1  C   UNL     1       2.531   6.205  18.252  0.00  0.00    +0.000 C 
ATOM      2  O   UNL     1       1.867   5.260  17.837  0.00  0.00    +0.000 OA
ATOM      3  N   UNL     1       3.813   6.465  17.793  0.00  0.00    +0.000 N 
ATOM      4  H   UNL     1       4.322   7.206  18.265  0.00  0.00    +0.000 HD
ENDROOT
BRANCH   1   8
ATOM      5  N   UNL     1       1.293   8.931  20.339  0.00  0.00    +0.000 N 
ATOM      6  N   UNL     1       1.583   7.955  21.239  0.00  0.00    +0.000 NA
ATOM      7  N   UNL     1       1.947   6.862  20.586  0.00  0.00    +0.000 NA
ATOM      8  C   UNL     1       2.017   7.159  19.247  0.00  0.00    +0.000 A 
ATOM      9  C   UNL     1       1.632   8.486  19.065  0.00  0.00    +0.000 A 
ATOM     10  C   UNL     1       1.706   9.360  17.868  0.00  0.00    +0.000 C 
BRANCH   5  16
ATOM     11  C   UNL     1      -1.875  11.617  23.130  0.00  0.00    +0.000 C 
ATOM     12  C   UNL     1      -0.778  11.527  22.106  0.00  0.00    +0.000 A 
ATOM     13  C   UNL     1      -0.177  12.692  21.617  0.00  0.00    +0.000 A 
ATOM     14  C   UNL     1       0.900  12.610  20.735  0.00  0.00    +0.000 A 
ATOM     15  C   UNL     1       1.396  11.366  20.340  0.00  0.00    +0.000 A 
ATOM     16  C   UNL     1       0.773  10.185  20.778  0.00  0.00    +0.000 A 
ATOM     17  C   UNL     1      -0.309  10.274  21.666  0.00  0.00    +0.000 A 
ENDBRANCH   5  16
ENDBRANCH   1   8
BRANCH   3  18
ATOM     18  C   UNL     1       4.473   5.673  16.735  0.00  0.00    +0.000 C 
ATOM     19  C   UNL     1       4.663   4.192  17.113  0.00  0.00    +0.000 C 
ATOM     20  C   UNL     1       5.347   3.377  16.010  0.00  0.00    +0.000 C 
ATOM     21  C   UNL     1       6.631   4.005  15.480  0.00  0.00    +0.000 C 
ATOM     22  C   UNL     1       6.437   5.472  15.102  0.00  0.00    +0.000 C 
ATOM     23  C   UNL     1       5.787   6.316  16.216  0.00  0.00    +0.000 C 
BRANCH  23  24
ATOM     24  N   UNL     1       6.742   6.642  17.275  0.00  0.00    +0.000 N 
ATOM     25  C   UNL     1       7.475   7.793  17.380  0.00  0.00    +0.000 A 
ATOM     26  C   UNL     1       8.258   7.650  18.502  0.00  0.00    +0.000 A 
ATOM     27  C   UNL     1       7.927   6.383  19.008  0.00  0.00    +0.000 A 
ATOM     28  N   UNL     1       6.994   5.776  18.274  0.00  0.00    +0.000 NA
ENDBRANCH  23  24
ENDBRANCH   3  18
TORSDOF 4
ENDMDL
