MODEL 1
REMARK VINA RESULT:      -8.8      0.000      0.000
REMARK  Name = 
REMARK  5 active torsions:
REMARK  status: ('A' for Active; 'I' for Inactive)
REMARK    1  A    between atoms: C_1  and  C_2
REMARK    2  A    between atoms: C_4  and  C_5
REMARK    3  A    between atoms: C_8  and  C_9
REMARK    4  A    between atoms: C_9  and  N_10
REMARK    5  A    between atoms: N_10  and  C_11
REMARK                            x       y       z     vdW  Elec       q    Type
REMARK                         _______ _______ _______ _____ _____    ______ ____
ROOT
ATOM      1  C   UNL     1       7.288   5.968  18.193  0.00  0.00    +0.000 C 
ENDROOT
BRANCH   1   5
ATOM      2  C   UNL     1       8.540   9.312  18.261  0.00  0.00    +0.000 A 
ATOM      3  N   UNL     1       7.643   9.438  17.269  0.00  0.00    +0.000 NA
ATOM      4  O   UNL     1       7.091   8.162  17.159  0.00  0.00    +0.000 OA
ATOM      5  C   UNL     1       7.708   7.395  18.102  0.00  0.00    +0.000 A 
ATOM      6  N   UNL     1       8.619   8.043  18.787  0.00  0.00    +0.000 NA
BRANCH   2  10
ATOM      7  C   UNL     1      11.649  13.142  17.470  0.00  0.00    +0.000 C 
ATOM      8  C   UNL     1      10.879  12.260  18.402  0.00  0.00    +0.000 A 
ATOM      9  C   UNL     1      10.066  11.228  17.918  0.00  0.00    +0.000 A 
ATOM     10  C   UNL     1       9.341  10.403  18.797  0.00  0.00    +0.000 A 
ATOM     11  C   UNL     1       9.431  10.628  20.177  0.00  0.00    +0.000 A 
ATOM     12  C   UNL     1      10.247  11.646  20.669  0.00  0.00    +0.000 A 
ATOM     13  C   UNL     1      10.961  12.448  19.783  0.00  0.00    +0.000 A 
ATOM     14  F   UNL     1      11.745  13.418  20.275  0.00  0.00    +0.000 F 
ENDBRANCH   2  10
ENDBRANCH   1   5
BRANCH   1  15
ATOM     15  N   UNL     1       6.244   5.599  17.243  0.00  0.00    +0.000 N 
ATOM     16  H   UNL     1       6.207   6.175  16.407  0.00  0.00    +0.000 HD
BRANCH  15  17
ATOM     17  C   UNL     1       5.032   5.042  17.623  0.00  0.00    +0.000 A 
ATOM     18  C   UNL     1       3.905   5.901  17.660  0.00  0.00    +0.000 A 
ATOM     19  C   UNL     1       2.612   5.440  17.932  0.00  0.00    +0.000 A 
ATOM     20  C   UNL     1       2.446   4.091  18.164  0.00  0.00    +0.000 A 
ATOM     21  C   UNL     1       3.548   3.240  18.117  0.00  0.00    +0.000 A 
ATOM     22  C   UNL     1       4.833   3.675  17.837  0.00  0.00    +0.000 A 
ATOM     23  C   UNL     1       3.077   1.879  18.399  0.00  0.00    +0.000 C 
ATOM     24  O   UNL     1       3.759   0.878  18.445  0.00  0.00    +0.000 OA
ATOM     25  N   UNL     1       1.715   1.970  18.600  0.00  0.00    +0.000 N 
ATOM     26  C   UNL     1       1.211   3.315  18.470  0.00  0.00    +0.000 C 
ATOM     27  H   UNL     1       1.159   1.151  18.807  0.00  0.00    +0.000 HD
ENDBRANCH  15  17
ENDBRANCH   1  15
TORSDOF 4
ENDMDL
MODEL 2
REMARK VINA RESULT:      -8.8      1.513      1.608
REMARK  Name = 
REMARK  5 active torsions:
REMARK  status: ('A' for Active; 'I' for Inactive)
REMARK    1  A    between atoms: C_1  and  C_2
REMARK    2  A    between atoms: C_4  and  C_5
REMARK    3  A    between atoms: C_8  and  C_9
REMARK    4  A    between atoms: C_9  and  N_10
REMARK    5  A    between atoms: N_10  and  C_11
REMARK                            x       y       z     vdW  Elec       q    Type
REMARK                         _______ _______ _______ _____ _____    ______ ____
ROOT
ATOM      1  C   UNL     1       7.205   5.279  18.002  0.00  0.00    +0.000 C 
ENDROOT
BRANCH   1   5
ATOM      2  C   UNL     1       8.193   8.710  18.111  0.00  0.00    +0.000 A 
ATOM      3  N   UNL     1       7.267   8.783  17.141  0.00  0.00    +0.000 NA
ATOM      4  O   UNL     1       6.814   7.470  17.017  0.00  0.00    +0.000 OA
ATOM      5  C   UNL     1       7.510   6.736  17.931  0.00  0.00    +0.000 A 
ATOM      6  N   UNL     1       8.382   7.441  18.609  0.00  0.00    +0.000 NA
BRANCH   2  10
ATOM      7  C   UNL     1      10.930  12.816  17.330  0.00  0.00    +0.000 C 
ATOM      8  C   UNL     1      10.275  11.843  18.260  0.00  0.00    +0.000 A 
ATOM      9  C   UNL     1       9.535  10.760  17.773  0.00  0.00    +0.000 A 
ATOM     10  C   UNL     1       8.918   9.850  18.652  0.00  0.00    +0.000 A 
ATOM     11  C   UNL     1       9.043  10.042  20.035  0.00  0.00    +0.000 A 
ATOM     12  C   UNL     1       9.788  11.112  20.528  0.00  0.00    +0.000 A 
ATOM     13  C   UNL     1      10.395  11.998  19.643  0.00  0.00    +0.000 A 
ATOM     14  F   UNL     1      11.112  13.018  20.137  0.00  0.00    +0.000 F 
ENDBRANCH   2  10
ENDBRANCH   1   5
BRANCH   1  15
ATOM     15  N   UNL     1       6.393   4.903  19.155  0.00  0.00    +0.000 N 
ATOM     16  H   UNL     1       6.903   4.443  19.903  0.00  0.00    +0.000 HD
BRANCH  15  17
ATOM     17  C   UNL     1       5.053   4.555  19.061  0.00  0.00    +0.000 A 
ATOM     18  C   UNL     1       4.499   4.451  17.761  0.00  0.00    +0.000 A 
ATOM     19  C   UNL     1       3.189   4.014  17.531  0.00  0.00    +0.000 A 
ATOM     20  C   UNL     1       2.425   3.669  18.626  0.00  0.00    +0.000 A 
ATOM     21  C   UNL     1       2.969   3.757  19.906  0.00  0.00    +0.000 A 
ATOM     22  C   UNL     1       4.266   4.176  20.152  0.00  0.00    +0.000 A 
ATOM     23  C   UNL     1       1.941   3.331  20.861  0.00  0.00    +0.000 C 
ATOM     24  O   UNL     1       2.057   3.282  22.067  0.00  0.00    +0.000 OA
ATOM     25  N   UNL     1       0.826   3.003  20.117  0.00  0.00    +0.000 N 
ATOM     26  C   UNL     1       1.022   3.171  18.698  0.00  0.00    +0.000 C 
ATOM     27  H   UNL     1      -0.021   2.671  20.558  0.00  0.00    +0.000 HD
ENDBRANCH  15  17
ENDBRANCH   1  15
TORSDOF 4
ENDMDL
MODEL 3
REMARK VINA RESULT:      -8.7      1.187      1.707
REMARK  Name = 
REMARK  5 active torsions:
REMARK  status: ('A' for Active; 'I' for Inactive)
REMARK    1  A    between atoms: C_1  and  C_2
REMARK    2  A    between atoms: C_4  and  C_5
REMARK    3  A    between atoms: C_8  and  C_9
REMARK    4  A    between atoms: C_9  and  N_10
REMARK    5  A    between atoms: N_10  and  C_11
REMARK                            x       y       z     vdW  Elec       q    Type
REMARK                         _______ _______ _______ _____ _____    ______ ____
ROOT
ATOM      1  C   UNL     1       6.620   5.842  16.607  0.00  0.00    +0.000 C 
ENDROOT
BRANCH   1   5
ATOM      2  C   UNL     1       8.251   8.588  18.205  0.00  0.00    +0.000 A 
ATOM      3  N   UNL     1       8.584   7.611  19.064  0.00  0.00    +0.000 NA
ATOM      4  O   UNL     1       7.980   6.476  18.522  0.00  0.00    +0.000 OA
ATOM      5  C   UNL     1       7.349   6.883  17.385  0.00  0.00    +0.000 A 
ATOM      6  N   UNL     1       7.463   8.169  17.158  0.00  0.00    +0.000 NA
BRANCH   2  10
ATOM      7  C   UNL     1      11.224  11.985  20.345  0.00  0.00    +0.000 C 
ATOM      8  C   UNL     1      10.144  11.626  19.374  0.00  0.00    +0.000 A 
ATOM      9  C   UNL     1       9.716  10.302  19.222  0.00  0.00    +0.000 A 
ATOM     10  C   UNL     1       8.702   9.968  18.305  0.00  0.00    +0.000 A 
ATOM     11  C   UNL     1       8.124  10.980  17.526  0.00  0.00    +0.000 A 
ATOM     12  C   UNL     1       8.537  12.303  17.678  0.00  0.00    +0.000 A 
ATOM     13  C   UNL     1       9.536  12.614  18.596  0.00  0.00    +0.000 A 
ATOM     14  F   UNL     1       9.916  13.893  18.732  0.00  0.00    +0.000 F 
ENDBRANCH   2  10
ENDBRANCH   1   5
BRANCH   1  15
ATOM     15  N   UNL     1       5.182   6.073  16.517  0.00  0.00    +0.000 N 
ATOM     16  H   UNL     1       4.916   7.038  16.348  0.00  0.00    +0.000 HD
BRANCH  15  17
ATOM     17  C   UNL     1       4.246   5.322  17.212  0.00  0.00    +0.000 A 
ATOM     18  C   UNL     1       3.086   5.995  17.672  0.00  0.00    +0.000 A 
ATOM     19  C   UNL     1       2.026   5.329  18.299  0.00  0.00    +0.000 A 
ATOM     20  C   UNL     1       2.129   3.964  18.460  0.00  0.00    +0.000 A 
ATOM     21  C   UNL     1       3.261   3.296  17.999  0.00  0.00    +0.000 A 
ATOM     22  C   UNL     1       4.314   3.934  17.366  0.00  0.00    +0.000 A 
ATOM     23  C   UNL     1       3.096   1.869  18.302  0.00  0.00    +0.000 C 
ATOM     24  O   UNL     1       3.885   0.985  18.049  0.00  0.00    +0.000 OA
ATOM     25  N   UNL     1       1.874   1.741  18.929  0.00  0.00    +0.000 N 
ATOM     26  C   UNL     1       1.177   2.996  19.075  0.00  0.00    +0.000 C 
ATOM     27  H   UNL     1       1.531   0.840  19.233  0.00  0.00    +0.000 HD
ENDBRANCH  15  17
ENDBRANCH   1  15
TORSDOF 4
ENDMDL
MODEL 4
REMARK VINA RESULT:      -8.5      0.791      1.565
REMARK  Name = 
REMARK  5 active torsions:
REMARK  status: ('A' for Active; 'I' for Inactive)
REMARK    1  A    between atoms: C_1  and  C_2
REMARK    2  A    between atoms: C_4  and  C_5
REMARK    3  A    between atoms: C_8  and  C_9
REMARK    4  A    between atoms: C_9  and  N_10
REMARK    5  A    between atoms: N_10  and  C_11
REMARK                            x       y       z     vdW  Elec       q    Type
REMARK                         _______ _______ _______ _____ _____    ______ ____
ROOT
ATOM      1  C   UNL     1       7.405   5.774  18.320  0.00  0.00    +0.000 C 
ENDROOT
BRANCH   1   5
ATOM      2  C   UNL     1       8.512   9.168  18.230  0.00  0.00    +0.000 A 
ATOM      3  N   UNL     1       7.627   9.204  17.220  0.00  0.00    +0.000 NA
ATOM      4  O   UNL     1       7.133   7.901  17.169  0.00  0.00    +0.000 OA
ATOM      5  C   UNL     1       7.765   7.211  18.160  0.00  0.00    +0.000 A 
ATOM      6  N   UNL     1       8.636   7.933  18.823  0.00  0.00    +0.000 NA
BRANCH   2  10
ATOM      7  C   UNL     1       9.581  12.315  21.961  0.00  0.00    +0.000 C 
ATOM      8  C   UNL     1       9.756  11.867  20.544  0.00  0.00    +0.000 A 
ATOM      9  C   UNL     1       9.087  10.739  20.052  0.00  0.00    +0.000 A 
ATOM     10  C   UNL     1       9.257  10.319  18.720  0.00  0.00    +0.000 A 
ATOM     11  C   UNL     1      10.118  11.038  17.880  0.00  0.00    +0.000 A 
ATOM     12  C   UNL     1      10.780  12.168  18.358  0.00  0.00    +0.000 A 
ATOM     13  C   UNL     1      10.594  12.572  19.677  0.00  0.00    +0.000 A 
ATOM     14  F   UNL     1      11.235  13.665  20.117  0.00  0.00    +0.000 F 
ENDBRANCH   2  10
ENDBRANCH   1   5
BRANCH   1  15
ATOM     15  N   UNL     1       6.448   5.523  19.392  0.00  0.00    +0.000 N 
ATOM     16  H   UNL     1       6.865   5.301  20.291  0.00  0.00    +0.000 HD
BRANCH  15  17
ATOM     17  C   UNL     1       5.193   4.971  19.179  0.00  0.00    +0.000 A 
ATOM     18  C   UNL     1       4.109   5.870  19.015  0.00  0.00    +0.000 A 
ATOM     19  C   UNL     1       2.814   5.441  18.698  0.00  0.00    +0.000 A 
ATOM     20  C   UNL     1       2.607   4.088  18.535  0.00  0.00    +0.000 A 
ATOM     21  C   UNL     1       3.672   3.201  18.683  0.00  0.00    +0.000 A 
ATOM     22  C   UNL     1       4.961   3.607  18.985  0.00  0.00    +0.000 A 
ATOM     23  C   UNL     1       3.162   1.845  18.455  0.00  0.00    +0.000 C 
ATOM     24  O   UNL     1       3.804   0.818  18.505  0.00  0.00    +0.000 OA
ATOM     25  N   UNL     1       1.816   1.973  18.178  0.00  0.00    +0.000 N 
ATOM     26  C   UNL     1       1.362   3.342  18.195  0.00  0.00    +0.000 C 
ATOM     27  H   UNL     1       1.241   1.166  17.979  0.00  0.00    +0.000 HD
ENDBRANCH  15  17
ENDBRANCH   1  15
TORSDOF 4
ENDMDL
MODEL 5
REMARK VINA RESULT:      -8.5      3.656     10.029
REMARK  Name = 
REMARK  5 active torsions:
REMARK  status: ('A' for Active; 'I' for Inactive)
REMARK    1  A    between atoms: C_1  and  C_2
REMARK    2  A    between atoms: C_4  and  C_5
REMARK    3  A    between atoms: C_8  and  C_9
REMARK    4  A    between atoms: C_9  and  N_10
REMARK    5  A    between atoms: N_10  and  C_11
REMARK                            x       y       z     vdW  Elec       q    Type
REMARK                         _______ _______ _______ _____ _____    ______ ____
ROOT
ATOM      1  C   UNL     1       8.061   8.681  17.570  0.00  0.00    +0.000 C 
ENDROOT
BRANCH   1   5
ATOM      2  C   UNL     1       5.842   5.887  17.733  0.00  0.00    +0.000 A 
ATOM      3  N   UNL     1       7.001   5.232  17.553  0.00  0.00    +0.000 NA
ATOM      4  O   UNL     1       7.948   6.252  17.471  0.00  0.00    +0.000 OA
ATOM      5  C   UNL     1       7.265   7.422  17.617  0.00  0.00    +0.000 A 
ATOM      6  N   UNL     1       5.972   7.257  17.756  0.00  0.00    +0.000 NA
BRANCH   2  10
ATOM      7  C   UNL     1       1.711   5.356  20.492  0.00  0.00    +0.000 C 
ATOM      8  C   UNL     1       2.545   4.978  19.308  0.00  0.00    +0.000 A 
ATOM      9  C   UNL     1       3.772   5.603  19.056  0.00  0.00    +0.000 A 
ATOM     10  C   UNL     1       4.552   5.247  17.940  0.00  0.00    +0.000 A 
ATOM     11  C   UNL     1       4.083   4.258  17.065  0.00  0.00    +0.000 A 
ATOM     12  C   UNL     1       2.867   3.622  17.315  0.00  0.00    +0.000 A 
ATOM     13  C   UNL     1       2.113   3.983  18.428  0.00  0.00    +0.000 A 
ATOM     14  F   UNL     1       0.950   3.356  18.653  0.00  0.00    +0.000 F 
ENDBRANCH   2  10
ENDBRANCH   1   5
BRANCH   1  15
ATOM     15  N   UNL     1       8.686   9.031  18.841  0.00  0.00    +0.000 N 
ATOM     16  H   UNL     1       8.263   8.597  19.656  0.00  0.00    +0.000 HD
BRANCH  15  17
ATOM     17  C   UNL     1       9.292  10.256  19.080  0.00  0.00    +0.000 A 
ATOM     18  C   UNL     1       9.452  10.649  20.433  0.00  0.00    +0.000 A 
ATOM     19  C   UNL     1      10.133  11.813  20.805  0.00  0.00    +0.000 A 
ATOM     20  C   UNL     1      10.671  12.592  19.802  0.00  0.00    +0.000 A 
ATOM     21  C   UNL     1      10.528  12.204  18.472  0.00  0.00    +0.000 A 
ATOM     22  C   UNL     1       9.868  11.050  18.084  0.00  0.00    +0.000 A 
ATOM     23  C   UNL     1      11.193  13.211  17.636  0.00  0.00    +0.000 C 
ATOM     24  O   UNL     1      11.267  13.204  16.427  0.00  0.00    +0.000 OA
ATOM     25  N   UNL     1      11.707  14.158  18.498  0.00  0.00    +0.000 N 
ATOM     26  C   UNL     1      11.444  13.864  19.885  0.00  0.00    +0.000 C 
ATOM     27  H   UNL     1      12.220  14.958  18.154  0.00  0.00    +0.000 HD
ENDBRANCH  15  17
ENDBRANCH   1  15
TORSDOF 4
ENDMDL
MODEL 6
REMARK VINA RESULT:      -8.4      3.669     10.060
REMARK  Name = 
REMARK  5 active torsions:
REMARK  status: ('A' for Active; 'I' for Inactive)
REMARK    1  A    between atoms: C_1  and  C_2
REMARK    2  A    between atoms: C_4  and  C_5
REMARK    3  A    between atoms: C_8  and  C_9
REMARK    4  A    between atoms: C_9  and  N_10
REMARK    5  A    between atoms: N_10  and  C_11
REMARK                            x       y       z     vdW  Elec       q    Type
REMARK                         _______ _______ _______ _____ _____    ______ ____
ROOT
ATOM      1  C   UNL     1       7.802   9.024  17.557  0.00  0.00    +0.000 C 
ENDROOT
BRANCH   1   5
ATOM      2  C   UNL     1       6.140   5.863  17.572  0.00  0.00    +0.000 A 
ATOM      3  N   UNL     1       7.151   5.571  16.737  0.00  0.00    +0.000 NA
ATOM      4  O   UNL     1       7.870   6.764  16.660  0.00  0.00    +0.000 OA
ATOM      5  C   UNL     1       7.223   7.654  17.463  0.00  0.00    +0.000 A 
ATOM      6  N   UNL     1       6.146   7.162  18.025  0.00  0.00    +0.000 NA
BRANCH   2  10
ATOM      7  C   UNL     1       1.393   4.306  17.566  0.00  0.00    +0.000 C 
ATOM      8  C   UNL     1       2.809   4.170  18.033  0.00  0.00    +0.000 A 
ATOM      9  C   UNL     1       3.807   5.044  17.585  0.00  0.00    +0.000 A 
ATOM     10  C   UNL     1       5.137   4.910  18.024  0.00  0.00    +0.000 A 
ATOM     11  C   UNL     1       5.464   3.878  18.914  0.00  0.00    +0.000 A 
ATOM     12  C   UNL     1       4.474   3.010  19.374  0.00  0.00    +0.000 A 
ATOM     13  C   UNL     1       3.162   3.163  18.933  0.00  0.00    +0.000 A 
ATOM     14  F   UNL     1       2.223   2.322  19.391  0.00  0.00    +0.000 F 
ENDBRANCH   2  10
ENDBRANCH   1   5
BRANCH   1  15
ATOM     15  N   UNL     1       8.714   9.202  18.683  0.00  0.00    +0.000 N 
ATOM     16  H   UNL     1       8.483   8.657  19.508  0.00  0.00    +0.000 HD
BRANCH  15  17
ATOM     17  C   UNL     1       9.389  10.387  18.936  0.00  0.00    +0.000 A 
ATOM     18  C   UNL     1       9.570  10.754  20.293  0.00  0.00    +0.000 A 
ATOM     19  C   UNL     1      10.316  11.873  20.679  0.00  0.00    +0.000 A 
ATOM     20  C   UNL     1      10.898  12.632  19.686  0.00  0.00    +0.000 A 
ATOM     21  C   UNL     1      10.734  12.268  18.351  0.00  0.00    +0.000 A 
ATOM     22  C   UNL     1      10.010  11.159  17.950  0.00  0.00    +0.000 A 
ATOM     23  C   UNL     1      11.456  13.246  17.528  0.00  0.00    +0.000 C 
ATOM     24  O   UNL     1      11.531  13.249  16.318  0.00  0.00    +0.000 OA
ATOM     25  N   UNL     1      12.023  14.152  18.401  0.00  0.00    +0.000 N 
ATOM     26  C   UNL     1      11.742  13.857  19.785  0.00  0.00    +0.000 C 
ATOM     27  H   UNL     1      12.581  14.925  18.066  0.00  0.00    +0.000 HD
ENDBRANCH  15  17
ENDBRANCH   1  15
TORSDOF 4
ENDMDL
MODEL 7
REMARK VINA RESULT:      -8.4      1.738      2.012
REMARK  Name = 
REMARK  5 active torsions:
REMARK  status: ('A' for Active; 'I' for Inactive)
REMARK    1  A    between atoms: C_1  and  C_2
REMARK    2  A    between atoms: C_4  and  C_5
REMARK    3  A    between atoms: C_8  and  C_9
REMARK    4  A    between atoms: C_9  and  N_10
REMARK    5  A    between atoms: N_10  and  C_11
REMARK                            x       y       z     vdW  Elec       q    Type
REMARK                         _______ _______ _______ _____ _____    ______ ____
ROOT
ATOM      1  C   UNL     1       6.395   5.709  16.278  0.00  0.00    +0.000 C 
ENDROOT
BRANCH   1   5
ATOM      2  C   UNL     1       8.086   8.244  18.142  0.00  0.00    +0.000 A 
ATOM      3  N   UNL     1       8.435   7.171  18.871  0.00  0.00    +0.000 NA
ATOM      4  O   UNL     1       7.810   6.110  18.217  0.00  0.00    +0.000 OA
ATOM      5  C   UNL     1       7.151   6.649  17.153  0.00  0.00    +0.000 A 
ATOM      6  N   UNL     1       7.268   7.953  17.075  0.00  0.00    +0.000 NA
BRANCH   2  10
ATOM      7  C   UNL     1       7.860  13.117  17.066  0.00  0.00    +0.000 C 
ATOM      8  C   UNL     1       8.447  11.980  17.841  0.00  0.00    +0.000 A 
ATOM      9  C   UNL     1       7.996  10.667  17.656  0.00  0.00    +0.000 A 
ATOM     10  C   UNL     1       8.548   9.601  18.391  0.00  0.00    +0.000 A 
ATOM     11  C   UNL     1       9.558   9.864  19.326  0.00  0.00    +0.000 A 
ATOM     12  C   UNL     1      10.020  11.168  19.509  0.00  0.00    +0.000 A 
ATOM     13  C   UNL     1       9.466  12.208  18.768  0.00  0.00    +0.000 A 
ATOM     14  F   UNL     1       9.928  13.453  18.954  0.00  0.00    +0.000 F 
ENDBRANCH   2  10
ENDBRANCH   1   5
BRANCH   1  15
ATOM     15  N   UNL     1       4.948   5.773  16.455  0.00  0.00    +0.000 N 
ATOM     16  H   UNL     1       4.494   6.544  15.974  0.00  0.00    +0.000 HD
BRANCH  15  17
ATOM     17  C   UNL     1       4.303   5.341  17.604  0.00  0.00    +0.000 A 
ATOM     18  C   UNL     1       3.157   6.066  18.018  0.00  0.00    +0.000 A 
ATOM     19  C   UNL     1       2.365   5.672  19.102  0.00  0.00    +0.000 A 
ATOM     20  C   UNL     1       2.724   4.526  19.778  0.00  0.00    +0.000 A 
ATOM     21  C   UNL     1       3.842   3.802  19.368  0.00  0.00    +0.000 A 
ATOM     22  C   UNL     1       4.631   4.169  18.291  0.00  0.00    +0.000 A 
ATOM     23  C   UNL     1       3.979   2.645  20.260  0.00  0.00    +0.000 C 
ATOM     24  O   UNL     1       4.842   1.795  20.206  0.00  0.00    +0.000 OA
ATOM     25  N   UNL     1       2.940   2.721  21.165  0.00  0.00    +0.000 N 
ATOM     26  C   UNL     1       2.084   3.862  20.949  0.00  0.00    +0.000 C 
ATOM     27  H   UNL     1       2.818   2.023  21.885  0.00  0.00    +0.000 HD
ENDBRANCH  15  17
ENDBRANCH   1  15
TORSDOF 4
ENDMDL
MODEL 8
REMARK VINA RESULT:      -8.3      3.901     10.037
REMARK  Name = 
REMARK  5 active torsions:
REMARK  status: ('A' for Active; 'I' for Inactive)
REMARK    1  A    between atoms: C_1  and  C_2
REMARK    2  A    between atoms: C_4  and  C_5
REMARK    3  A    between atoms: C_8  and  C_9
REMARK    4  A    between atoms: C_9  and  N_10
REMARK    5  A    between atoms: N_10  and  C_11
REMARK                            x       y       z     vdW  Elec       q    Type
REMARK                         _______ _______ _______ _____ _____    ______ ____
ROOT
ATOM      1  C   UNL     1       7.801   7.745  17.578  0.00  0.00    +0.000 C 
ENDROOT
BRANCH   1   5
ATOM      2  C   UNL     1       5.455   5.211  18.489  0.00  0.00    +0.000 A 
ATOM      3  N   UNL     1       6.449   4.898  19.336  0.00  0.00    +0.000 NA
ATOM      4  O   UNL     1       7.434   5.844  19.052  0.00  0.00    +0.000 OA
ATOM      5  C   UNL     1       6.931   6.637  18.065  0.00  0.00    +0.000 A 
ATOM      6  N   UNL     1       5.734   6.279  17.668  0.00  0.00    +0.000 NA
BRANCH   2  10
ATOM      7  C   UNL     1       1.233   3.873  20.800  0.00  0.00    +0.000 C 
ATOM      8  C   UNL     1       2.112   3.871  19.590  0.00  0.00    +0.000 A 
ATOM      9  C   UNL     1       3.341   4.541  19.586  0.00  0.00    +0.000 A 
ATOM     10  C   UNL     1       4.163   4.541  18.444  0.00  0.00    +0.000 A 
ATOM     11  C   UNL     1       3.736   3.866  17.292  0.00  0.00    +0.000 A 
ATOM     12  C   UNL     1       2.517   3.187  17.291  0.00  0.00    +0.000 A 
ATOM     13  C   UNL     1       1.721   3.193  18.433  0.00  0.00    +0.000 A 
ATOM     14  F   UNL     1       0.556   2.530  18.414  0.00  0.00    +0.000 F 
ENDBRANCH   2  10
ENDBRANCH   1   5
BRANCH   1  15
ATOM     15  N   UNL     1       8.453   8.495  18.646  0.00  0.00    +0.000 N 
ATOM     16  H   UNL     1       8.161   8.240  19.585  0.00  0.00    +0.000 HD
BRANCH  15  17
ATOM     17  C   UNL     1       8.879   9.808  18.504  0.00  0.00    +0.000 A 
ATOM     18  C   UNL     1       8.078  10.668  17.711  0.00  0.00    +0.000 A 
ATOM     19  C   UNL     1       8.348  12.034  17.570  0.00  0.00    +0.000 A 
ATOM     20  C   UNL     1       9.437  12.547  18.244  0.00  0.00    +0.000 A 
ATOM     21  C   UNL     1      10.220  11.708  19.035  0.00  0.00    +0.000 A 
ATOM     22  C   UNL     1       9.962  10.357  19.195  0.00  0.00    +0.000 A 
ATOM     23  C   UNL     1      11.293  12.519  19.622  0.00  0.00    +0.000 C 
ATOM     24  O   UNL     1      12.166  12.124  20.363  0.00  0.00    +0.000 OA
ATOM     25  N   UNL     1      11.108  13.807  19.163  0.00  0.00    +0.000 N 
ATOM     26  C   UNL     1       9.964  13.940  18.294  0.00  0.00    +0.000 C 
ATOM     27  H   UNL     1      11.727  14.557  19.439  0.00  0.00    +0.000 HD
ENDBRANCH  15  17
ENDBRANCH   1  15
TORSDOF 4
ENDMDL
MODEL 9
REMARK VINA RESULT:      -8.3      1.954      2.361
REMARK  Name = 
REMARK  5 active torsions:
REMARK  status: ('A' for Active; 'I' for Inactive)
REMARK    1  A    between atoms: C_1  and  C_2
REMARK    2  A    between atoms: C_4  and  C_5
REMARK    3  A    between atoms: C_8  and  C_9
REMARK    4  A    between atoms: C_9  and  N_10
REMARK    5  A    between atoms: N_10  and  C_11
REMARK                            x       y       z     vdW  Elec       q    Type
REMARK                         _______ _______ _______ _____ _____    ______ ____
ROOT
ATOM      1  C   UNL     1       7.570   5.554  18.307  0.00  0.00    +0.000 C 
ENDROOT
BRANCH   1   5
ATOM      2  C   UNL     1       8.441   9.017  18.271  0.00  0.00    +0.000 A 
ATOM      3  N   UNL     1       7.541   9.011  17.273  0.00  0.00    +0.000 NA
ATOM      4  O   UNL     1       7.136   7.678  17.203  0.00  0.00    +0.000 OA
ATOM      5  C   UNL     1       7.829   7.015  18.171  0.00  0.00    +0.000 A 
ATOM      6  N   UNL     1       8.658   7.782  18.837  0.00  0.00    +0.000 NA
BRANCH   2  10
ATOM      7  C   UNL     1      10.940  13.244  17.351  0.00  0.00    +0.000 C 
ATOM      8  C   UNL     1      10.353  12.261  18.314  0.00  0.00    +0.000 A 
ATOM      9  C   UNL     1       9.665  11.128  17.864  0.00  0.00    +0.000 A 
ATOM     10  C   UNL     1       9.112  10.207  18.773  0.00  0.00    +0.000 A 
ATOM     11  C   UNL     1       9.247  10.438  20.149  0.00  0.00    +0.000 A 
ATOM     12  C   UNL     1       9.941  11.558  20.606  0.00  0.00    +0.000 A 
ATOM     13  C   UNL     1      10.486  12.454  19.691  0.00  0.00    +0.000 A 
ATOM     14  F   UNL     1      11.155  13.522  20.149  0.00  0.00    +0.000 F 
ENDBRANCH   2  10
ENDBRANCH   1   5
BRANCH   1  15
ATOM     15  N   UNL     1       6.325   5.115  17.685  0.00  0.00    +0.000 N 
ATOM     16  H   UNL     1       6.193   5.432  16.730  0.00  0.00    +0.000 HD
BRANCH  15  17
ATOM     17  C   UNL     1       5.154   4.898  18.397  0.00  0.00    +0.000 A 
ATOM     18  C   UNL     1       4.916   3.583  18.868  0.00  0.00    +0.000 A 
ATOM     19  C   UNL     1       3.821   3.258  19.678  0.00  0.00    +0.000 A 
ATOM     20  C   UNL     1       2.956   4.274  20.028  0.00  0.00    +0.000 A 
ATOM     21  C   UNL     1       3.194   5.571  19.578  0.00  0.00    +0.000 A 
ATOM     22  C   UNL     1       4.276   5.913  18.785  0.00  0.00    +0.000 A 
ATOM     23  C   UNL     1       2.124   6.430  20.100  0.00  0.00    +0.000 C 
ATOM     24  O   UNL     1       2.003   7.620  19.910  0.00  0.00    +0.000 OA
ATOM     25  N   UNL     1       1.294   5.615  20.842  0.00  0.00    +0.000 N 
ATOM     26  C   UNL     1       1.727   4.239  20.870  0.00  0.00    +0.000 C 
ATOM     27  H   UNL     1       0.479   5.984  21.312  0.00  0.00    +0.000 HD
ENDBRANCH  15  17
ENDBRANCH   1  15
TORSDOF 4
ENDMDL
