MODEL 1
REMARK VINA RESULT:      -8.2      0.000      0.000
REMARK  Name = 
REMARK  4 active torsions:
REMARK  status: ('A' for Active; 'I' for Inactive)
REMARK    1  A    between atoms: C_2  and  C_19
REMARK    2  A    between atoms: N_3  and  C_4
REMARK    3  A    between atoms: C_7  and  N_8
REMARK    4  A    between atoms: C_14  and  C_15
REMARK                            x       y       z     vdW  Elec       q    Type
REMARK                         _______ _______ _______ _____ _____    ______ ____
ROOT
ATOM      1  C   UNL     1       2.979   6.353  18.438  0.00  0.00    +0.000 A 
ATOM      2  C   UNL     1       2.606   7.699  18.272  0.00  0.00    +0.000 A 
ATOM      3  C   UNL     1       1.892   8.397  19.256  0.00  0.00    +0.000 A 
ATOM      4  C   UNL     1       1.533   7.746  20.445  0.00  0.00    +0.000 A 
ATOM      5  C   UNL     1       1.874   6.406  20.609  0.00  0.00    +0.000 A 
ATOM      6  C   UNL     1       2.583   5.686  19.612  0.00  0.00    +0.000 A 
ENDROOT
BRANCH   4   7
ATOM      7  N   UNL     1       0.854   8.453  21.467  0.00  0.00    +0.000 N 
ATOM      8  C   UNL     1      -0.498   8.580  21.678  0.00  0.00    +0.000 A 
ATOM      9  C   UNL     1      -0.667   9.394  22.773  0.00  0.00    +0.000 A 
ATOM     10  C   UNL     1       0.624   9.721  23.187  0.00  0.00    +0.000 A 
ATOM     11  N   UNL     1       1.557   9.144  22.403  0.00  0.00    +0.000 NA
ENDBRANCH   4   7
BRANCH   1  14
ATOM     12  O   UNL     1       5.860   6.290  17.975  0.00  0.00    +0.000 OA
ATOM     13  C   UNL     1       5.063   5.755  17.210  0.00  0.00    +0.000 C 
ATOM     14  N   UNL     1       3.697   5.663  17.421  0.00  0.00    +0.000 N 
ATOM     15  H   UNL     1       3.168   5.037  16.821  0.00  0.00    +0.000 HD
BRANCH  13  16
ATOM     16  C   UNL     1       5.599   5.215  15.929  0.00  0.00    +0.000 A 
ATOM     17  C   UNL     1       6.990   5.290  15.791  0.00  0.00    +0.000 A 
ATOM     18  C   UNL     1       7.596   4.968  14.585  0.00  0.00    +0.000 A 
ATOM     19  C   UNL     1       6.840   4.442  13.540  0.00  0.00    +0.000 A 
ATOM     20  C   UNL     1       7.462   4.140  12.327  0.00  0.00    +0.000 A 
ATOM     21  C   UNL     1       6.890   3.210  11.472  0.00  0.00    +0.000 A 
ATOM     22  C   UNL     1       5.598   2.764  11.719  0.00  0.00    +0.000 A 
ATOM     23  C   UNL     1       4.856   3.310  12.778  0.00  0.00    +0.000 A 
ATOM     24  C   UNL     1       5.477   4.135  13.740  0.00  0.00    +0.000 A 
ATOM     25  C   UNL     1       4.837   4.631  14.906  0.00  0.00    +0.000 A 
ENDBRANCH  13  16
ENDBRANCH   1  14
BRANCH   6  26
ATOM     26  C   UNL     1       2.917   4.247  19.906  0.00  0.00    +0.000 C 
ATOM     27  F   UNL     1       2.364   3.357  19.029  0.00  0.00    +0.000 F 
ATOM     28  F   UNL     1       4.256   4.003  19.875  0.00  0.00    +0.000 F 
ATOM     29  F   UNL     1       2.493   3.848  21.137  0.00  0.00    +0.000 F 
ENDBRANCH   6  26
TORSDOF 4
ENDMDL
MODEL 2
REMARK VINA RESULT:      -8.2      0.366      1.018
REMARK  Name = 
REMARK  4 active torsions:
REMARK  status: ('A' for Active; 'I' for Inactive)
REMARK    1  A    between atoms: C_2  and  C_19
REMARK    2  A    between atoms: N_3  and  C_4
REMARK    3  A    between atoms: C_7  and  N_8
REMARK    4  A    between atoms: C_14  and  C_15
REMARK                            x       y       z     vdW  Elec       q    Type
REMARK                         _______ _______ _______ _____ _____    ______ ____
ROOT
ATOM      1  C   UNL     1       2.922   6.374  18.434  0.00  0.00    +0.000 A 
ATOM      2  C   UNL     1       2.591   7.733  18.300  0.00  0.00    +0.000 A 
ATOM      3  C   UNL     1       1.893   8.429  19.297  0.00  0.00    +0.000 A 
ATOM      4  C   UNL     1       1.506   7.760  20.467  0.00  0.00    +0.000 A 
ATOM      5  C   UNL     1       1.805   6.406  20.600  0.00  0.00    +0.000 A 
ATOM      6  C   UNL     1       2.499   5.690  19.589  0.00  0.00    +0.000 A 
ENDROOT
BRANCH   4   7
ATOM      7  N   UNL     1       0.842   8.461  21.503  0.00  0.00    +0.000 N 
ATOM      8  C   UNL     1       1.381   9.201  22.528  0.00  0.00    +0.000 A 
ATOM      9  C   UNL     1       0.336   9.655  23.299  0.00  0.00    +0.000 A 
ATOM     10  C   UNL     1      -0.813   9.161  22.682  0.00  0.00    +0.000 A 
ATOM     11  N   UNL     1      -0.515   8.441  21.582  0.00  0.00    +0.000 NA
ENDBRANCH   4   7
BRANCH   1  14
ATOM     12  O   UNL     1       5.803   6.019  18.130  0.00  0.00    +0.000 OA
ATOM     13  C   UNL     1       5.004   5.639  17.280  0.00  0.00    +0.000 C 
ATOM     14  N   UNL     1       3.626   5.687  17.404  0.00  0.00    +0.000 N 
ATOM     15  H   UNL     1       3.072   5.174  16.725  0.00  0.00    +0.000 HD
BRANCH  13  16
ATOM     16  C   UNL     1       5.561   5.143  15.990  0.00  0.00    +0.000 A 
ATOM     17  C   UNL     1       6.949   5.270  15.856  0.00  0.00    +0.000 A 
ATOM     18  C   UNL     1       7.567   4.993  14.645  0.00  0.00    +0.000 A 
ATOM     19  C   UNL     1       6.832   4.460  13.589  0.00  0.00    +0.000 A 
ATOM     20  C   UNL     1       7.466   4.204  12.372  0.00  0.00    +0.000 A 
ATOM     21  C   UNL     1       6.929   3.270  11.498  0.00  0.00    +0.000 A 
ATOM     22  C   UNL     1       5.652   2.774  11.733  0.00  0.00    +0.000 A 
ATOM     23  C   UNL     1       4.891   3.272  12.802  0.00  0.00    +0.000 A 
ATOM     24  C   UNL     1       5.481   4.101  13.780  0.00  0.00    +0.000 A 
ATOM     25  C   UNL     1       4.821   4.551  14.954  0.00  0.00    +0.000 A 
ENDBRANCH  13  16
ENDBRANCH   1  14
BRANCH   6  26
ATOM     26  C   UNL     1       2.787   4.234  19.848  0.00  0.00    +0.000 C 
ATOM     27  F   UNL     1       4.119   3.929  19.888  0.00  0.00    +0.000 F 
ATOM     28  F   UNL     1       2.279   3.802  21.035  0.00  0.00    +0.000 F 
ATOM     29  F   UNL     1       2.260   3.415  18.896  0.00  0.00    +0.000 F 
ENDBRANCH   6  26
TORSDOF 4
ENDMDL
MODEL 3
REMARK VINA RESULT:      -7.9      2.141      9.109
REMARK  Name = 
REMARK  4 active torsions:
REMARK  status: ('A' for Active; 'I' for Inactive)
REMARK    1  A    between atoms: C_2  and  C_19
REMARK    2  A    between atoms: N_3  and  C_4
REMARK    3  A    between atoms: C_7  and  N_8
REMARK    4  A    between atoms: C_14  and  C_15
REMARK                            x       y       z     vdW  Elec       q    Type
REMARK                         _______ _______ _______ _____ _____    ______ ____
ROOT
ATOM      1  C   UNL     1       3.413   6.623  17.648  0.00  0.00    +0.000 A 
ATOM      2  C   UNL     1       4.375   7.426  17.011  0.00  0.00    +0.000 A 
ATOM      3  C   UNL     1       5.276   6.902  16.074  0.00  0.00    +0.000 A 
ATOM      4  C   UNL     1       5.229   5.537  15.755  0.00  0.00    +0.000 A 
ATOM      5  C   UNL     1       4.298   4.726  16.399  0.00  0.00    +0.000 A 
ATOM      6  C   UNL     1       3.391   5.245  17.361  0.00  0.00    +0.000 A 
ENDROOT
BRANCH   4   7
ATOM      7  N   UNL     1       6.101   5.003  14.775  0.00  0.00    +0.000 N 
ATOM      8  C   UNL     1       5.885   3.967  13.899  0.00  0.00    +0.000 A 
ATOM      9  C   UNL     1       7.040   3.797  13.172  0.00  0.00    +0.000 A 
ATOM     10  C   UNL     1       7.918   4.769  13.652  0.00  0.00    +0.000 A 
ATOM     11  N   UNL     1       7.351   5.515  14.621  0.00  0.00    +0.000 NA
ENDBRANCH   4   7
BRANCH   1  14
ATOM     12  O   UNL     1       1.621   8.906  17.340  0.00  0.00    +0.000 OA
ATOM     13  C   UNL     1       1.759   8.322  18.411  0.00  0.00    +0.000 C 
ATOM     14  N   UNL     1       2.514   7.177  18.603  0.00  0.00    +0.000 N 
ATOM     15  H   UNL     1       2.401   6.678  19.480  0.00  0.00    +0.000 HD
BRANCH  13  16
ATOM     16  C   UNL     1       1.112   8.927  19.609  0.00  0.00    +0.000 A 
ATOM     17  C   UNL     1       1.538   8.410  20.838  0.00  0.00    +0.000 A 
ATOM     18  C   UNL     1       0.901   8.777  22.014  0.00  0.00    +0.000 A 
ATOM     19  C   UNL     1      -0.084   9.762  22.001  0.00  0.00    +0.000 A 
ATOM     20  C   UNL     1      -0.728  10.106  23.191  0.00  0.00    +0.000 A 
ATOM     21  C   UNL     1      -1.329  11.349  23.314  0.00  0.00    +0.000 A 
ATOM     22  C   UNL     1      -1.487  12.144  22.185  0.00  0.00    +0.000 A 
ATOM     23  C   UNL     1      -1.110  11.656  20.925  0.00  0.00    +0.000 A 
ATOM     24  C   UNL     1      -0.361  10.465  20.809  0.00  0.00    +0.000 A 
ATOM     25  C   UNL     1       0.164   9.963  19.589  0.00  0.00    +0.000 A 
ENDBRANCH  13  16
ENDBRANCH   1  14
BRANCH   6  26
ATOM     26  C   UNL     1       2.414   4.281  17.980  0.00  0.00    +0.000 C 
ATOM     27  F   UNL     1       1.106   4.546  17.683  0.00  0.00    +0.000 F 
ATOM     28  F   UNL     1       2.623   2.995  17.584  0.00  0.00    +0.000 F 
ATOM     29  F   UNL     1       2.477   4.267  19.340  0.00  0.00    +0.000 F 
ENDBRANCH   6  26
TORSDOF 4
ENDMDL
MODEL 4
REMARK VINA RESULT:      -7.9      3.859      5.619
REMARK  Name = 
REMARK  4 active torsions:
REMARK  status: ('A' for Active; 'I' for Inactive)
REMARK    1  A    between atoms: C_2  and  C_19
REMARK    2  A    between atoms: N_3  and  C_4
REMARK    3  A    between atoms: C_7  and  N_8
REMARK    4  A    between atoms: C_14  and  C_15
REMARK                            x       y       z     vdW  Elec       q    Type
REMARK                         _______ _______ _______ _____ _____    ______ ____
ROOT
ATOM      1  C   UNL     1       0.750   9.996  19.745  0.00  0.00    +0.000 A 
ATOM      2  C   UNL     1       0.760  11.046  18.811  0.00  0.00    +0.000 A 
ATOM      3  C   UNL     1       0.048  12.235  19.023  0.00  0.00    +0.000 A 
ATOM      4  C   UNL     1      -0.701  12.393  20.198  0.00  0.00    +0.000 A 
ATOM      5  C   UNL     1      -0.740  11.349  21.119  0.00  0.00    +0.000 A 
ATOM      6  C   UNL     1      -0.035  10.136  20.905  0.00  0.00    +0.000 A 
ENDROOT
BRANCH   4   7
ATOM      7  N   UNL     1      -1.387  13.607  20.447  0.00  0.00    +0.000 N 
ATOM      8  C   UNL     1      -1.003  14.893  20.149  0.00  0.00    +0.000 A 
ATOM      9  C   UNL     1      -1.983  15.733  20.622  0.00  0.00    +0.000 A 
ATOM     10  C   UNL     1      -2.940  14.892  21.190  0.00  0.00    +0.000 A 
ATOM     11  N   UNL     1      -2.590  13.596  21.079  0.00  0.00    +0.000 NA
ENDBRANCH   4   7
BRANCH   1  14
ATOM     12  O   UNL     1       2.204   9.206  17.341  0.00  0.00    +0.000 OA
ATOM     13  C   UNL     1       2.065   8.452  18.299  0.00  0.00    +0.000 C 
ATOM     14  N   UNL     1       1.475   8.794  19.504  0.00  0.00    +0.000 N 
ATOM     15  H   UNL     1       1.586   8.153  20.284  0.00  0.00    +0.000 HD
BRANCH  13  16
ATOM     16  C   UNL     1       2.514   7.041  18.129  0.00  0.00    +0.000 A 
ATOM     17  C   UNL     1       3.850   6.887  17.741  0.00  0.00    +0.000 A 
ATOM     18  C   UNL     1       4.343   5.636  17.398  0.00  0.00    +0.000 A 
ATOM     19  C   UNL     1       3.552   4.501  17.562  0.00  0.00    +0.000 A 
ATOM     20  C   UNL     1       4.056   3.253  17.195  0.00  0.00    +0.000 A 
ATOM     21  C   UNL     1       3.529   2.103  17.761  0.00  0.00    +0.000 A 
ATOM     22  C   UNL     1       2.359   2.186  18.506  0.00  0.00    +0.000 A 
ATOM     23  C   UNL     1       1.681   3.410  18.614  0.00  0.00    +0.000 A 
ATOM     24  C   UNL     1       2.285   4.607  18.176  0.00  0.00    +0.000 A 
ATOM     25  C   UNL     1       1.727   5.901  18.355  0.00  0.00    +0.000 A 
ENDBRANCH  13  16
ENDBRANCH   1  14
BRANCH   6  26
ATOM     26  C   UNL     1      -0.131   9.083  21.978  0.00  0.00    +0.000 C 
ATOM     27  F   UNL     1      -0.723   7.922  21.567  0.00  0.00    +0.000 F 
ATOM     28  F   UNL     1       1.086   8.718  22.466  0.00  0.00    +0.000 F 
ATOM     29  F   UNL     1      -0.857   9.493  23.055  0.00  0.00    +0.000 F 
ENDBRANCH   6  26
TORSDOF 4
ENDMDL
MODEL 5
REMARK VINA RESULT:      -7.8      4.555      6.697
REMARK  Name = 
REMARK  4 active torsions:
REMARK  status: ('A' for Active; 'I' for Inactive)
REMARK    1  A    between atoms: C_2  and  C_19
REMARK    2  A    between atoms: N_3  and  C_4
REMARK    3  A    between atoms: C_7  and  N_8
REMARK    4  A    between atoms: C_14  and  C_15
REMARK                            x       y       z     vdW  Elec       q    Type
REMARK                         _______ _______ _______ _____ _____    ______ ____
ROOT
ATOM      1  C   UNL     1      -0.384   9.861  21.418  0.00  0.00    +0.000 A 
ATOM      2  C   UNL     1      -0.782  10.045  22.753  0.00  0.00    +0.000 A 
ATOM      3  C   UNL     1      -1.169  11.299  23.247  0.00  0.00    +0.000 A 
ATOM      4  C   UNL     1      -1.160  12.412  22.394  0.00  0.00    +0.000 A 
ATOM      5  C   UNL     1      -0.743  12.248  21.075  0.00  0.00    +0.000 A 
ATOM      6  C   UNL     1      -0.336  10.985  20.571  0.00  0.00    +0.000 A 
ENDROOT
BRANCH   4   7
ATOM      7  N   UNL     1      -1.593  13.675  22.866  0.00  0.00    +0.000 N 
ATOM      8  C   UNL     1      -2.709  14.394  22.511  0.00  0.00    +0.000 A 
ATOM      9  C   UNL     1      -2.676  15.575  23.214  0.00  0.00    +0.000 A 
ATOM     10  C   UNL     1      -1.517  15.508  23.985  0.00  0.00    +0.000 A 
ATOM     11  N   UNL     1      -0.856  14.350  23.788  0.00  0.00    +0.000 NA
ENDBRANCH   4   7
BRANCH   1  14
ATOM     12  O   UNL     1       2.133   8.455  21.869  0.00  0.00    +0.000 OA
ATOM     13  C   UNL     1       1.262   8.016  21.124  0.00  0.00    +0.000 C 
ATOM     14  N   UNL     1       0.011   8.579  20.941  0.00  0.00    +0.000 N 
ATOM     15  H   UNL     1      -0.689   8.029  20.452  0.00  0.00    +0.000 HD
BRANCH  13  16
ATOM     16  C   UNL     1       1.602   6.816  20.307  0.00  0.00    +0.000 A 
ATOM     17  C   UNL     1       2.378   7.073  19.171  0.00  0.00    +0.000 A 
ATOM     18  C   UNL     1       2.627   6.068  18.248  0.00  0.00    +0.000 A 
ATOM     19  C   UNL     1       2.219   4.761  18.506  0.00  0.00    +0.000 A 
ATOM     20  C   UNL     1       2.461   3.766  17.558  0.00  0.00    +0.000 A 
ATOM     21  C   UNL     1       2.514   2.438  17.952  0.00  0.00    +0.000 A 
ATOM     22  C   UNL     1       2.099   2.090  19.232  0.00  0.00    +0.000 A 
ATOM     23  C   UNL     1       1.560   3.066  20.084  0.00  0.00    +0.000 A 
ATOM     24  C   UNL     1       1.645   4.435  19.753  0.00  0.00    +0.000 A 
ATOM     25  C   UNL     1       1.237   5.494  20.608  0.00  0.00    +0.000 A 
ENDBRANCH  13  16
ENDBRANCH   1  14
BRANCH   6  26
ATOM     26  C   UNL     1       0.077  10.920  19.124  0.00  0.00    +0.000 C 
ATOM     27  F   UNL     1      -0.011  12.114  18.465  0.00  0.00    +0.000 F 
ATOM     28  F   UNL     1       1.365  10.510  18.964  0.00  0.00    +0.000 F 
ATOM     29  F   UNL     1      -0.683  10.053  18.397  0.00  0.00    +0.000 F 
ENDBRANCH   6  26
TORSDOF 4
ENDMDL
MODEL 6
REMARK VINA RESULT:      -7.7      4.173      6.303
REMARK  Name = 
REMARK  4 active torsions:
REMARK  status: ('A' for Active; 'I' for Inactive)
REMARK    1  A    between atoms: C_2  and  C_19
REMARK    2  A    between atoms: N_3  and  C_4
REMARK    3  A    between atoms: C_7  and  N_8
REMARK    4  A    between atoms: C_14  and  C_15
REMARK                            x       y       z     vdW  Elec       q    Type
REMARK                         _______ _______ _______ _____ _____    ______ ____
ROOT
ATOM      1  C   UNL     1       0.766  10.038  20.271  0.00  0.00    +0.000 A 
ATOM      2  C   UNL     1       0.969  10.905  19.183  0.00  0.00    +0.000 A 
ATOM      3  C   UNL     1       0.440  12.204  19.160  0.00  0.00    +0.000 A 
ATOM      4  C   UNL     1      -0.318  12.663  20.247  0.00  0.00    +0.000 A 
ATOM      5  C   UNL     1      -0.549  11.804  21.319  0.00  0.00    +0.000 A 
ATOM      6  C   UNL     1      -0.030  10.483  21.344  0.00  0.00    +0.000 A 
ENDROOT
BRANCH   4   7
ATOM      7  N   UNL     1      -0.818  13.988  20.258  0.00  0.00    +0.000 N 
ATOM      8  C   UNL     1      -0.389  15.078  19.540  0.00  0.00    +0.000 A 
ATOM      9  C   UNL     1      -1.163  16.149  19.921  0.00  0.00    +0.000 A 
ATOM     10  C   UNL     1      -2.050  15.639  20.869  0.00  0.00    +0.000 A 
ATOM     11  N   UNL     1      -1.853  14.321  21.073  0.00  0.00    +0.000 NA
ENDBRANCH   4   7
BRANCH   1  14
ATOM     12  O   UNL     1       2.286   8.706  18.167  0.00  0.00    +0.000 OA
ATOM     13  C   UNL     1       1.941   8.126  19.192  0.00  0.00    +0.000 C 
ATOM     14  N   UNL     1       1.307   8.721  20.269  0.00  0.00    +0.000 N 
ATOM     15  H   UNL     1       1.242   8.191  21.132  0.00  0.00    +0.000 HD
BRANCH  13  16
ATOM     16  C   UNL     1       2.170   6.655  19.256  0.00  0.00    +0.000 A 
ATOM     17  C   UNL     1       1.934   6.073  20.507  0.00  0.00    +0.000 A 
ATOM     18  C   UNL     1       2.262   4.744  20.737  0.00  0.00    +0.000 A 
ATOM     19  C   UNL     1       2.706   3.940  19.691  0.00  0.00    +0.000 A 
ATOM     20  C   UNL     1       3.049   2.611  19.944  0.00  0.00    +0.000 A 
ATOM     21  C   UNL     1       3.027   1.685  18.911  0.00  0.00    +0.000 A 
ATOM     22  C   UNL     1       2.892   2.129  17.602  0.00  0.00    +0.000 A 
ATOM     23  C   UNL     1       2.857   3.505  17.327  0.00  0.00    +0.000 A 
ATOM     24  C   UNL     1       2.724   4.444  18.373  0.00  0.00    +0.000 A 
ATOM     25  C   UNL     1       2.560   5.842  18.181  0.00  0.00    +0.000 A 
ENDBRANCH  13  16
ENDBRANCH   1  14
BRANCH   6  26
ATOM     26  C   UNL     1      -0.325   9.649  22.564  0.00  0.00    +0.000 C 
ATOM     27  F   UNL     1       0.777   9.355  23.317  0.00  0.00    +0.000 F 
ATOM     28  F   UNL     1      -1.198  10.254  23.415  0.00  0.00    +0.000 F 
ATOM     29  F   UNL     1      -0.880   8.443  22.256  0.00  0.00    +0.000 F 
ENDBRANCH   6  26
TORSDOF 4
ENDMDL
MODEL 7
REMARK VINA RESULT:      -7.7      3.682      5.426
REMARK  Name = 
REMARK  4 active torsions:
REMARK  status: ('A' for Active; 'I' for Inactive)
REMARK    1  A    between atoms: C_2  and  C_19
REMARK    2  A    between atoms: N_3  and  C_4
REMARK    3  A    between atoms: C_7  and  N_8
REMARK    4  A    between atoms: C_14  and  C_15
REMARK                            x       y       z     vdW  Elec       q    Type
REMARK                         _______ _______ _______ _____ _____    ______ ____
ROOT
ATOM      1  C   UNL     1       0.772   9.447  20.545  0.00  0.00    +0.000 A 
ATOM      2  C   UNL     1       0.598   9.238  21.924  0.00  0.00    +0.000 A 
ATOM      3  C   UNL     1      -0.141  10.123  22.721  0.00  0.00    +0.000 A 
ATOM      4  C   UNL     1      -0.727  11.256  22.139  0.00  0.00    +0.000 A 
ATOM      5  C   UNL     1      -0.539  11.488  20.778  0.00  0.00    +0.000 A 
ATOM      6  C   UNL     1       0.220  10.605  19.966  0.00  0.00    +0.000 A 
ENDROOT
BRANCH   4   7
ATOM      7  N   UNL     1      -1.516  12.134  22.922  0.00  0.00    +0.000 N 
ATOM      8  C   UNL     1      -2.817  11.987  23.337  0.00  0.00    +0.000 A 
ATOM      9  C   UNL     1      -3.152  13.119  24.042  0.00  0.00    +0.000 A 
ATOM     10  C   UNL     1      -2.005  13.912  24.025  0.00  0.00    +0.000 A 
ATOM     11  N   UNL     1      -1.000  13.315  23.354  0.00  0.00    +0.000 NA
ENDBRANCH   4   7
BRANCH   1  14
ATOM     12  O   UNL     1       1.368   6.641  21.082  0.00  0.00    +0.000 OA
ATOM     13  C   UNL     1       1.849   7.240  20.125  0.00  0.00    +0.000 C 
ATOM     14  N   UNL     1       1.534   8.537  19.757  0.00  0.00    +0.000 N 
ATOM     15  H   UNL     1       1.847   8.860  18.847  0.00  0.00    +0.000 HD
BRANCH  13  16
ATOM     16  C   UNL     1       2.899   6.537  19.335  0.00  0.00    +0.000 A 
ATOM     17  C   UNL     1       3.282   5.288  19.838  0.00  0.00    +0.000 A 
ATOM     18  C   UNL     1       4.357   4.608  19.285  0.00  0.00    +0.000 A 
ATOM     19  C   UNL     1       4.983   5.096  18.140  0.00  0.00    +0.000 A 
ATOM     20  C   UNL     1       6.075   4.409  17.608  0.00  0.00    +0.000 A 
ATOM     21  C   UNL     1       6.404   4.569  16.271  0.00  0.00    +0.000 A 
ATOM     22  C   UNL     1       5.797   5.581  15.537  0.00  0.00    +0.000 A 
ATOM     23  C   UNL     1       4.918   6.475  16.167  0.00  0.00    +0.000 A 
ATOM     24  C   UNL     1       4.460   6.228  17.479  0.00  0.00    +0.000 A 
ATOM     25  C   UNL     1       3.481   7.010  18.148  0.00  0.00    +0.000 A 
ENDBRANCH  13  16
ENDBRANCH   1  14
BRANCH   6  26
ATOM     26  C   UNL     1       0.341  10.944  18.503  0.00  0.00    +0.000 C 
ATOM     27  F   UNL     1      -0.200  10.007  17.668  0.00  0.00    +0.000 F 
ATOM     28  F   UNL     1      -0.275  12.115  18.183  0.00  0.00    +0.000 F 
ATOM     29  F   UNL     1       1.634  11.080  18.099  0.00  0.00    +0.000 F 
ENDBRANCH   6  26
TORSDOF 4
ENDMDL
MODEL 8
REMARK VINA RESULT:      -7.7      2.505      9.436
REMARK  Name = 
REMARK  4 active torsions:
REMARK  status: ('A' for Active; 'I' for Inactive)
REMARK    1  A    between atoms: C_2  and  C_19
REMARK    2  A    between atoms: N_3  and  C_4
REMARK    3  A    between atoms: C_7  and  N_8
REMARK    4  A    between atoms: C_14  and  C_15
REMARK                            x       y       z     vdW  Elec       q    Type
REMARK                         _______ _______ _______ _____ _____    ______ ____
ROOT
ATOM      1  C   UNL     1       2.528   7.412  18.813  0.00  0.00    +0.000 A 
ATOM      2  C   UNL     1       3.224   8.049  17.771  0.00  0.00    +0.000 A 
ATOM      3  C   UNL     1       4.140   7.362  16.962  0.00  0.00    +0.000 A 
ATOM      4  C   UNL     1       4.381   6.000  17.190  0.00  0.00    +0.000 A 
ATOM      5  C   UNL     1       3.718   5.364  18.237  0.00  0.00    +0.000 A 
ATOM      6  C   UNL     1       2.800   6.055  19.071  0.00  0.00    +0.000 A 
ENDROOT
BRANCH   4   7
ATOM      7  N   UNL     1       5.269   5.283  16.351  0.00  0.00    +0.000 N 
ATOM      8  C   UNL     1       5.153   4.003  15.866  0.00  0.00    +0.000 A 
ATOM      9  C   UNL     1       6.284   3.741  15.128  0.00  0.00    +0.000 A 
ATOM     10  C   UNL     1       7.043   4.909  15.198  0.00  0.00    +0.000 A 
ATOM     11  N   UNL     1       6.428   5.857  15.932  0.00  0.00    +0.000 NA
ENDBRANCH   4   7
BRANCH   1  14
ATOM     12  O   UNL     1       0.686   9.534  18.024  0.00  0.00    +0.000 OA
ATOM     13  C   UNL     1       0.828   9.192  19.194  0.00  0.00    +0.000 C 
ATOM     14  N   UNL     1       1.607   8.133  19.626  0.00  0.00    +0.000 N 
ATOM     15  H   UNL     1       1.499   7.827  20.588  0.00  0.00    +0.000 HD
BRANCH  13  16
ATOM     16  C   UNL     1       0.156  10.020  20.235  0.00  0.00    +0.000 A 
ATOM     17  C   UNL     1       0.283   9.543  21.545  0.00  0.00    +0.000 A 
ATOM     18  C   UNL     1      -0.426  10.135  22.580  0.00  0.00    +0.000 A 
ATOM     19  C   UNL     1      -1.170  11.290  22.351  0.00  0.00    +0.000 A 
ATOM     20  C   UNL     1      -1.892  11.861  23.400  0.00  0.00    +0.000 A 
ATOM     21  C   UNL     1      -2.231  13.205  23.352  0.00  0.00    +0.000 A 
ATOM     22  C   UNL     1      -2.054  13.909  22.167  0.00  0.00    +0.000 A 
ATOM     23  C   UNL     1      -1.610  13.243  21.014  0.00  0.00    +0.000 A 
ATOM     24  C   UNL     1      -1.119  11.922  21.091  0.00  0.00    +0.000 A 
ATOM     25  C   UNL     1      -0.540  11.216  20.002  0.00  0.00    +0.000 A 
ENDBRANCH  13  16
ENDBRANCH   1  14
BRANCH   6  26
ATOM     26  C   UNL     1       2.125   5.263  20.160  0.00  0.00    +0.000 C 
ATOM     27  F   UNL     1       1.022   4.572  19.743  0.00  0.00    +0.000 F 
ATOM     28  F   UNL     1       2.947   4.333  20.719  0.00  0.00    +0.000 F 
ATOM     29  F   UNL     1       1.691   6.044  21.188  0.00  0.00    +0.000 F 
ENDBRANCH   6  26
TORSDOF 4
ENDMDL
MODEL 9
REMARK VINA RESULT:      -7.7      4.891      6.233
REMARK  Name = 
REMARK  4 active torsions:
REMARK  status: ('A' for Active; 'I' for Inactive)
REMARK    1  A    between atoms: C_2  and  C_19
REMARK    2  A    between atoms: N_3  and  C_4
REMARK    3  A    between atoms: C_7  and  N_8
REMARK    4  A    between atoms: C_14  and  C_15
REMARK                            x       y       z     vdW  Elec       q    Type
REMARK                         _______ _______ _______ _____ _____    ______ ____
ROOT
ATOM      1  C   UNL     1       0.991  11.115  18.265  0.00  0.00    +0.000 A 
ATOM      2  C   UNL     1       1.898  12.169  18.474  0.00  0.00    +0.000 A 
ATOM      3  C   UNL     1       1.472  13.455  18.833  0.00  0.00    +0.000 A 
ATOM      4  C   UNL     1       0.102  13.713  18.991  0.00  0.00    +0.000 A 
ATOM      5  C   UNL     1      -0.808  12.684  18.760  0.00  0.00    +0.000 A 
ATOM      6  C   UNL     1      -0.387  11.382  18.382  0.00  0.00    +0.000 A 
ENDROOT
BRANCH   4   7
ATOM      7  N   UNL     1      -0.339  14.995  19.400  0.00  0.00    +0.000 N 
ATOM      8  C   UNL     1      -1.201  15.327  20.417  0.00  0.00    +0.000 A 
ATOM      9  C   UNL     1      -1.348  16.694  20.399  0.00  0.00    +0.000 A 
ATOM     10  C   UNL     1      -0.542  17.133  19.349  0.00  0.00    +0.000 A 
ATOM     11  N   UNL     1       0.084  16.106  18.742  0.00  0.00    +0.000 NA
ENDBRANCH   4   7
BRANCH   1  14
ATOM     12  O   UNL     1       1.484   8.805  19.978  0.00  0.00    +0.000 OA
ATOM     13  C   UNL     1       1.745   8.798  18.779  0.00  0.00    +0.000 C 
ATOM     14  N   UNL     1       1.447   9.819  17.893  0.00  0.00    +0.000 N 
ATOM     15  H   UNL     1       1.537   9.625  16.900  0.00  0.00    +0.000 HD
BRANCH  13  16
ATOM     16  C   UNL     1       2.494   7.624  18.248  0.00  0.00    +0.000 A 
ATOM     17  C   UNL     1       1.951   6.376  18.579  0.00  0.00    +0.000 A 
ATOM     18  C   UNL     1       2.639   5.209  18.280  0.00  0.00    +0.000 A 
ATOM     19  C   UNL     1       3.813   5.258  17.532  0.00  0.00    +0.000 A 
ATOM     20  C   UNL     1       4.502   4.076  17.257  0.00  0.00    +0.000 A 
ATOM     21  C   UNL     1       5.356   4.015  16.166  0.00  0.00    +0.000 A 
ATOM     22  C   UNL     1       5.695   5.187  15.500  0.00  0.00    +0.000 A 
ATOM     23  C   UNL     1       5.237   6.424  15.979  0.00  0.00    +0.000 A 
ATOM     24  C   UNL     1       4.250   6.484  16.986  0.00  0.00    +0.000 A 
ATOM     25  C   UNL     1       3.643   7.684  17.444  0.00  0.00    +0.000 A 
ENDBRANCH  13  16
ENDBRANCH   1  14
BRANCH   6  26
ATOM     26  C   UNL     1      -1.457  10.342  18.179  0.00  0.00    +0.000 C 
ATOM     27  F   UNL     1      -1.316   9.615  17.029  0.00  0.00    +0.000 F 
ATOM     28  F   UNL     1      -1.496   9.426  19.185  0.00  0.00    +0.000 F 
ATOM     29  F   UNL     1      -2.707  10.878  18.113  0.00  0.00    +0.000 F 
ENDBRANCH   6  26
TORSDOF 4
ENDMDL
