MODEL 1
REMARK VINA RESULT:      -8.6      0.000      0.000
REMARK  Name = 
REMARK  5 active torsions:
REMARK  status: ('A' for Active; 'I' for Inactive)
REMARK    1  A    between atoms: C_1  and  C_2
REMARK    2  A    between atoms: C_5  and  C_6
REMARK    3  A    between atoms: C_11  and  C_12
REMARK    4  A    between atoms: N_14  and  C_15
REMARK    5  A    between atoms: C_23  and  O_24
REMARK                            x       y       z     vdW  Elec       q    Type
REMARK                         _______ _______ _______ _____ _____    ______ ____
ROOT
ATOM      1  C   UNL     1       4.625   4.107  16.786  0.00  0.00    +0.000 C 
ATOM      2  O   UNL     1       4.248   2.987  17.107  0.00  0.00    +0.000 OA
ATOM      3  N   UNL     1       4.099   5.255  17.322  0.00  0.00    +0.000 N 
ATOM      4  H   UNL     1       4.268   6.120  16.830  0.00  0.00    +0.000 HD
ENDROOT
BRANCH   3   5
ATOM      5  C   UNL     1       2.944   5.238  18.203  0.00  0.00    +0.000 C 
ATOM      6  C   UNL     1       2.414   6.641  18.386  0.00  0.00    +0.000 A 
ATOM      7  C   UNL     1       2.276   7.645  17.438  0.00  0.00    +0.000 A 
ATOM      8  C   UNL     1       1.910   8.919  17.871  0.00  0.00    +0.000 A 
ATOM      9  C   UNL     1       1.649   9.164  19.227  0.00  0.00    +0.000 A 
ATOM     10  C   UNL     1       1.712   8.131  20.164  0.00  0.00    +0.000 A 
ATOM     11  C   UNL     1       2.093   6.874  19.731  0.00  0.00    +0.000 A 
ATOM     12  C   UNL     1       2.244   5.622  20.543  0.00  0.00    +0.000 C 
ATOM     13  C   UNL     1       3.262   4.851  19.687  0.00  0.00    +0.000 C 
BRANCH  13  14
ATOM     14  O   UNL     1       4.578   5.275  20.098  0.00  0.00    +0.000 OA
ATOM     15  H   UNL     1       4.694   4.946  21.007  0.00  0.00    +0.000 HD
ENDBRANCH  13  14
ENDBRANCH   3   5
BRANCH   1  21
ATOM     16  C   UNL     1       6.723   5.116  15.665  0.00  0.00    +0.000 A 
ATOM     17  C   UNL     1       7.416   5.287  14.444  0.00  0.00    +0.000 A 
ATOM     18  C   UNL     1       7.019   4.644  13.274  0.00  0.00    +0.000 A 
ATOM     19  C   UNL     1       5.932   3.785  13.296  0.00  0.00    +0.000 A 
ATOM     20  C   UNL     1       5.232   3.594  14.485  0.00  0.00    +0.000 A 
ATOM     21  C   UNL     1       5.596   4.276  15.667  0.00  0.00    +0.000 A 
BRANCH  16  26
ATOM     22  C   UNL     1       8.296   8.974  18.179  0.00  0.00    +0.000 C 
ATOM     23  C   UNL     1       7.902   7.580  17.905  0.00  0.00    +0.000 A 
ATOM     24  N   UNL     1       7.843   6.575  18.750  0.00  0.00    +0.000 NA
ATOM     25  N   UNL     1       7.409   5.491  18.031  0.00  0.00    +0.000 NA
ATOM     26  C   UNL     1       7.236   5.898  16.787  0.00  0.00    +0.000 A 
ATOM     27  O   UNL     1       7.531   7.229  16.626  0.00  0.00    +0.000 OA
ENDBRANCH  16  26
ENDBRANCH   1  21
TORSDOF 4
ENDMDL
MODEL 2
REMARK VINA RESULT:      -8.0      1.785      2.980
REMARK  Name = 
REMARK  5 active torsions:
REMARK  status: ('A' for Active; 'I' for Inactive)
REMARK    1  A    between atoms: C_1  and  C_2
REMARK    2  A    between atoms: C_5  and  C_6
REMARK    3  A    between atoms: C_11  and  C_12
REMARK    4  A    between atoms: N_14  and  C_15
REMARK    5  A    between atoms: C_23  and  O_24
REMARK                            x       y       z     vdW  Elec       q    Type
REMARK                         _______ _______ _______ _____ _____    ______ ____
ROOT
ATOM      1  C   UNL     1       5.563   4.702  18.414  0.00  0.00    +0.000 C 
ATOM      2  O   UNL     1       6.071   3.977  19.261  0.00  0.00    +0.000 OA
ATOM      3  N   UNL     1       4.376   5.363  18.611  0.00  0.00    +0.000 N 
ATOM      4  H   UNL     1       3.900   5.719  17.796  0.00  0.00    +0.000 HD
ENDROOT
BRANCH   3   5
ATOM      5  C   UNL     1       3.551   5.135  19.784  0.00  0.00    +0.000 C 
ATOM      6  C   UNL     1       2.637   3.955  19.550  0.00  0.00    +0.000 A 
ATOM      7  C   UNL     1       2.922   2.749  18.924  0.00  0.00    +0.000 A 
ATOM      8  C   UNL     1       1.873   1.865  18.680  0.00  0.00    +0.000 A 
ATOM      9  C   UNL     1       0.569   2.174  19.095  0.00  0.00    +0.000 A 
ATOM     10  C   UNL     1       0.302   3.352  19.793  0.00  0.00    +0.000 A 
ATOM     11  C   UNL     1       1.345   4.233  20.018  0.00  0.00    +0.000 A 
ATOM     12  C   UNL     1       1.303   5.555  20.725  0.00  0.00    +0.000 C 
ATOM     13  C   UNL     1       2.502   6.262  20.073  0.00  0.00    +0.000 C 
BRANCH  13  14
ATOM     14  O   UNL     1       2.025   6.895  18.868  0.00  0.00    +0.000 OA
ATOM     15  H   UNL     1       1.962   6.189  18.200  0.00  0.00    +0.000 HD
ENDBRANCH  13  14
ENDBRANCH   3   5
BRANCH   1  21
ATOM     16  C   UNL     1       7.036   5.776  16.583  0.00  0.00    +0.000 A 
ATOM     17  C   UNL     1       7.340   5.793  15.202  0.00  0.00    +0.000 A 
ATOM     18  C   UNL     1       6.804   4.860  14.317  0.00  0.00    +0.000 A 
ATOM     19  C   UNL     1       5.969   3.861  14.792  0.00  0.00    +0.000 A 
ATOM     20  C   UNL     1       5.656   3.817  16.149  0.00  0.00    +0.000 A 
ATOM     21  C   UNL     1       6.155   4.785  17.048  0.00  0.00    +0.000 A 
BRANCH  16  26
ATOM     22  C   UNL     1       8.371  10.277  17.859  0.00  0.00    +0.000 C 
ATOM     23  C   UNL     1       8.208   8.815  17.949  0.00  0.00    +0.000 A 
ATOM     24  N   UNL     1       8.557   8.022  18.937  0.00  0.00    +0.000 NA
ATOM     25  N   UNL     1       8.187   6.756  18.564  0.00  0.00    +0.000 NA
ATOM     26  C   UNL     1       7.640   6.851  17.367  0.00  0.00    +0.000 A 
ATOM     27  O   UNL     1       7.616   8.143  16.903  0.00  0.00    +0.000 OA
ENDBRANCH  16  26
ENDBRANCH   1  21
TORSDOF 4
ENDMDL
MODEL 3
REMARK VINA RESULT:      -7.9      2.305      4.575
REMARK  Name = 
REMARK  5 active torsions:
REMARK  status: ('A' for Active; 'I' for Inactive)
REMARK    1  A    between atoms: C_1  and  C_2
REMARK    2  A    between atoms: C_5  and  C_6
REMARK    3  A    between atoms: C_11  and  C_12
REMARK    4  A    between atoms: N_14  and  C_15
REMARK    5  A    between atoms: C_23  and  O_24
REMARK                            x       y       z     vdW  Elec       q    Type
REMARK                         _______ _______ _______ _____ _____    ______ ____
ROOT
ATOM      1  C   UNL     1       3.008   6.420  18.147  0.00  0.00    +0.000 C 
ATOM      2  O   UNL     1       4.051   6.886  17.705  0.00  0.00    +0.000 OA
ATOM      3  N   UNL     1       2.033   7.189  18.731  0.00  0.00    +0.000 N 
ATOM      4  H   UNL     1       1.341   6.718  19.294  0.00  0.00    +0.000 HD
ENDROOT
BRANCH   3   5
ATOM      5  C   UNL     1       2.227   8.602  19.008  0.00  0.00    +0.000 C 
ATOM      6  C   UNL     1       1.372   9.019  20.182  0.00  0.00    +0.000 A 
ATOM      7  C   UNL     1       1.124   8.330  21.361  0.00  0.00    +0.000 A 
ATOM      8  C   UNL     1       0.170   8.842  22.240  0.00  0.00    +0.000 A 
ATOM      9  C   UNL     1      -0.490  10.046  21.953  0.00  0.00    +0.000 A 
ATOM     10  C   UNL     1      -0.179  10.775  20.804  0.00  0.00    +0.000 A 
ATOM     11  C   UNL     1       0.756  10.253  19.928  0.00  0.00    +0.000 A 
ATOM     12  C   UNL     1       1.241  10.838  18.635  0.00  0.00    +0.000 C 
ATOM     13  C   UNL     1       1.687   9.565  17.899  0.00  0.00    +0.000 C 
BRANCH  13  14
ATOM     14  O   UNL     1       0.530   9.033  17.220  0.00  0.00    +0.000 OA
ATOM     15  H   UNL     1      -0.151   9.728  17.265  0.00  0.00    +0.000 HD
ENDBRANCH  13  14
ENDBRANCH   3   5
BRANCH   1  21
ATOM     16  C   UNL     1       3.672   3.972  17.657  0.00  0.00    +0.000 A 
ATOM     17  C   UNL     1       3.225   2.630  17.641  0.00  0.00    +0.000 A 
ATOM     18  C   UNL     1       1.983   2.261  18.152  0.00  0.00    +0.000 A 
ATOM     19  C   UNL     1       1.161   3.219  18.724  0.00  0.00    +0.000 A 
ATOM     20  C   UNL     1       1.577   4.547  18.758  0.00  0.00    +0.000 A 
ATOM     21  C   UNL     1       2.813   4.942  18.200  0.00  0.00    +0.000 A 
BRANCH  16  26
ATOM     22  C   UNL     1       6.972   4.830  14.187  0.00  0.00    +0.000 C 
ATOM     23  C   UNL     1       6.426   4.600  15.536  0.00  0.00    +0.000 A 
ATOM     24  N   UNL     1       7.067   4.620  16.683  0.00  0.00    +0.000 NA
ATOM     25  N   UNL     1       6.132   4.367  17.653  0.00  0.00    +0.000 NA
ATOM     26  C   UNL     1       4.976   4.200  17.039  0.00  0.00    +0.000 A 
ATOM     27  O   UNL     1       5.082   4.336  15.677  0.00  0.00    +0.000 OA
ENDBRANCH  16  26
ENDBRANCH   1  21
TORSDOF 4
ENDMDL
MODEL 4
REMARK VINA RESULT:      -7.8      0.987      1.096
REMARK  Name = 
REMARK  5 active torsions:
REMARK  status: ('A' for Active; 'I' for Inactive)
REMARK    1  A    between atoms: C_1  and  C_2
REMARK    2  A    between atoms: C_5  and  C_6
REMARK    3  A    between atoms: C_11  and  C_12
REMARK    4  A    between atoms: N_14  and  C_15
REMARK    5  A    between atoms: C_23  and  O_24
REMARK                            x       y       z     vdW  Elec       q    Type
REMARK                         _______ _______ _______ _____ _____    ______ ____
ROOT
ATOM      1  C   UNL     1       4.605   3.943  16.551  0.00  0.00    +0.000 C 
ATOM      2  O   UNL     1       4.176   2.810  16.733  0.00  0.00    +0.000 OA
ATOM      3  N   UNL     1       4.123   5.041  17.217  0.00  0.00    +0.000 N 
ATOM      4  H   UNL     1       4.334   5.950  16.834  0.00  0.00    +0.000 HD
ENDROOT
BRANCH   3   5
ATOM      5  C   UNL     1       2.959   4.969  18.084  0.00  0.00    +0.000 C 
ATOM      6  C   UNL     1       2.467   6.362  18.404  0.00  0.00    +0.000 A 
ATOM      7  C   UNL     1       2.369   7.460  17.561  0.00  0.00    +0.000 A 
ATOM      8  C   UNL     1       2.035   8.694  18.117  0.00  0.00    +0.000 A 
ATOM      9  C   UNL     1       1.767   8.809  19.489  0.00  0.00    +0.000 A 
ATOM     10  C   UNL     1       1.790   7.686  20.317  0.00  0.00    +0.000 A 
ATOM     11  C   UNL     1       2.139   6.468  19.763  0.00  0.00    +0.000 A 
ATOM     12  C   UNL     1       2.245   5.137  20.445  0.00  0.00    +0.000 C 
ATOM     13  C   UNL     1       3.249   4.426  19.523  0.00  0.00    +0.000 C 
BRANCH  13  14
ATOM     14  O   UNL     1       4.573   4.767  19.986  0.00  0.00    +0.000 OA
ATOM     15  H   UNL     1       4.715   4.250  20.798  0.00  0.00    +0.000 HD
ENDBRANCH  13  14
ENDBRANCH   3   5
BRANCH   1  21
ATOM     16  C   UNL     1       6.707   5.058  15.543  0.00  0.00    +0.000 A 
ATOM     17  C   UNL     1       7.421   5.321  14.351  0.00  0.00    +0.000 A 
ATOM     18  C   UNL     1       7.058   4.751  13.133  0.00  0.00    +0.000 A 
ATOM     19  C   UNL     1       5.984   3.876  13.075  0.00  0.00    +0.000 A 
ATOM     20  C   UNL     1       5.266   3.595  14.234  0.00  0.00    +0.000 A 
ATOM     21  C   UNL     1       5.594   4.202  15.466  0.00  0.00    +0.000 A 
BRANCH  16  26
ATOM     22  C   UNL     1       8.153   5.804  20.128  0.00  0.00    +0.000 C 
ATOM     23  C   UNL     1       7.843   6.105  18.719  0.00  0.00    +0.000 A 
ATOM     24  N   UNL     1       8.017   7.239  18.077  0.00  0.00    +0.000 NA
ATOM     25  N   UNL     1       7.597   7.022  16.790  0.00  0.00    +0.000 NA
ATOM     26  C   UNL     1       7.185   5.770  16.725  0.00  0.00    +0.000 A 
ATOM     27  O   UNL     1       7.312   5.114  17.925  0.00  0.00    +0.000 OA
ENDBRANCH  16  26
ENDBRANCH   1  21
TORSDOF 4
ENDMDL
MODEL 5
REMARK VINA RESULT:      -7.8      2.527      5.164
REMARK  Name = 
REMARK  5 active torsions:
REMARK  status: ('A' for Active; 'I' for Inactive)
REMARK    1  A    between atoms: C_1  and  C_2
REMARK    2  A    between atoms: C_5  and  C_6
REMARK    3  A    between atoms: C_11  and  C_12
REMARK    4  A    between atoms: N_14  and  C_15
REMARK    5  A    between atoms: C_23  and  O_24
REMARK                            x       y       z     vdW  Elec       q    Type
REMARK                         _______ _______ _______ _____ _____    ______ ____
ROOT
ATOM      1  C   UNL     1       2.632   6.507  19.228  0.00  0.00    +0.000 C 
ATOM      2  O   UNL     1       3.558   6.895  18.526  0.00  0.00    +0.000 OA
ATOM      3  N   UNL     1       1.760   7.361  19.854  0.00  0.00    +0.000 N 
ATOM      4  H   UNL     1       1.202   6.989  20.607  0.00  0.00    +0.000 HD
ENDROOT
BRANCH   3   5
ATOM      5  C   UNL     1       1.956   8.801  19.857  0.00  0.00    +0.000 C 
ATOM      6  C   UNL     1       1.079   9.439  20.909  0.00  0.00    +0.000 A 
ATOM      7  C   UNL     1       0.802   8.992  22.193  0.00  0.00    +0.000 A 
ATOM      8  C   UNL     1      -0.167   9.665  22.935  0.00  0.00    +0.000 A 
ATOM      9  C   UNL     1      -0.814  10.792  22.406  0.00  0.00    +0.000 A 
ATOM     10  C   UNL     1      -0.475  11.284  21.145  0.00  0.00    +0.000 A 
ATOM     11  C   UNL     1       0.475  10.601  20.407  0.00  0.00    +0.000 A 
ATOM     12  C   UNL     1       0.991  10.924  19.037  0.00  0.00    +0.000 C 
ATOM     13  C   UNL     1       1.445   9.532  18.570  0.00  0.00    +0.000 C 
BRANCH  13  14
ATOM     14  O   UNL     1       0.300   8.880  17.983  0.00  0.00    +0.000 OA
ATOM     15  H   UNL     1       0.655   8.227  17.355  0.00  0.00    +0.000 HD
ENDBRANCH  13  14
ENDBRANCH   3   5
BRANCH   1  21
ATOM     16  C   UNL     1       3.425   4.048  19.244  0.00  0.00    +0.000 A 
ATOM     17  C   UNL     1       3.038   2.707  19.467  0.00  0.00    +0.000 A 
ATOM     18  C   UNL     1       1.789   2.377  19.990  0.00  0.00    +0.000 A 
ATOM     19  C   UNL     1       0.899   3.383  20.333  0.00  0.00    +0.000 A 
ATOM     20  C   UNL     1       1.256   4.713  20.128  0.00  0.00    +0.000 A 
ATOM     21  C   UNL     1       2.499   5.059  19.556  0.00  0.00    +0.000 A 
BRANCH  16  26
ATOM     22  C   UNL     1       6.830   4.570  15.808  0.00  0.00    +0.000 C 
ATOM     23  C   UNL     1       6.242   4.477  17.156  0.00  0.00    +0.000 A 
ATOM     24  N   UNL     1       6.846   4.622  18.314  0.00  0.00    +0.000 NA
ATOM     25  N   UNL     1       5.882   4.463  19.275  0.00  0.00    +0.000 NA
ATOM     26  C   UNL     1       4.747   4.223  18.647  0.00  0.00    +0.000 A 
ATOM     27  O   UNL     1       4.895   4.217  17.281  0.00  0.00    +0.000 OA
ENDBRANCH  16  26
ENDBRANCH   1  21
TORSDOF 4
ENDMDL
MODEL 6
REMARK VINA RESULT:      -7.8      2.703      4.406
REMARK  Name = 
REMARK  5 active torsions:
REMARK  status: ('A' for Active; 'I' for Inactive)
REMARK    1  A    between atoms: C_1  and  C_2
REMARK    2  A    between atoms: C_5  and  C_6
REMARK    3  A    between atoms: C_11  and  C_12
REMARK    4  A    between atoms: N_14  and  C_15
REMARK    5  A    between atoms: C_23  and  O_24
REMARK                            x       y       z     vdW  Elec       q    Type
REMARK                         _______ _______ _______ _____ _____    ______ ____
ROOT
ATOM      1  C   UNL     1       2.780   7.010  18.155  0.00  0.00    +0.000 C 
ATOM      2  O   UNL     1       3.584   7.613  17.454  0.00  0.00    +0.000 OA
ATOM      3  N   UNL     1       1.932   7.640  19.031  0.00  0.00    +0.000 N 
ATOM      4  H   UNL     1       1.498   7.076  19.746  0.00  0.00    +0.000 HD
ENDROOT
BRANCH   3   5
ATOM      5  C   UNL     1       2.025   9.063  19.307  0.00  0.00    +0.000 C 
ATOM      6  C   UNL     1       1.196   9.407  20.523  0.00  0.00    +0.000 A 
ATOM      7  C   UNL     1       1.059   8.697  21.708  0.00  0.00    +0.000 A 
ATOM      8  C   UNL     1       0.110   9.129  22.633  0.00  0.00    +0.000 A 
ATOM      9  C   UNL     1      -0.658  10.276  22.385  0.00  0.00    +0.000 A 
ATOM     10  C   UNL     1      -0.461  11.030  21.227  0.00  0.00    +0.000 A 
ATOM     11  C   UNL     1       0.471  10.587  20.305  0.00  0.00    +0.000 A 
ATOM     12  C   UNL     1       0.846  11.213  18.995  0.00  0.00    +0.000 C 
ATOM     13  C   UNL     1       1.357   9.982  18.230  0.00  0.00    +0.000 C 
BRANCH  13  14
ATOM     14  O   UNL     1       0.216   9.360  17.604  0.00  0.00    +0.000 OA
ATOM     15  H   UNL     1       0.432   9.295  16.657  0.00  0.00    +0.000 HD
ENDBRANCH  13  14
ENDBRANCH   3   5
BRANCH   1  21
ATOM     16  C   UNL     1       3.915   4.702  18.399  0.00  0.00    +0.000 A 
ATOM     17  C   UNL     1       3.762   3.309  18.210  0.00  0.00    +0.000 A 
ATOM     18  C   UNL     1       2.542   2.744  17.843  0.00  0.00    +0.000 A 
ATOM     19  C   UNL     1       1.430   3.554  17.682  0.00  0.00    +0.000 A 
ATOM     20  C   UNL     1       1.550   4.930  17.865  0.00  0.00    +0.000 A 
ATOM     21  C   UNL     1       2.791   5.519  18.191  0.00  0.00    +0.000 A 
BRANCH  16  26
ATOM     22  C   UNL     1       8.077   7.210  18.151  0.00  0.00    +0.000 C 
ATOM     23  C   UNL     1       7.083   6.245  18.653  0.00  0.00    +0.000 A 
ATOM     24  N   UNL     1       7.160   5.487  19.724  0.00  0.00    +0.000 NA
ATOM     25  N   UNL     1       5.988   4.778  19.780  0.00  0.00    +0.000 NA
ATOM     26  C   UNL     1       5.268   5.139  18.734  0.00  0.00    +0.000 A 
ATOM     27  O   UNL     1       5.903   6.081  17.962  0.00  0.00    +0.000 OA
ENDBRANCH  16  26
ENDBRANCH   1  21
TORSDOF 4
ENDMDL
MODEL 7
REMARK VINA RESULT:      -7.8      2.634      4.471
REMARK  Name = 
REMARK  5 active torsions:
REMARK  status: ('A' for Active; 'I' for Inactive)
REMARK    1  A    between atoms: C_1  and  C_2
REMARK    2  A    between atoms: C_5  and  C_6
REMARK    3  A    between atoms: C_11  and  C_12
REMARK    4  A    between atoms: N_14  and  C_15
REMARK    5  A    between atoms: C_23  and  O_24
REMARK                            x       y       z     vdW  Elec       q    Type
REMARK                         _______ _______ _______ _____ _____    ______ ____
ROOT
ATOM      1  C   UNL     1       2.646   7.459  17.922  0.00  0.00    +0.000 C 
ATOM      2  O   UNL     1       3.326   8.169  17.191  0.00  0.00    +0.000 OA
ATOM      3  N   UNL     1       1.840   7.961  18.912  0.00  0.00    +0.000 N 
ATOM      4  H   UNL     1       1.525   7.322  19.626  0.00  0.00    +0.000 HD
ENDROOT
BRANCH   3   5
ATOM      5  C   UNL     1       1.844   9.369  19.272  0.00  0.00    +0.000 C 
ATOM      6  C   UNL     1       1.076   9.575  20.557  0.00  0.00    +0.000 A 
ATOM      7  C   UNL     1       1.075   8.788  21.701  0.00  0.00    +0.000 A 
ATOM      8  C   UNL     1       0.162   9.088  22.710  0.00  0.00    +0.000 A 
ATOM      9  C   UNL     1      -0.706  10.184  22.585  0.00  0.00    +0.000 A 
ATOM     10  C   UNL     1      -0.645  11.018  21.467  0.00  0.00    +0.000 A 
ATOM     11  C   UNL     1       0.252  10.705  20.462  0.00  0.00    +0.000 A 
ATOM     12  C   UNL     1       0.488  11.434  19.173  0.00  0.00    +0.000 C 
ATOM     13  C   UNL     1       1.038  10.294  18.300  0.00  0.00    +0.000 C 
BRANCH  13  14
ATOM     14  O   UNL     1      -0.094   9.621  17.709  0.00  0.00    +0.000 OA
ATOM     15  H   UNL     1      -0.046   9.804  16.754  0.00  0.00    +0.000 HD
ENDBRANCH  13  14
ENDBRANCH   3   5
BRANCH   1  21
ATOM     16  C   UNL     1       3.936   5.261  17.497  0.00  0.00    +0.000 A 
ATOM     17  C   UNL     1       3.817   3.864  17.311  0.00  0.00    +0.000 A 
ATOM     18  C   UNL     1       2.606   3.198  17.488  0.00  0.00    +0.000 A 
ATOM     19  C   UNL     1       1.482   3.905  17.886  0.00  0.00    +0.000 A 
ATOM     20  C   UNL     1       1.572   5.281  18.080  0.00  0.00    +0.000 A 
ATOM     21  C   UNL     1       2.781   5.976  17.859  0.00  0.00    +0.000 A 
BRANCH  16  26
ATOM     22  C   UNL     1       8.203   7.454  18.309  0.00  0.00    +0.000 C 
ATOM     23  C   UNL     1       7.139   6.748  17.572  0.00  0.00    +0.000 A 
ATOM     24  N   UNL     1       7.162   6.322  16.329  0.00  0.00    +0.000 NA
ATOM     25  N   UNL     1       5.953   5.715  16.107  0.00  0.00    +0.000 NA
ATOM     26  C   UNL     1       5.261   5.814  17.225  0.00  0.00    +0.000 A 
ATOM     27  O   UNL     1       5.955   6.465  18.215  0.00  0.00    +0.000 OA
ENDBRANCH  16  26
ENDBRANCH   1  21
TORSDOF 4
ENDMDL
MODEL 8
REMARK VINA RESULT:      -7.7      1.859      2.779
REMARK  Name = 
REMARK  5 active torsions:
REMARK  status: ('A' for Active; 'I' for Inactive)
REMARK    1  A    between atoms: C_1  and  C_2
REMARK    2  A    between atoms: C_5  and  C_6
REMARK    3  A    between atoms: C_11  and  C_12
REMARK    4  A    between atoms: N_14  and  C_15
REMARK    5  A    between atoms: C_23  and  O_24
REMARK                            x       y       z     vdW  Elec       q    Type
REMARK                         _______ _______ _______ _____ _____    ______ ____
ROOT
ATOM      1  C   UNL     1       4.727   4.127  16.933  0.00  0.00    +0.000 C 
ATOM      2  O   UNL     1       3.535   4.368  16.782  0.00  0.00    +0.000 OA
ATOM      3  N   UNL     1       5.284   3.848  18.155  0.00  0.00    +0.000 N 
ATOM      4  H   UNL     1       6.287   3.920  18.238  0.00  0.00    +0.000 HD
ENDROOT
BRANCH   3   5
ATOM      5  C   UNL     1       4.531   3.963  19.392  0.00  0.00    +0.000 C 
ATOM      6  C   UNL     1       3.206   3.248  19.257  0.00  0.00    +0.000 A 
ATOM      7  C   UNL     1       2.937   2.032  18.645  0.00  0.00    +0.000 A 
ATOM      8  C   UNL     1       1.606   1.642  18.502  0.00  0.00    +0.000 A 
ATOM      9  C   UNL     1       0.570   2.445  19.003  0.00  0.00    +0.000 A 
ATOM     10  C   UNL     1       0.851   3.628  19.688  0.00  0.00    +0.000 A 
ATOM     11  C   UNL     1       2.173   4.018  19.811  0.00  0.00    +0.000 A 
ATOM     12  C   UNL     1       2.718   5.242  20.485  0.00  0.00    +0.000 C 
ATOM     13  C   UNL     1       4.045   5.413  19.728  0.00  0.00    +0.000 C 
BRANCH  13  14
ATOM     14  O   UNL     1       3.767   6.191  18.544  0.00  0.00    +0.000 OA
ATOM     15  H   UNL     1       3.183   6.915  18.830  0.00  0.00    +0.000 HD
ENDBRANCH  13  14
ENDBRANCH   3   5
BRANCH   1  21
ATOM     16  C   UNL     1       6.787   5.126  15.736  0.00  0.00    +0.000 A 
ATOM     17  C   UNL     1       7.451   5.269  14.495  0.00  0.00    +0.000 A 
ATOM     18  C   UNL     1       7.035   4.587  13.354  0.00  0.00    +0.000 A 
ATOM     19  C   UNL     1       5.959   3.717  13.425  0.00  0.00    +0.000 A 
ATOM     20  C   UNL     1       5.288   3.554  14.635  0.00  0.00    +0.000 A 
ATOM     21  C   UNL     1       5.670   4.275  15.787  0.00  0.00    +0.000 A 
BRANCH  16  26
ATOM     22  C   UNL     1       8.237   9.095  18.148  0.00  0.00    +0.000 C 
ATOM     23  C   UNL     1       7.930   7.676  17.897  0.00  0.00    +0.000 A 
ATOM     24  N   UNL     1       8.003   6.671  18.741  0.00  0.00    +0.000 NA
ATOM     25  N   UNL     1       7.603   5.557  18.050  0.00  0.00    +0.000 NA
ATOM     26  C   UNL     1       7.316   5.946  16.823  0.00  0.00    +0.000 A 
ATOM     27  O   UNL     1       7.500   7.296  16.645  0.00  0.00    +0.000 OA
ENDBRANCH  16  26
ENDBRANCH   1  21
TORSDOF 4
ENDMDL
MODEL 9
REMARK VINA RESULT:      -7.6      3.008      4.668
REMARK  Name = 
REMARK  5 active torsions:
REMARK  status: ('A' for Active; 'I' for Inactive)
REMARK    1  A    between atoms: C_1  and  C_2
REMARK    2  A    between atoms: C_5  and  C_6
REMARK    3  A    between atoms: C_11  and  C_12
REMARK    4  A    between atoms: N_14  and  C_15
REMARK    5  A    between atoms: C_23  and  O_24
REMARK                            x       y       z     vdW  Elec       q    Type
REMARK                         _______ _______ _______ _____ _____    ______ ____
ROOT
ATOM      1  C   UNL     1       2.773   6.472  18.413  0.00  0.00    +0.000 C 
ATOM      2  O   UNL     1       1.879   6.057  17.687  0.00  0.00    +0.000 OA
ATOM      3  N   UNL     1       2.561   7.393  19.409  0.00  0.00    +0.000 N 
ATOM      4  H   UNL     1       3.367   7.873  19.779  0.00  0.00    +0.000 HD
ENDROOT
BRANCH   3   5
ATOM      5  C   UNL     1       1.284   8.063  19.582  0.00  0.00    +0.000 C 
ATOM      6  C   UNL     1       1.394   9.505  19.145  0.00  0.00    +0.000 A 
ATOM      7  C   UNL     1       2.064  10.030  18.049  0.00  0.00    +0.000 A 
ATOM      8  C   UNL     1       2.163  11.415  17.932  0.00  0.00    +0.000 A 
ATOM      9  C   UNL     1       1.563  12.255  18.883  0.00  0.00    +0.000 A 
ATOM     10  C   UNL     1       0.824  11.723  19.940  0.00  0.00    +0.000 A 
ATOM     11  C   UNL     1       0.744  10.347  20.059  0.00  0.00    +0.000 A 
ATOM     12  C   UNL     1       0.027   9.549  21.107  0.00  0.00    +0.000 C 
ATOM     13  C   UNL     1       0.838   8.244  21.072  0.00  0.00    +0.000 C 
BRANCH  13  14
ATOM     14  O   UNL     1       1.957   8.409  21.967  0.00  0.00    +0.000 OA
ATOM     15  H   UNL     1       1.637   8.968  22.697  0.00  0.00    +0.000 HD
ENDBRANCH  13  14
ENDBRANCH   3   5
BRANCH   1  21
ATOM     16  C   UNL     1       4.879   5.005  18.706  0.00  0.00    +0.000 A 
ATOM     17  C   UNL     1       6.272   4.918  18.479  0.00  0.00    +0.000 A 
ATOM     18  C   UNL     1       6.955   5.863  17.716  0.00  0.00    +0.000 A 
ATOM     19  C   UNL     1       6.260   6.910  17.133  0.00  0.00    +0.000 A 
ATOM     20  C   UNL     1       4.887   7.018  17.336  0.00  0.00    +0.000 A 
ATOM     21  C   UNL     1       4.190   6.094  18.145  0.00  0.00    +0.000 A 
BRANCH  16  26
ATOM     22  C   UNL     1       1.717   2.709  21.605  0.00  0.00    +0.000 C 
ATOM     23  C   UNL     1       2.940   2.938  20.814  0.00  0.00    +0.000 A 
ATOM     24  N   UNL     1       3.936   2.107  20.606  0.00  0.00    +0.000 NA
ATOM     25  N   UNL     1       4.826   2.766  19.798  0.00  0.00    +0.000 NA
ATOM     26  C   UNL     1       4.323   3.963  19.566  0.00  0.00    +0.000 A 
ATOM     27  O   UNL     1       3.111   4.150  20.184  0.00  0.00    +0.000 OA
ENDBRANCH  16  26
ENDBRANCH   1  21
TORSDOF 4
ENDMDL
