MODEL 1
REMARK VINA RESULT:      -8.4      0.000      0.000
REMARK  Name = 
REMARK  5 active torsions:
REMARK  status: ('A' for Active; 'I' for Inactive)
REMARK    1  A    between atoms: C_2  and  C_16
REMARK    2  A    between atoms: N_3  and  C_4
REMARK    3  A    between atoms: C_7  and  C_8
REMARK    4  A    between atoms: C_10  and  C_11
REMARK    5  A    between atoms: C_11  and  O_13
REMARK                            x       y       z     vdW  Elec       q    Type
REMARK                         _______ _______ _______ _____ _____    ______ ____
ROOT
ATOM      1  O   UNL     1       2.157   8.804  17.413  0.00  0.00    +0.000 OA
ATOM      2  C   UNL     1       2.243   8.205  18.480  0.00  0.00    +0.000 C 
ATOM      3  N   UNL     1       2.912   7.015  18.703  0.00  0.00    +0.000 N 
ATOM      4  H   UNL     1       2.729   6.543  19.583  0.00  0.00    +0.000 HD
ENDROOT
BRANCH   2   5
ATOM      5  C   UNL     1       1.513   8.760  19.653  0.00  0.00    +0.000 A 
ATOM      6  C   UNL     1       1.527   8.028  20.856  0.00  0.00    +0.000 A 
ATOM      7  C   UNL     1       0.814   8.476  21.970  0.00  0.00    +0.000 A 
ATOM      8  C   UNL     1       0.102   9.660  21.862  0.00  0.00    +0.000 A 
ATOM      9  C   UNL     1       0.104  10.398  20.676  0.00  0.00    +0.000 A 
ATOM     10  C   UNL     1       0.785   9.952  19.554  0.00  0.00    +0.000 A 
ATOM     11  C   UNL     1      -0.745  11.622  20.792  0.00  0.00    +0.000 C 
ATOM     12  C   UNL     1      -1.061  11.667  22.294  0.00  0.00    +0.000 C 
ATOM     13  C   UNL     1      -0.808  10.270  22.879  0.00  0.00    +0.000 C 
ENDBRANCH   2   5
BRANCH   3  14
ATOM     14  C   UNL     1       3.659   6.288  17.753  0.00  0.00    +0.000 A 
ATOM     15  C   UNL     1       4.602   6.870  16.908  0.00  0.00    +0.000 A 
ATOM     16  C   UNL     1       5.277   6.103  15.947  0.00  0.00    +0.000 A 
ATOM     17  C   UNL     1       5.038   4.730  15.809  0.00  0.00    +0.000 A 
ATOM     18  C   UNL     1       4.098   4.156  16.684  0.00  0.00    +0.000 A 
ATOM     19  C   UNL     1       3.430   4.916  17.652  0.00  0.00    +0.000 A 
BRANCH  17  20
ATOM     20  C   UNL     1       5.730   3.885  14.759  0.00  0.00    +0.000 C 
ATOM     21  C   UNL     1       6.934   4.493  14.075  0.00  0.00    +0.000 C 
ATOM     22  C   UNL     1       5.681   4.230  13.278  0.00  0.00    +0.000 C 
BRANCH  22  23
ATOM     23  C   UNL     1       5.755   3.183  12.225  0.00  0.00    +0.000 C 
ATOM     24  O   UNL     1       4.770   2.746  11.653  0.00  0.00    +0.000 OA
BRANCH  23  25
ATOM     25  O   UNL     1       7.006   2.713  12.015  0.00  0.00    +0.000 OA
ATOM     26  H   UNL     1       7.241   1.958  12.585  0.00  0.00    +0.000 HD
ENDBRANCH  23  25
ENDBRANCH  22  23
ENDBRANCH  17  20
ENDBRANCH   3  14
TORSDOF 5
ENDMDL
MODEL 2
REMARK VINA RESULT:      -8.1      0.217      1.188
REMARK  Name = 
REMARK  5 active torsions:
REMARK  status: ('A' for Active; 'I' for Inactive)
REMARK    1  A    between atoms: C_2  and  C_16
REMARK    2  A    between atoms: N_3  and  C_4
REMARK    3  A    between atoms: C_7  and  C_8
REMARK    4  A    between atoms: C_10  and  C_11
REMARK    5  A    between atoms: C_11  and  O_13
REMARK                            x       y       z     vdW  Elec       q    Type
REMARK                         _______ _______ _______ _____ _____    ______ ____
ROOT
ATOM      1  O   UNL     1       2.123   8.793  17.427  0.00  0.00    +0.000 OA
ATOM      2  C   UNL     1       2.187   8.191  18.494  0.00  0.00    +0.000 C 
ATOM      3  N   UNL     1       2.800   6.970  18.714  0.00  0.00    +0.000 N 
ATOM      4  H   UNL     1       2.600   6.508  19.595  0.00  0.00    +0.000 HD
ENDROOT
BRANCH   2   5
ATOM      5  C   UNL     1       1.493   8.781  19.672  0.00  0.00    +0.000 A 
ATOM      6  C   UNL     1       1.544   8.084  20.895  0.00  0.00    +0.000 A 
ATOM      7  C   UNL     1       0.864   8.565  22.017  0.00  0.00    +0.000 A 
ATOM      8  C   UNL     1       0.150   9.746  21.896  0.00  0.00    +0.000 A 
ATOM      9  C   UNL     1       0.115  10.449  20.689  0.00  0.00    +0.000 A 
ATOM     10  C   UNL     1       0.762   9.970  19.560  0.00  0.00    +0.000 A 
ATOM     11  C   UNL     1      -0.730  11.677  20.794  0.00  0.00    +0.000 C 
ATOM     12  C   UNL     1      -1.001  11.766  22.304  0.00  0.00    +0.000 C 
ATOM     13  C   UNL     1      -0.729  10.386  22.921  0.00  0.00    +0.000 C 
ENDBRANCH   2   5
BRANCH   3  14
ATOM     14  C   UNL     1       3.505   6.207  17.758  0.00  0.00    +0.000 A 
ATOM     15  C   UNL     1       3.321   4.837  17.582  0.00  0.00    +0.000 A 
ATOM     16  C   UNL     1       4.090   4.123  16.651  0.00  0.00    +0.000 A 
ATOM     17  C   UNL     1       5.055   4.759  15.860  0.00  0.00    +0.000 A 
ATOM     18  C   UNL     1       5.212   6.145  16.038  0.00  0.00    +0.000 A 
ATOM     19  C   UNL     1       4.440   6.864  16.959  0.00  0.00    +0.000 A 
BRANCH  17  20
ATOM     20  C   UNL     1       5.919   4.005  14.869  0.00  0.00    +0.000 C 
ATOM     21  C   UNL     1       7.071   4.764  14.249  0.00  0.00    +0.000 C 
ATOM     22  C   UNL     1       5.917   4.326  13.383  0.00  0.00    +0.000 C 
BRANCH  22  23
ATOM     23  C   UNL     1       6.197   3.289  12.355  0.00  0.00    +0.000 C 
ATOM     24  O   UNL     1       7.308   3.099  11.888  0.00  0.00    +0.000 OA
BRANCH  23  25
ATOM     25  O   UNL     1       5.092   2.630  11.935  0.00  0.00    +0.000 OA
ATOM     26  H   UNL     1       4.373   2.615  12.592  0.00  0.00    +0.000 HD
ENDBRANCH  23  25
ENDBRANCH  22  23
ENDBRANCH  17  20
ENDBRANCH   3  14
TORSDOF 5
ENDMDL
MODEL 3
REMARK VINA RESULT:      -7.9      2.761      3.923
REMARK  Name = 
REMARK  5 active torsions:
REMARK  status: ('A' for Active; 'I' for Inactive)
REMARK    1  A    between atoms: C_2  and  C_16
REMARK    2  A    between atoms: N_3  and  C_4
REMARK    3  A    between atoms: C_7  and  C_8
REMARK    4  A    between atoms: C_10  and  C_11
REMARK    5  A    between atoms: C_11  and  O_13
REMARK                            x       y       z     vdW  Elec       q    Type
REMARK                         _______ _______ _______ _____ _____    ______ ____
ROOT
ATOM      1  O   UNL     1       1.594   9.009  22.190  0.00  0.00    +0.000 OA
ATOM      2  C   UNL     1       0.855   9.385  21.286  0.00  0.00    +0.000 C 
ATOM      3  N   UNL     1       0.921   9.005  19.958  0.00  0.00    +0.000 N 
ATOM      4  H   UNL     1       0.375   9.547  19.296  0.00  0.00    +0.000 HD
ENDROOT
BRANCH   2   5
ATOM      5  C   UNL     1      -0.188  10.397  21.611  0.00  0.00    +0.000 A 
ATOM      6  C   UNL     1      -0.684  10.444  22.929  0.00  0.00    +0.000 A 
ATOM      7  C   UNL     1      -1.701  11.337  23.274  0.00  0.00    +0.000 A 
ATOM      8  C   UNL     1      -2.200  12.177  22.292  0.00  0.00    +0.000 A 
ATOM      9  C   UNL     1      -1.695  12.145  20.990  0.00  0.00    +0.000 A 
ATOM     10  C   UNL     1      -0.705  11.247  20.626  0.00  0.00    +0.000 A 
ATOM     11  C   UNL     1      -2.398  13.124  20.106  0.00  0.00    +0.000 C 
ATOM     12  C   UNL     1      -3.228  13.940  21.108  0.00  0.00    +0.000 C 
ATOM     13  C   UNL     1      -3.348  13.127  22.405  0.00  0.00    +0.000 C 
ENDBRANCH   2   5
BRANCH   3  14
ATOM     14  C   UNL     1       1.828   8.078  19.400  0.00  0.00    +0.000 A 
ATOM     15  C   UNL     1       2.167   6.872  20.012  0.00  0.00    +0.000 A 
ATOM     16  C   UNL     1       3.115   6.015  19.433  0.00  0.00    +0.000 A 
ATOM     17  C   UNL     1       3.743   6.331  18.221  0.00  0.00    +0.000 A 
ATOM     18  C   UNL     1       3.372   7.542  17.610  0.00  0.00    +0.000 A 
ATOM     19  C   UNL     1       2.419   8.396  18.178  0.00  0.00    +0.000 A 
BRANCH  17  20
ATOM     20  C   UNL     1       4.791   5.438  17.592  0.00  0.00    +0.000 C 
ATOM     21  C   UNL     1       5.446   4.411  18.489  0.00  0.00    +0.000 C 
ATOM     22  C   UNL     1       6.268   5.549  17.940  0.00  0.00    +0.000 C 
BRANCH  22  23
ATOM     23  C   UNL     1       7.334   5.206  16.962  0.00  0.00    +0.000 C 
ATOM     24  O   UNL     1       7.495   5.810  15.915  0.00  0.00    +0.000 OA
BRANCH  23  25
ATOM     25  O   UNL     1       8.057   4.117  17.309  0.00  0.00    +0.000 OA
ATOM     26  H   UNL     1       8.417   4.158  18.214  0.00  0.00    +0.000 HD
ENDBRANCH  23  25
ENDBRANCH  22  23
ENDBRANCH  17  20
ENDBRANCH   3  14
TORSDOF 5
ENDMDL
MODEL 4
REMARK VINA RESULT:      -7.7      6.626      8.340
REMARK  Name = 
REMARK  5 active torsions:
REMARK  status: ('A' for Active; 'I' for Inactive)
REMARK    1  A    between atoms: C_2  and  C_16
REMARK    2  A    between atoms: N_3  and  C_4
REMARK    3  A    between atoms: C_7  and  C_8
REMARK    4  A    between atoms: C_10  and  C_11
REMARK    5  A    between atoms: C_11  and  O_13
REMARK                            x       y       z     vdW  Elec       q    Type
REMARK                         _______ _______ _______ _____ _____    ______ ____
ROOT
ATOM      1  O   UNL     1       9.106  10.021  19.906  0.00  0.00    +0.000 OA
ATOM      2  C   UNL     1       9.026  10.293  18.712  0.00  0.00    +0.000 C 
ATOM      3  N   UNL     1       8.478   9.497  17.722  0.00  0.00    +0.000 N 
ATOM      4  H   UNL     1       8.661   9.768  16.761  0.00  0.00    +0.000 HD
ENDROOT
BRANCH   2   5
ATOM      5  C   UNL     1       9.623  11.575  18.246  0.00  0.00    +0.000 A 
ATOM      6  C   UNL     1      10.908  11.543  17.670  0.00  0.00    +0.000 A 
ATOM      7  C   UNL     1      11.537  12.723  17.267  0.00  0.00    +0.000 A 
ATOM      8  C   UNL     1      10.862  13.920  17.441  0.00  0.00    +0.000 A 
ATOM      9  C   UNL     1       9.579  13.952  17.993  0.00  0.00    +0.000 A 
ATOM     10  C   UNL     1       8.953  12.792  18.422  0.00  0.00    +0.000 A 
ATOM     11  C   UNL     1       9.062  15.350  18.098  0.00  0.00    +0.000 C 
ATOM     12  C   UNL     1      10.101  16.150  17.297  0.00  0.00    +0.000 C 
ATOM     13  C   UNL     1      11.376  15.300  17.184  0.00  0.00    +0.000 C 
ENDBRANCH   2   5
BRANCH   3  14
ATOM     14  C   UNL     1       7.869   8.238  17.907  0.00  0.00    +0.000 A 
ATOM     15  C   UNL     1       8.361   7.267  18.778  0.00  0.00    +0.000 A 
ATOM     16  C   UNL     1       7.740   6.013  18.880  0.00  0.00    +0.000 A 
ATOM     17  C   UNL     1       6.604   5.696  18.124  0.00  0.00    +0.000 A 
ATOM     18  C   UNL     1       6.111   6.695  17.267  0.00  0.00    +0.000 A 
ATOM     19  C   UNL     1       6.720   7.953  17.169  0.00  0.00    +0.000 A 
BRANCH  17  20
ATOM     20  C   UNL     1       5.934   4.339  18.193  0.00  0.00    +0.000 C 
ATOM     21  C   UNL     1       4.684   4.149  17.364  0.00  0.00    +0.000 C 
ATOM     22  C   UNL     1       4.587   4.132  18.868  0.00  0.00    +0.000 C 
BRANCH  22  23
ATOM     23  C   UNL     1       4.219   2.843  19.510  0.00  0.00    +0.000 C 
ATOM     24  O   UNL     1       5.001   2.184  20.175  0.00  0.00    +0.000 OA
BRANCH  23  25
ATOM     25  O   UNL     1       2.961   2.435  19.225  0.00  0.00    +0.000 OA
ATOM     26  H   UNL     1       2.326   2.591  19.947  0.00  0.00    +0.000 HD
ENDBRANCH  23  25
ENDBRANCH  22  23
ENDBRANCH  17  20
ENDBRANCH   3  14
TORSDOF 5
ENDMDL
MODEL 5
REMARK VINA RESULT:      -7.7      0.660      1.462
REMARK  Name = 
REMARK  5 active torsions:
REMARK  status: ('A' for Active; 'I' for Inactive)
REMARK    1  A    between atoms: C_2  and  C_16
REMARK    2  A    between atoms: N_3  and  C_4
REMARK    3  A    between atoms: C_7  and  C_8
REMARK    4  A    between atoms: C_10  and  C_11
REMARK    5  A    between atoms: C_11  and  O_13
REMARK                            x       y       z     vdW  Elec       q    Type
REMARK                         _______ _______ _______ _____ _____    ______ ____
ROOT
ATOM      1  O   UNL     1       1.908   9.183  17.101  0.00  0.00    +0.000 OA
ATOM      2  C   UNL     1       1.939   8.708  18.232  0.00  0.00    +0.000 C 
ATOM      3  N   UNL     1       2.602   7.559  18.623  0.00  0.00    +0.000 N 
ATOM      4  H   UNL     1       2.375   7.186  19.539  0.00  0.00    +0.000 HD
ENDROOT
BRANCH   2   5
ATOM      5  C   UNL     1       1.145   9.383  19.294  0.00  0.00    +0.000 A 
ATOM      6  C   UNL     1       0.495  10.591  18.977  0.00  0.00    +0.000 A 
ATOM      7  C   UNL     1      -0.218  11.293  19.952  0.00  0.00    +0.000 A 
ATOM      8  C   UNL     1      -0.276  10.765  21.231  0.00  0.00    +0.000 A 
ATOM      9  C   UNL     1       0.351   9.556  21.543  0.00  0.00    +0.000 A 
ATOM     10  C   UNL     1       1.084   8.862  20.593  0.00  0.00    +0.000 A 
ATOM     11  C   UNL     1       0.166   9.199  22.982  0.00  0.00    +0.000 C 
ATOM     12  C   UNL     1      -0.875  10.227  23.450  0.00  0.00    +0.000 C 
ATOM     13  C   UNL     1      -0.885  11.389  22.445  0.00  0.00    +0.000 C 
ENDBRANCH   2   5
BRANCH   3  14
ATOM     14  C   UNL     1       3.404   6.738  17.801  0.00  0.00    +0.000 A 
ATOM     15  C   UNL     1       4.493   7.212  17.071  0.00  0.00    +0.000 A 
ATOM     16  C   UNL     1       5.221   6.356  16.230  0.00  0.00    +0.000 A 
ATOM     17  C   UNL     1       4.890   5.001  16.102  0.00  0.00    +0.000 A 
ATOM     18  C   UNL     1       3.801   4.538  16.862  0.00  0.00    +0.000 A 
ATOM     19  C   UNL     1       3.077   5.385  17.711  0.00  0.00    +0.000 A 
BRANCH  17  20
ATOM     20  C   UNL     1       5.640   4.064  15.178  0.00  0.00    +0.000 C 
ATOM     21  C   UNL     1       7.016   4.501  14.729  0.00  0.00    +0.000 C 
ATOM     22  C   UNL     1       5.902   4.402  13.718  0.00  0.00    +0.000 C 
BRANCH  22  23
ATOM     23  C   UNL     1       6.023   3.347  12.677  0.00  0.00    +0.000 C 
ATOM     24  O   UNL     1       5.058   2.837  12.133  0.00  0.00    +0.000 OA
BRANCH  23  25
ATOM     25  O   UNL     1       7.297   2.957  12.446  0.00  0.00    +0.000 OA
ATOM     26  H   UNL     1       7.885   3.063  13.216  0.00  0.00    +0.000 HD
ENDBRANCH  23  25
ENDBRANCH  22  23
ENDBRANCH  17  20
ENDBRANCH   3  14
TORSDOF 5
ENDMDL
MODEL 6
REMARK VINA RESULT:      -7.7      3.445     10.381
REMARK  Name = 
REMARK  5 active torsions:
REMARK  status: ('A' for Active; 'I' for Inactive)
REMARK    1  A    between atoms: C_2  and  C_16
REMARK    2  A    between atoms: N_3  and  C_4
REMARK    3  A    between atoms: C_7  and  C_8
REMARK    4  A    between atoms: C_10  and  C_11
REMARK    5  A    between atoms: C_11  and  O_13
REMARK                            x       y       z     vdW  Elec       q    Type
REMARK                         _______ _______ _______ _____ _____    ______ ____
ROOT
ATOM      1  O   UNL     1       1.524   5.981  20.829  0.00  0.00    +0.000 OA
ATOM      2  C   UNL     1       2.031   6.663  19.945  0.00  0.00    +0.000 C 
ATOM      3  N   UNL     1       1.896   8.029  19.780  0.00  0.00    +0.000 N 
ATOM      4  H   UNL     1       2.208   8.419  18.896  0.00  0.00    +0.000 HD
ENDROOT
BRANCH   2   5
ATOM      5  C   UNL     1       2.828   5.966  18.897  0.00  0.00    +0.000 A 
ATOM      6  C   UNL     1       2.785   4.559  18.851  0.00  0.00    +0.000 A 
ATOM      7  C   UNL     1       3.556   3.854  17.923  0.00  0.00    +0.000 A 
ATOM      8  C   UNL     1       4.352   4.573  17.048  0.00  0.00    +0.000 A 
ATOM      9  C   UNL     1       4.380   5.970  17.079  0.00  0.00    +0.000 A 
ATOM     10  C   UNL     1       3.641   6.682  18.010  0.00  0.00    +0.000 A 
ATOM     11  C   UNL     1       5.321   6.522  16.057  0.00  0.00    +0.000 C 
ATOM     12  C   UNL     1       5.674   5.280  15.225  0.00  0.00    +0.000 C 
ATOM     13  C   UNL     1       5.328   4.034  16.053  0.00  0.00    +0.000 C 
ENDBRANCH   2   5
BRANCH   3  14
ATOM     14  C   UNL     1       1.182   8.904  20.625  0.00  0.00    +0.000 A 
ATOM     15  C   UNL     1       1.170   8.791  22.015  0.00  0.00    +0.000 A 
ATOM     16  C   UNL     1       0.399   9.661  22.800  0.00  0.00    +0.000 A 
ATOM     17  C   UNL     1      -0.375  10.675  22.221  0.00  0.00    +0.000 A 
ATOM     18  C   UNL     1      -0.334  10.786  20.820  0.00  0.00    +0.000 A 
ATOM     19  C   UNL     1       0.443   9.928  20.032  0.00  0.00    +0.000 A 
BRANCH  17  20
ATOM     20  C   UNL     1      -1.241  11.607  23.044  0.00  0.00    +0.000 C 
ATOM     21  C   UNL     1      -2.524  12.091  22.408  0.00  0.00    +0.000 C 
ATOM     22  C   UNL     1      -1.418  13.076  22.690  0.00  0.00    +0.000 C 
BRANCH  22  23
ATOM     23  C   UNL     1      -1.677  14.109  23.727  0.00  0.00    +0.000 C 
ATOM     24  O   UNL     1      -0.790  14.637  24.376  0.00  0.00    +0.000 OA
BRANCH  23  25
ATOM     25  O   UNL     1      -2.992  14.352  23.932  0.00  0.00    +0.000 OA
ATOM     26  H   UNL     1      -3.545  13.550  23.918  0.00  0.00    +0.000 HD
ENDBRANCH  23  25
ENDBRANCH  22  23
ENDBRANCH  17  20
ENDBRANCH   3  14
TORSDOF 5
ENDMDL
MODEL 7
REMARK VINA RESULT:      -7.6      3.438     10.339
REMARK  Name = 
REMARK  5 active torsions:
REMARK  status: ('A' for Active; 'I' for Inactive)
REMARK    1  A    between atoms: C_2  and  C_16
REMARK    2  A    between atoms: N_3  and  C_4
REMARK    3  A    between atoms: C_7  and  C_8
REMARK    4  A    between atoms: C_10  and  C_11
REMARK    5  A    between atoms: C_11  and  O_13
REMARK                            x       y       z     vdW  Elec       q    Type
REMARK                         _______ _______ _______ _____ _____    ______ ____
ROOT
ATOM      1  O   UNL     1       1.550   5.987  20.779  0.00  0.00    +0.000 OA
ATOM      2  C   UNL     1       2.082   6.669  19.908  0.00  0.00    +0.000 C 
ATOM      3  N   UNL     1       1.893   8.022  19.694  0.00  0.00    +0.000 N 
ATOM      4  H   UNL     1       2.243   8.402  18.821  0.00  0.00    +0.000 HD
ENDROOT
BRANCH   2   5
ATOM      5  C   UNL     1       2.977   5.984  18.935  0.00  0.00    +0.000 A 
ATOM      6  C   UNL     1       3.257   4.618  19.131  0.00  0.00    +0.000 A 
ATOM      7  C   UNL     1       4.133   3.942  18.279  0.00  0.00    +0.000 A 
ATOM      8  C   UNL     1       4.711   4.646  17.236  0.00  0.00    +0.000 A 
ATOM      9  C   UNL     1       4.419   5.997  17.028  0.00  0.00    +0.000 A 
ATOM     10  C   UNL     1       3.572   6.688  17.880  0.00  0.00    +0.000 A 
ATOM     11  C   UNL     1       5.170   6.546  15.859  0.00  0.00    +0.000 C 
ATOM     12  C   UNL     1       5.767   5.281  15.223  0.00  0.00    +0.000 C 
ATOM     13  C   UNL     1       5.748   4.162  16.275  0.00  0.00    +0.000 C 
ENDBRANCH   2   5
BRANCH   3  14
ATOM     14  C   UNL     1       1.083   8.883  20.465  0.00  0.00    +0.000 A 
ATOM     15  C   UNL     1       0.187   9.796  19.911  0.00  0.00    +0.000 A 
ATOM     16  C   UNL     1      -0.553  10.662  20.730  0.00  0.00    +0.000 A 
ATOM     17  C   UNL     1      -0.428  10.635  22.124  0.00  0.00    +0.000 A 
ATOM     18  C   UNL     1       0.466   9.694  22.665  0.00  0.00    +0.000 A 
ATOM     19  C   UNL     1       1.199   8.819  21.853  0.00  0.00    +0.000 A 
BRANCH  17  20
ATOM     20  C   UNL     1      -1.193  11.581  23.028  0.00  0.00    +0.000 C 
ATOM     21  C   UNL     1      -2.510  12.112  22.507  0.00  0.00    +0.000 C 
ATOM     22  C   UNL     1      -1.353  13.059  22.706  0.00  0.00    +0.000 C 
BRANCH  22  23
ATOM     23  C   UNL     1      -1.492  14.085  23.773  0.00  0.00    +0.000 C 
ATOM     24  O   UNL     1      -0.562  14.773  24.159  0.00  0.00    +0.000 OA
BRANCH  23  25
ATOM     25  O   UNL     1      -2.727  14.129  24.324  0.00  0.00    +0.000 OA
ATOM     26  H   UNL     1      -2.958  14.999  24.697  0.00  0.00    +0.000 HD
ENDBRANCH  23  25
ENDBRANCH  22  23
ENDBRANCH  17  20
ENDBRANCH   3  14
TORSDOF 5
ENDMDL
MODEL 8
REMARK VINA RESULT:      -7.6      3.148     10.432
REMARK  Name = 
REMARK  5 active torsions:
REMARK  status: ('A' for Active; 'I' for Inactive)
REMARK    1  A    between atoms: C_2  and  C_16
REMARK    2  A    between atoms: N_3  and  C_4
REMARK    3  A    between atoms: C_7  and  C_8
REMARK    4  A    between atoms: C_10  and  C_11
REMARK    5  A    between atoms: C_11  and  O_13
REMARK                            x       y       z     vdW  Elec       q    Type
REMARK                         _______ _______ _______ _____ _____    ______ ____
ROOT
ATOM      1  O   UNL     1       2.218   9.316  18.199  0.00  0.00    +0.000 OA
ATOM      2  C   UNL     1       2.152   8.231  18.768  0.00  0.00    +0.000 C 
ATOM      3  N   UNL     1       1.550   7.976  19.987  0.00  0.00    +0.000 N 
ATOM      4  H   UNL     1       1.748   7.080  20.420  0.00  0.00    +0.000 HD
ENDROOT
BRANCH   2   5
ATOM      5  C   UNL     1       2.833   7.068  18.135  0.00  0.00    +0.000 A 
ATOM      6  C   UNL     1       2.301   5.782  18.354  0.00  0.00    +0.000 A 
ATOM      7  C   UNL     1       2.932   4.652  17.828  0.00  0.00    +0.000 A 
ATOM      8  C   UNL     1       4.085   4.831  17.081  0.00  0.00    +0.000 A 
ATOM      9  C   UNL     1       4.603   6.107  16.846  0.00  0.00    +0.000 A 
ATOM     10  C   UNL     1       4.003   7.236  17.383  0.00  0.00    +0.000 A 
ATOM     11  C   UNL     1       5.856   6.049  16.035  0.00  0.00    +0.000 C 
ATOM     12  C   UNL     1       5.896   4.580  15.588  0.00  0.00    +0.000 C 
ATOM     13  C   UNL     1       4.977   3.773  16.517  0.00  0.00    +0.000 C 
ENDBRANCH   2   5
BRANCH   3  14
ATOM     14  C   UNL     1       0.858   8.911  20.786  0.00  0.00    +0.000 A 
ATOM     15  C   UNL     1       0.936   8.939  22.178  0.00  0.00    +0.000 A 
ATOM     16  C   UNL     1       0.184   9.861  22.921  0.00  0.00    +0.000 A 
ATOM     17  C   UNL     1      -0.659  10.789  22.297  0.00  0.00    +0.000 A 
ATOM     18  C   UNL     1      -0.709  10.759  20.892  0.00  0.00    +0.000 A 
ATOM     19  C   UNL     1       0.048   9.848  20.144  0.00  0.00    +0.000 A 
BRANCH  17  20
ATOM     20  C   UNL     1      -1.505  11.773  23.078  0.00  0.00    +0.000 C 
ATOM     21  C   UNL     1      -2.607  12.481  22.322  0.00  0.00    +0.000 C 
ATOM     22  C   UNL     1      -1.433  13.274  22.839  0.00  0.00    +0.000 C 
BRANCH  22  23
ATOM     23  C   UNL     1      -1.702  14.256  23.922  0.00  0.00    +0.000 C 
ATOM     24  O   UNL     1      -2.820  14.476  24.356  0.00  0.00    +0.000 OA
BRANCH  23  25
ATOM     25  O   UNL     1      -0.602  14.932  24.327  0.00  0.00    +0.000 OA
ATOM     26  H   UNL     1       0.114  14.946  23.666  0.00  0.00    +0.000 HD
ENDBRANCH  23  25
ENDBRANCH  22  23
ENDBRANCH  17  20
ENDBRANCH   3  14
TORSDOF 5
ENDMDL
MODEL 9
REMARK VINA RESULT:      -7.6      1.307      2.052
REMARK  Name = 
REMARK  5 active torsions:
REMARK  status: ('A' for Active; 'I' for Inactive)
REMARK    1  A    between atoms: C_2  and  C_16
REMARK    2  A    between atoms: N_3  and  C_4
REMARK    3  A    between atoms: C_7  and  C_8
REMARK    4  A    between atoms: C_10  and  C_11
REMARK    5  A    between atoms: C_11  and  O_13
REMARK                            x       y       z     vdW  Elec       q    Type
REMARK                         _______ _______ _______ _____ _____    ______ ____
ROOT
ATOM      1  O   UNL     1       1.338   9.521  18.111  0.00  0.00    +0.000 OA
ATOM      2  C   UNL     1       1.363   8.984  19.214  0.00  0.00    +0.000 C 
ATOM      3  N   UNL     1       1.977   7.786  19.531  0.00  0.00    +0.000 N 
ATOM      4  H   UNL     1       1.744   7.374  20.429  0.00  0.00    +0.000 HD
ENDROOT
BRANCH   2   5
ATOM      5  C   UNL     1       0.614   9.635  20.324  0.00  0.00    +0.000 A 
ATOM      6  C   UNL     1       0.518   8.955  21.554  0.00  0.00    +0.000 A 
ATOM      7  C   UNL     1      -0.218   9.495  22.610  0.00  0.00    +0.000 A 
ATOM      8  C   UNL     1      -0.842  10.718  22.419  0.00  0.00    +0.000 A 
ATOM      9  C   UNL     1      -0.731  11.403  21.207  0.00  0.00    +0.000 A 
ATOM     10  C   UNL     1      -0.025  10.867  20.141  0.00  0.00    +0.000 A 
ATOM     11  C   UNL     1      -1.499  12.684  21.230  0.00  0.00    +0.000 C 
ATOM     12  C   UNL     1      -1.887  12.813  22.711  0.00  0.00    +0.000 C 
ATOM     13  C   UNL     1      -1.758  11.428  23.362  0.00  0.00    +0.000 C 
ENDBRANCH   2   5
BRANCH   3  14
ATOM     14  C   UNL     1       2.729   6.976  18.654  0.00  0.00    +0.000 A 
ATOM     15  C   UNL     1       2.635   5.585  18.622  0.00  0.00    +0.000 A 
ATOM     16  C   UNL     1       3.447   4.831  17.762  0.00  0.00    +0.000 A 
ATOM     17  C   UNL     1       4.367   5.443  16.901  0.00  0.00    +0.000 A 
ATOM     18  C   UNL     1       4.432   6.847  16.933  0.00  0.00    +0.000 A 
ATOM     19  C   UNL     1       3.616   7.606  17.782  0.00  0.00    +0.000 A 
BRANCH  17  20
ATOM     20  C   UNL     1       5.277   4.649  15.986  0.00  0.00    +0.000 C 
ATOM     21  C   UNL     1       6.666   4.342  16.498  0.00  0.00    +0.000 C 
ATOM     22  C   UNL     1       6.496   5.266  15.319  0.00  0.00    +0.000 C 
BRANCH  22  23
ATOM     23  C   UNL     1       7.000   4.788  14.005  0.00  0.00    +0.000 C 
ATOM     24  O   UNL     1       6.535   3.819  13.428  0.00  0.00    +0.000 OA
BRANCH  23  25
ATOM     25  O   UNL     1       8.067   5.483  13.548  0.00  0.00    +0.000 OA
ATOM     26  H   UNL     1       8.374   6.175  14.160  0.00  0.00    +0.000 HD
ENDBRANCH  23  25
ENDBRANCH  22  23
ENDBRANCH  17  20
ENDBRANCH   3  14
TORSDOF 5
ENDMDL
