MODEL 1
REMARK VINA RESULT:      -9.0      0.000      0.000
REMARK  Name = 
REMARK  3 active torsions:
REMARK  status: ('A' for Active; 'I' for Inactive)
REMARK    1  A    between atoms: C_2  and  C_3
REMARK    2  A    between atoms: C_5  and  C_6
REMARK    3  A    between atoms: C_13  and  C_14
REMARK                            x       y       z     vdW  Elec       q    Type
REMARK                         _______ _______ _______ _____ _____    ______ ____
ROOT
ATOM      1  C   UNL     1       2.522   5.127  18.975  0.00  0.00    +0.000 A 
ATOM      2  N   UNL     1       2.643   6.509  18.860  0.00  0.00    +0.000 NA
ATOM      3  C   UNL     1       1.907   6.998  19.827  0.00  0.00    +0.000 A 
ATOM      4  O   UNL     1       1.361   6.052  20.639  0.00  0.00    +0.000 OA
ATOM      5  C   UNL     1       1.708   4.856  20.061  0.00  0.00    +0.000 A 
ENDROOT
BRANCH   1   7
ATOM      6  O   UNL     1       2.349   3.774  17.061  0.00  0.00    +0.000 OA
ATOM      7  C   UNL     1       3.068   4.195  17.969  0.00  0.00    +0.000 C 
ATOM      8  N   UNL     1       4.453   3.909  18.046  0.00  0.00    +0.000 N 
ATOM      9  C   UNL     1       5.224   3.961  19.296  0.00  0.00    +0.000 C 
ATOM     10  C   UNL     1       6.162   5.158  19.296  0.00  0.00    +0.000 C 
ATOM     11  O   UNL     1       7.098   5.082  18.217  0.00  0.00    +0.000 OA
ATOM     12  C   UNL     1       6.496   4.793  17.015  0.00  0.00    +0.000 A 
ATOM     13  C   UNL     1       7.178   5.254  15.889  0.00  0.00    +0.000 A 
ATOM     14  C   UNL     1       6.668   5.010  14.618  0.00  0.00    +0.000 A 
ATOM     15  C   UNL     1       5.516   4.242  14.470  0.00  0.00    +0.000 A 
ATOM     16  C   UNL     1       4.817   3.800  15.596  0.00  0.00    +0.000 A 
ATOM     17  C   UNL     1       5.261   4.127  16.881  0.00  0.00    +0.000 A 
ENDBRANCH   1   7
BRANCH   3  18
ATOM     18  C   UNL     1       1.535   8.387  20.060  0.00  0.00    +0.000 A 
ATOM     19  C   UNL     1       1.452   9.270  18.972  0.00  0.00    +0.000 A 
ATOM     20  C   UNL     1       1.019  10.584  19.149  0.00  0.00    +0.000 A 
ATOM     21  C   UNL     1       0.667  11.028  20.423  0.00  0.00    +0.000 A 
ATOM     22  C   UNL     1       0.755  10.166  21.516  0.00  0.00    +0.000 A 
ATOM     23  C   UNL     1       1.189   8.851  21.336  0.00  0.00    +0.000 A 
ENDBRANCH   3  18
BRANCH   5  24
ATOM     24  C   UNL     1       1.163   3.528  20.556  0.00  0.00    +0.000 C 
ATOM     25  C   UNL     1       1.943   2.880  21.689  0.00  0.00    +0.000 C 
ATOM     26  C   UNL     1       1.978   2.271  20.333  0.00  0.00    +0.000 C 
ENDBRANCH   5  24
TORSDOF 3
ENDMDL
MODEL 2
REMARK VINA RESULT:      -9.0      1.061      1.261
REMARK  Name = 
REMARK  3 active torsions:
REMARK  status: ('A' for Active; 'I' for Inactive)
REMARK    1  A    between atoms: C_2  and  C_3
REMARK    2  A    between atoms: C_5  and  C_6
REMARK    3  A    between atoms: C_13  and  C_14
REMARK                            x       y       z     vdW  Elec       q    Type
REMARK                         _______ _______ _______ _____ _____    ______ ____
ROOT
ATOM      1  C   UNL     1       3.600   4.846  18.794  0.00  0.00    +0.000 A 
ATOM      2  N   UNL     1       3.404   6.179  18.445  0.00  0.00    +0.000 NA
ATOM      3  C   UNL     1       2.604   6.659  19.365  0.00  0.00    +0.000 A 
ATOM      4  O   UNL     1       2.308   5.775  20.356  0.00  0.00    +0.000 OA
ATOM      5  C   UNL     1       2.899   4.601  19.962  0.00  0.00    +0.000 A 
ENDROOT
BRANCH   1   7
ATOM      6  O   UNL     1       3.691   3.002  17.340  0.00  0.00    +0.000 OA
ATOM      7  C   UNL     1       4.313   3.893  17.921  0.00  0.00    +0.000 C 
ATOM      8  N   UNL     1       5.694   4.124  17.714  0.00  0.00    +0.000 N 
ATOM      9  C   UNL     1       6.558   4.806  18.687  0.00  0.00    +0.000 C 
ATOM     10  C   UNL     1       6.943   6.190  18.184  0.00  0.00    +0.000 C 
ATOM     11  O   UNL     1       7.666   6.108  16.952  0.00  0.00    +0.000 OA
ATOM     12  C   UNL     1       7.055   5.285  16.035  0.00  0.00    +0.000 A 
ATOM     13  C   UNL     1       7.330   5.584  14.701  0.00  0.00    +0.000 A 
ATOM     14  C   UNL     1       6.776   4.811  13.685  0.00  0.00    +0.000 A 
ATOM     15  C   UNL     1       6.007   3.695  14.006  0.00  0.00    +0.000 A 
ATOM     16  C   UNL     1       5.709   3.408  15.340  0.00  0.00    +0.000 A 
ATOM     17  C   UNL     1       6.173   4.237  16.367  0.00  0.00    +0.000 A 
ENDBRANCH   1   7
BRANCH   3  18
ATOM     18  C   UNL     1       1.935   7.954  19.389  0.00  0.00    +0.000 A 
ATOM     19  C   UNL     1       1.864   8.716  18.213  0.00  0.00    +0.000 A 
ATOM     20  C   UNL     1       1.160   9.919  18.182  0.00  0.00    +0.000 A 
ATOM     21  C   UNL     1       0.522  10.374  19.335  0.00  0.00    +0.000 A 
ATOM     22  C   UNL     1       0.594   9.634  20.515  0.00  0.00    +0.000 A 
ATOM     23  C   UNL     1       1.298   8.429  20.544  0.00  0.00    +0.000 A 
ENDBRANCH   3  18
BRANCH   5  24
ATOM     24  C   UNL     1       2.682   3.294  20.704  0.00  0.00    +0.000 C 
ATOM     25  C   UNL     1       1.527   2.440  20.203  0.00  0.00    +0.000 C 
ATOM     26  C   UNL     1       1.420   3.116  21.523  0.00  0.00    +0.000 C 
ENDBRANCH   5  24
TORSDOF 3
ENDMDL
MODEL 3
REMARK VINA RESULT:      -7.9      2.716      7.137
REMARK  Name = 
REMARK  3 active torsions:
REMARK  status: ('A' for Active; 'I' for Inactive)
REMARK    1  A    between atoms: C_2  and  C_3
REMARK    2  A    between atoms: C_5  and  C_6
REMARK    3  A    between atoms: C_13  and  C_14
REMARK                            x       y       z     vdW  Elec       q    Type
REMARK                         _______ _______ _______ _____ _____    ______ ____
ROOT
ATOM      1  C   UNL     1       5.471   4.487  17.724  0.00  0.00    +0.000 A 
ATOM      2  N   UNL     1       6.151   3.931  16.644  0.00  0.00    +0.000 NA
ATOM      3  C   UNL     1       6.065   4.824  15.689  0.00  0.00    +0.000 A 
ATOM      4  O   UNL     1       5.449   5.978  16.066  0.00  0.00    +0.000 OA
ATOM      5  C   UNL     1       5.022   5.741  17.348  0.00  0.00    +0.000 A 
ENDROOT
BRANCH   1   7
ATOM      6  O   UNL     1       5.718   4.060  20.022  0.00  0.00    +0.000 OA
ATOM      7  C   UNL     1       5.188   3.731  18.960  0.00  0.00    +0.000 C 
ATOM      8  N   UNL     1       4.216   2.704  18.874  0.00  0.00    +0.000 N 
ATOM      9  C   UNL     1       3.925   1.964  17.638  0.00  0.00    +0.000 C 
ATOM     10  C   UNL     1       2.566   2.364  17.083  0.00  0.00    +0.000 C 
ATOM     11  O   UNL     1       1.521   2.073  18.014  0.00  0.00    +0.000 OA
ATOM     12  C   UNL     1       1.805   2.520  19.284  0.00  0.00    +0.000 A 
ATOM     13  C   UNL     1       0.689   2.803  20.071  0.00  0.00    +0.000 A 
ATOM     14  C   UNL     1       0.855   3.252  21.378  0.00  0.00    +0.000 A 
ATOM     15  C   UNL     1       2.134   3.347  21.920  0.00  0.00    +0.000 A 
ATOM     16  C   UNL     1       3.254   3.089  21.126  0.00  0.00    +0.000 A 
ATOM     17  C   UNL     1       3.106   2.738  19.781  0.00  0.00    +0.000 A 
ENDBRANCH   1   7
BRANCH   3  18
ATOM     18  C   UNL     1       6.447   4.685  14.290  0.00  0.00    +0.000 A 
ATOM     19  C   UNL     1       7.495   5.466  13.780  0.00  0.00    +0.000 A 
ATOM     20  C   UNL     1       7.941   5.298  12.470  0.00  0.00    +0.000 A 
ATOM     21  C   UNL     1       7.335   4.345  11.653  0.00  0.00    +0.000 A 
ATOM     22  C   UNL     1       6.284   3.568  12.142  0.00  0.00    +0.000 A 
ATOM     23  C   UNL     1       5.840   3.738  13.454  0.00  0.00    +0.000 A 
ENDBRANCH   3  18
BRANCH   5  24
ATOM     24  C   UNL     1       4.134   6.716  18.100  0.00  0.00    +0.000 C 
ATOM     25  C   UNL     1       2.661   6.343  18.171  0.00  0.00    +0.000 C 
ATOM     26  C   UNL     1       3.086   7.497  17.334  0.00  0.00    +0.000 C 
ENDBRANCH   5  24
TORSDOF 3
ENDMDL
MODEL 4
REMARK VINA RESULT:      -7.1      2.900      7.295
REMARK  Name = 
REMARK  3 active torsions:
REMARK  status: ('A' for Active; 'I' for Inactive)
REMARK    1  A    between atoms: C_2  and  C_3
REMARK    2  A    between atoms: C_5  and  C_6
REMARK    3  A    between atoms: C_13  and  C_14
REMARK                            x       y       z     vdW  Elec       q    Type
REMARK                         _______ _______ _______ _____ _____    ______ ____
ROOT
ATOM      1  C   UNL     1       5.174   5.797  17.202  0.00  0.00    +0.000 A 
ATOM      2  N   UNL     1       5.060   4.901  16.143  0.00  0.00    +0.000 NA
ATOM      3  C   UNL     1       6.099   5.139  15.380  0.00  0.00    +0.000 A 
ATOM      4  O   UNL     1       6.952   6.072  15.884  0.00  0.00    +0.000 OA
ATOM      5  C   UNL     1       6.332   6.532  17.019  0.00  0.00    +0.000 A 
ENDROOT
BRANCH   1   7
ATOM      6  O   UNL     1       3.208   6.791  18.020  0.00  0.00    +0.000 OA
ATOM      7  C   UNL     1       4.111   5.975  18.211  0.00  0.00    +0.000 C 
ATOM      8  N   UNL     1       4.132   5.100  19.324  0.00  0.00    +0.000 N 
ATOM      9  C   UNL     1       5.359   4.484  19.848  0.00  0.00    +0.000 C 
ATOM     10  C   UNL     1       5.385   2.994  19.538  0.00  0.00    +0.000 C 
ATOM     11  O   UNL     1       4.275   2.322  20.140  0.00  0.00    +0.000 OA
ATOM     12  C   UNL     1       3.080   2.963  19.908  0.00  0.00    +0.000 A 
ATOM     13  C   UNL     1       1.956   2.138  19.935  0.00  0.00    +0.000 A 
ATOM     14  C   UNL     1       0.691   2.679  19.724  0.00  0.00    +0.000 A 
ATOM     15  C   UNL     1       0.544   4.054  19.561  0.00  0.00    +0.000 A 
ATOM     16  C   UNL     1       1.670   4.879  19.509  0.00  0.00    +0.000 A 
ATOM     17  C   UNL     1       2.955   4.336  19.615  0.00  0.00    +0.000 A 
ENDBRANCH   1   7
BRANCH   3  18
ATOM     18  C   UNL     1       6.379   4.611  14.052  0.00  0.00    +0.000 A 
ATOM     19  C   UNL     1       5.536   3.630  13.507  0.00  0.00    +0.000 A 
ATOM     20  C   UNL     1       5.727   3.165  12.207  0.00  0.00    +0.000 A 
ATOM     21  C   UNL     1       6.771   3.676  11.438  0.00  0.00    +0.000 A 
ATOM     22  C   UNL     1       7.625   4.643  11.969  0.00  0.00    +0.000 A 
ATOM     23  C   UNL     1       7.431   5.108  13.271  0.00  0.00    +0.000 A 
ENDBRANCH   3  18
BRANCH   5  24
ATOM     24  C   UNL     1       6.865   7.712  17.812  0.00  0.00    +0.000 C 
ATOM     25  C   UNL     1       8.140   8.342  17.273  0.00  0.00    +0.000 C 
ATOM     26  C   UNL     1       8.185   7.570  18.543  0.00  0.00    +0.000 C 
ENDBRANCH   5  24
TORSDOF 3
ENDMDL
MODEL 5
REMARK VINA RESULT:      -6.9      2.992      7.472
REMARK  Name = 
REMARK  3 active torsions:
REMARK  status: ('A' for Active; 'I' for Inactive)
REMARK    1  A    between atoms: C_2  and  C_3
REMARK    2  A    between atoms: C_5  and  C_6
REMARK    3  A    between atoms: C_13  and  C_14
REMARK                            x       y       z     vdW  Elec       q    Type
REMARK                         _______ _______ _______ _____ _____    ______ ____
ROOT
ATOM      1  C   UNL     1       6.151   4.630  17.507  0.00  0.00    +0.000 A 
ATOM      2  N   UNL     1       6.080   3.847  16.359  0.00  0.00    +0.000 NA
ATOM      3  C   UNL     1       6.519   4.616  15.392  0.00  0.00    +0.000 A 
ATOM      4  O   UNL     1       6.958   5.834  15.812  0.00  0.00    +0.000 OA
ATOM      5  C   UNL     1       6.671   5.863  17.154  0.00  0.00    +0.000 A 
ENDROOT
BRANCH   1   7
ATOM      6  O   UNL     1       6.011   4.683  19.852  0.00  0.00    +0.000 OA
ATOM      7  C   UNL     1       5.591   4.195  18.802  0.00  0.00    +0.000 C 
ATOM      8  N   UNL     1       4.502   3.292  18.757  0.00  0.00    +0.000 N 
ATOM      9  C   UNL     1       4.280   2.341  17.659  0.00  0.00    +0.000 C 
ATOM     10  C   UNL     1       3.085   2.764  16.818  0.00  0.00    +0.000 C 
ATOM     11  O   UNL     1       1.889   2.802  17.601  0.00  0.00    +0.000 OA
ATOM     12  C   UNL     1       2.056   3.476  18.788  0.00  0.00    +0.000 A 
ATOM     13  C   UNL     1       0.895   4.046  19.309  0.00  0.00    +0.000 A 
ATOM     14  C   UNL     1       0.941   4.744  20.513  0.00  0.00    +0.000 A 
ATOM     15  C   UNL     1       2.132   4.807  21.231  0.00  0.00    +0.000 A 
ATOM     16  C   UNL     1       3.302   4.259  20.700  0.00  0.00    +0.000 A 
ATOM     17  C   UNL     1       3.293   3.645  19.443  0.00  0.00    +0.000 A 
ENDBRANCH   1   7
BRANCH   3  18
ATOM     18  C   UNL     1       6.493   4.361  13.958  0.00  0.00    +0.000 A 
ATOM     19  C   UNL     1       7.482   4.926  13.139  0.00  0.00    +0.000 A 
ATOM     20  C   UNL     1       7.534   4.636  11.777  0.00  0.00    +0.000 A 
ATOM     21  C   UNL     1       6.589   3.776  11.218  0.00  0.00    +0.000 A 
ATOM     22  C   UNL     1       5.592   3.216  12.017  0.00  0.00    +0.000 A 
ATOM     23  C   UNL     1       5.542   3.508  13.382  0.00  0.00    +0.000 A 
ENDBRANCH   3  18
BRANCH   5  24
ATOM     24  C   UNL     1       6.848   7.116  17.994  0.00  0.00    +0.000 C 
ATOM     25  C   UNL     1       7.829   8.140  17.445  0.00  0.00    +0.000 C 
ATOM     26  C   UNL     1       8.182   7.368  18.666  0.00  0.00    +0.000 C 
ENDBRANCH   5  24
TORSDOF 3
ENDMDL
MODEL 6
REMARK VINA RESULT:      -6.9      6.300     10.481
REMARK  Name = 
REMARK  3 active torsions:
REMARK  status: ('A' for Active; 'I' for Inactive)
REMARK    1  A    between atoms: C_2  and  C_3
REMARK    2  A    between atoms: C_5  and  C_6
REMARK    3  A    between atoms: C_13  and  C_14
REMARK                            x       y       z     vdW  Elec       q    Type
REMARK                         _______ _______ _______ _____ _____    ______ ____
ROOT
ATOM      1  C   UNL     1      -0.674  11.672  20.789  0.00  0.00    +0.000 A 
ATOM      2  N   UNL     1      -1.676  11.995  19.877  0.00  0.00    +0.000 NA
ATOM      3  C   UNL     1      -1.714  10.986  19.041  0.00  0.00    +0.000 A 
ATOM      4  O   UNL     1      -0.872   9.967  19.365  0.00  0.00    +0.000 OA
ATOM      5  C   UNL     1      -0.169  10.430  20.449  0.00  0.00    +0.000 A 
ENDROOT
BRANCH   1   7
ATOM      6  O   UNL     1       0.888  13.196  21.659  0.00  0.00    +0.000 OA
ATOM      7  C   UNL     1      -0.192  12.624  21.809  0.00  0.00    +0.000 C 
ATOM      8  N   UNL     1      -1.070  12.911  22.883  0.00  0.00    +0.000 N 
ATOM      9  C   UNL     1      -2.086  11.970  23.373  0.00  0.00    +0.000 C 
ATOM     10  C   UNL     1      -3.482  12.446  22.997  0.00  0.00    +0.000 C 
ATOM     11  O   UNL     1      -3.765  13.724  23.574  0.00  0.00    +0.000 OA
ATOM     12  C   UNL     1      -2.749  14.629  23.376  0.00  0.00    +0.000 A 
ATOM     13  C   UNL     1      -3.146  15.967  23.370  0.00  0.00    +0.000 A 
ATOM     14  C   UNL     1      -2.201  16.972  23.190  0.00  0.00    +0.000 A 
ATOM     15  C   UNL     1      -0.852  16.645  23.089  0.00  0.00    +0.000 A 
ATOM     16  C   UNL     1      -0.454  15.305  23.068  0.00  0.00    +0.000 A 
ATOM     17  C   UNL     1      -1.403  14.281  23.144  0.00  0.00    +0.000 A 
ENDBRANCH   1   7
BRANCH   3  18
ATOM     18  C   UNL     1      -2.455  10.882  17.791  0.00  0.00    +0.000 A 
ATOM     19  C   UNL     1      -1.968  10.057  16.767  0.00  0.00    +0.000 A 
ATOM     20  C   UNL     1      -2.695   9.870  15.592  0.00  0.00    +0.000 A 
ATOM     21  C   UNL     1      -3.920  10.516  15.429  0.00  0.00    +0.000 A 
ATOM     22  C   UNL     1      -4.412  11.349  16.434  0.00  0.00    +0.000 A 
ATOM     23  C   UNL     1      -3.683  11.534  17.609  0.00  0.00    +0.000 A 
ENDBRANCH   3  18
BRANCH   5  24
ATOM     24  C   UNL     1       1.006   9.668  21.038  0.00  0.00    +0.000 C 
ATOM     25  C   UNL     1       0.732   8.216  21.397  0.00  0.00    +0.000 C 
ATOM     26  C   UNL     1       0.936   9.213  22.481  0.00  0.00    +0.000 C 
ENDBRANCH   5  24
TORSDOF 3
ENDMDL
MODEL 7
REMARK VINA RESULT:      -6.8      3.332      8.903
REMARK  Name = 
REMARK  3 active torsions:
REMARK  status: ('A' for Active; 'I' for Inactive)
REMARK    1  A    between atoms: C_2  and  C_3
REMARK    2  A    between atoms: C_5  and  C_6
REMARK    3  A    between atoms: C_13  and  C_14
REMARK                            x       y       z     vdW  Elec       q    Type
REMARK                         _______ _______ _______ _____ _____    ______ ____
ROOT
ATOM      1  C   UNL     1       0.991  10.573  19.032  0.00  0.00    +0.000 A 
ATOM      2  N   UNL     1       2.145   9.813  18.869  0.00  0.00    +0.000 NA
ATOM      3  C   UNL     1       1.777   8.782  18.150  0.00  0.00    +0.000 A 
ATOM      4  O   UNL     1       0.479   8.826  17.743  0.00  0.00    +0.000 OA
ATOM      5  C   UNL     1      -0.037   9.942  18.353  0.00  0.00    +0.000 A 
ENDROOT
BRANCH   1   7
ATOM      6  O   UNL     1       1.010  12.884  19.459  0.00  0.00    +0.000 OA
ATOM      7  C   UNL     1       0.931  11.746  19.926  0.00  0.00    +0.000 C 
ATOM      8  N   UNL     1       0.676  11.495  21.296  0.00  0.00    +0.000 N 
ATOM      9  C   UNL     1       1.042  10.243  21.973  0.00  0.00    +0.000 C 
ATOM     10  C   UNL     1      -0.200   9.423  22.290  0.00  0.00    +0.000 C 
ATOM     11  O   UNL     1      -1.084  10.138  23.158  0.00  0.00    +0.000 OA
ATOM     12  C   UNL     1      -1.309  11.428  22.737  0.00  0.00    +0.000 A 
ATOM     13  C   UNL     1      -2.526  11.976  23.140  0.00  0.00    +0.000 A 
ATOM     14  C   UNL     1      -2.857  13.279  22.782  0.00  0.00    +0.000 A 
ATOM     15  C   UNL     1      -1.939  14.059  22.084  0.00  0.00    +0.000 A 
ATOM     16  C   UNL     1      -0.729  13.506  21.656  0.00  0.00    +0.000 A 
ATOM     17  C   UNL     1      -0.428  12.165  21.919  0.00  0.00    +0.000 A 
ENDBRANCH   1   7
BRANCH   3  18
ATOM     18  C   UNL     1       2.545   7.584  17.835  0.00  0.00    +0.000 A 
ATOM     19  C   UNL     1       3.820   7.712  17.265  0.00  0.00    +0.000 A 
ATOM     20  C   UNL     1       4.614   6.591  17.029  0.00  0.00    +0.000 A 
ATOM     21  C   UNL     1       4.134   5.324  17.360  0.00  0.00    +0.000 A 
ATOM     22  C   UNL     1       2.863   5.179  17.916  0.00  0.00    +0.000 A 
ATOM     23  C   UNL     1       2.070   6.304  18.152  0.00  0.00    +0.000 A 
ENDBRANCH   3  18
BRANCH   5  24
ATOM     24  C   UNL     1      -1.516  10.283  18.303  0.00  0.00    +0.000 C 
ATOM     25  C   UNL     1      -2.135  10.314  16.914  0.00  0.00    +0.000 C 
ATOM     26  C   UNL     1      -1.949  11.586  17.663  0.00  0.00    +0.000 C 
ENDBRANCH   5  24
TORSDOF 3
ENDMDL
MODEL 8
REMARK VINA RESULT:      -6.7      8.154      9.734
REMARK  Name = 
REMARK  3 active torsions:
REMARK  status: ('A' for Active; 'I' for Inactive)
REMARK    1  A    between atoms: C_2  and  C_3
REMARK    2  A    between atoms: C_5  and  C_6
REMARK    3  A    between atoms: C_13  and  C_14
REMARK                            x       y       z     vdW  Elec       q    Type
REMARK                         _______ _______ _______ _____ _____    ______ ____
ROOT
ATOM      1  C   UNL     1      -0.312  13.042  20.259  0.00  0.00    +0.000 A 
ATOM      2  N   UNL     1      -0.653  12.756  18.940  0.00  0.00    +0.000 NA
ATOM      3  C   UNL     1      -1.808  12.141  19.012  0.00  0.00    +0.000 A 
ATOM      4  O   UNL     1      -2.314  12.060  20.273  0.00  0.00    +0.000 OA
ATOM      5  C   UNL     1      -1.332  12.586  21.075  0.00  0.00    +0.000 A 
ENDROOT
BRANCH   1   7
ATOM      6  O   UNL     1       1.864  12.854  21.127  0.00  0.00    +0.000 OA
ATOM      7  C   UNL     1       1.006  13.590  20.638  0.00  0.00    +0.000 C 
ATOM      8  N   UNL     1       1.252  14.946  20.314  0.00  0.00    +0.000 N 
ATOM      9  C   UNL     1       0.193  15.958  20.198  0.00  0.00    +0.000 C 
ATOM     10  C   UNL     1      -0.012  16.354  18.743  0.00  0.00    +0.000 C 
ATOM     11  O   UNL     1       1.180  16.915  18.187  0.00  0.00    +0.000 OA
ATOM     12  C   UNL     1       2.295  16.153  18.450  0.00  0.00    +0.000 A 
ATOM     13  C   UNL     1       3.326  16.278  17.519  0.00  0.00    +0.000 A 
ATOM     14  C   UNL     1       4.508  15.563  17.689  0.00  0.00    +0.000 A 
ATOM     15  C   UNL     1       4.686  14.780  18.826  0.00  0.00    +0.000 A 
ATOM     16  C   UNL     1       3.645  14.631  19.747  0.00  0.00    +0.000 A 
ATOM     17  C   UNL     1       2.414  15.262  19.536  0.00  0.00    +0.000 A 
ENDBRANCH   1   7
BRANCH   3  18
ATOM     18  C   UNL     1      -2.535  11.465  17.945  0.00  0.00    +0.000 A 
ATOM     19  C   UNL     1      -3.875  11.802  17.702  0.00  0.00    +0.000 A 
ATOM     20  C   UNL     1      -4.573  11.236  16.637  0.00  0.00    +0.000 A 
ATOM     21  C   UNL     1      -3.934  10.318  15.804  0.00  0.00    +0.000 A 
ATOM     22  C   UNL     1      -2.606   9.963  16.040  0.00  0.00    +0.000 A 
ATOM     23  C   UNL     1      -1.909  10.533  17.107  0.00  0.00    +0.000 A 
ENDBRANCH   3  18
BRANCH   5  24
ATOM     24  C   UNL     1      -1.413  12.541  22.591  0.00  0.00    +0.000 C 
ATOM     25  C   UNL     1      -1.379  11.152  23.208  0.00  0.00    +0.000 C 
ATOM     26  C   UNL     1      -2.641  11.939  23.243  0.00  0.00    +0.000 C 
ENDBRANCH   5  24
TORSDOF 3
ENDMDL
MODEL 9
REMARK VINA RESULT:      -6.7      3.509      8.839
REMARK  Name = 
REMARK  3 active torsions:
REMARK  status: ('A' for Active; 'I' for Inactive)
REMARK    1  A    between atoms: C_2  and  C_3
REMARK    2  A    between atoms: C_5  and  C_6
REMARK    3  A    between atoms: C_13  and  C_14
REMARK                            x       y       z     vdW  Elec       q    Type
REMARK                         _______ _______ _______ _____ _____    ______ ____
ROOT
ATOM      1  C   UNL     1       0.290  10.157  19.657  0.00  0.00    +0.000 A 
ATOM      2  N   UNL     1       0.847   9.354  18.665  0.00  0.00    +0.000 NA
ATOM      3  C   UNL     1       1.580   8.477  19.307  0.00  0.00    +0.000 A 
ATOM      4  O   UNL     1       1.497   8.574  20.662  0.00  0.00    +0.000 OA
ATOM      5  C   UNL     1       0.718   9.682  20.884  0.00  0.00    +0.000 A 
ENDROOT
BRANCH   1   7
ATOM      6  O   UNL     1      -1.680  11.307  19.093  0.00  0.00    +0.000 OA
ATOM      7  C   UNL     1      -0.478  11.380  19.351  0.00  0.00    +0.000 C 
ATOM      8  N   UNL     1       0.206  12.614  19.476  0.00  0.00    +0.000 N 
ATOM      9  C   UNL     1       1.658  12.758  19.300  0.00  0.00    +0.000 C 
ATOM     10  C   UNL     1       2.336  13.023  20.636  0.00  0.00    +0.000 C 
ATOM     11  O   UNL     1       1.853  14.232  21.229  0.00  0.00    +0.000 OA
ATOM     12  C   UNL     1       0.480  14.310  21.227  0.00  0.00    +0.000 A 
ATOM     13  C   UNL     1      -0.066  15.099  22.239  0.00  0.00    +0.000 A 
ATOM     14  C   UNL     1      -1.446  15.260  22.328  0.00  0.00    +0.000 A 
ATOM     15  C   UNL     1      -2.273  14.692  21.363  0.00  0.00    +0.000 A 
ATOM     16  C   UNL     1      -1.731  13.880  20.364  0.00  0.00    +0.000 A 
ATOM     17  C   UNL     1      -0.357  13.625  20.323  0.00  0.00    +0.000 A 
ENDBRANCH   1   7
BRANCH   3  18
ATOM     18  C   UNL     1       2.520   7.514  18.752  0.00  0.00    +0.000 A 
ATOM     19  C   UNL     1       2.527   6.197  19.238  0.00  0.00    +0.000 A 
ATOM     20  C   UNL     1       3.356   5.230  18.671  0.00  0.00    +0.000 A 
ATOM     21  C   UNL     1       4.193   5.574  17.611  0.00  0.00    +0.000 A 
ATOM     22  C   UNL     1       4.207   6.882  17.124  0.00  0.00    +0.000 A 
ATOM     23  C   UNL     1       3.375   7.848  17.693  0.00  0.00    +0.000 A 
ENDBRANCH   3  18
BRANCH   5  24
ATOM     24  C   UNL     1       0.502  10.256  22.273  0.00  0.00    +0.000 C 
ATOM     25  C   UNL     1      -0.417   9.452  23.179  0.00  0.00    +0.000 C 
ATOM     26  C   UNL     1      -0.874  10.765  22.652  0.00  0.00    +0.000 C 
ENDBRANCH   5  24
TORSDOF 3
ENDMDL
