MODEL 1
REMARK VINA RESULT:      -9.6      0.000      0.000
REMARK  Name = 
REMARK  5 active torsions:
REMARK  status: ('A' for Active; 'I' for Inactive)
REMARK    1  A    between atoms: C_2  and  C_3
REMARK    2  A    between atoms: C_3  and  C_4
REMARK    3  A    between atoms: C_4  and  N_5
REMARK    4  A    between atoms: N_16  and  C_17
REMARK    5  A    between atoms: C_21  and  C_22
REMARK                            x       y       z     vdW  Elec       q    Type
REMARK                         _______ _______ _______ _____ _____    ______ ____
ROOT
ATOM      1  O   UNL     1       0.734   4.686  20.043  0.00  0.00    +0.000 OA
ATOM      2  C   UNL     1       1.921   4.774  20.347  0.00  0.00    +0.000 C 
ATOM      3  N   UNL     1       2.745   5.860  20.096  0.00  0.00    +0.000 N 
ATOM      4  H   UNL     1       3.744   5.722  20.192  0.00  0.00    +0.000 HD
ENDROOT
BRANCH   3   5
ATOM      5  C   UNL     1       2.332   7.105  19.565  0.00  0.00    +0.000 A 
ATOM      6  C   UNL     1       2.590   7.486  18.247  0.00  0.00    +0.000 A 
ATOM      7  C   UNL     1       2.128   8.709  17.751  0.00  0.00    +0.000 A 
ATOM      8  C   UNL     1       1.422   9.575  18.581  0.00  0.00    +0.000 A 
ATOM      9  C   UNL     1       1.231   9.252  19.927  0.00  0.00    +0.000 A 
ATOM     10  C   UNL     1       1.624   7.984  20.397  0.00  0.00    +0.000 A 
BRANCH   9  11
ATOM     11  C   UNL     1       0.601  10.209  20.880  0.00  0.00    +0.000 C 
ATOM     12  O   UNL     1       1.222  10.454  21.915  0.00  0.00    +0.000 OA
ATOM     13  N   UNL     1      -0.615  10.825  20.574  0.00  0.00    +0.000 N 
ATOM     14  C   UNL     1      -1.397  10.690  19.336  0.00  0.00    +0.000 C 
ATOM     15  C   UNL     1      -1.930  12.039  18.844  0.00  0.00    +0.000 C 
ATOM     16  O   UNL     1      -2.638  12.733  19.877  0.00  0.00    +0.000 OA
ATOM     17  C   UNL     1      -1.773  12.969  21.000  0.00  0.00    +0.000 C 
ATOM     18  C   UNL     1      -1.276  11.646  21.595  0.00  0.00    +0.000 C 
ENDBRANCH   9  11
ENDBRANCH   3   5
BRANCH   2  19
ATOM     19  C   UNL     1       2.613   3.625  21.048  0.00  0.00    +0.000 C 
BRANCH  19  20
ATOM     20  C   UNL     1       3.148   2.642  20.014  0.00  0.00    +0.000 C 
BRANCH  20  21
ATOM     21  N   UNL     1       4.134   3.262  19.132  0.00  0.00    +0.000 N 
ATOM     22  N   UNL     1       5.250   3.753  19.746  0.00  0.00    +0.000 NA
ATOM     23  N   UNL     1       6.164   4.305  19.098  0.00  0.00    +0.000 NA
ATOM     24  C   UNL     1       6.073   4.400  17.705  0.00  0.00    +0.000 A 
ATOM     25  C   UNL     1       7.146   4.949  16.992  0.00  0.00    +0.000 A 
ATOM     26  C   UNL     1       7.100   5.057  15.598  0.00  0.00    +0.000 A 
ATOM     27  C   UNL     1       5.973   4.619  14.903  0.00  0.00    +0.000 A 
ATOM     28  C   UNL     1       4.895   4.078  15.601  0.00  0.00    +0.000 A 
ATOM     29  C   UNL     1       4.963   3.974  16.994  0.00  0.00    +0.000 A 
ATOM     30  C   UNL     1       3.876   3.394  17.780  0.00  0.00    +0.000 A 
ATOM     31  O   UNL     1       2.832   3.047  17.239  0.00  0.00    +0.000 OA
ENDBRANCH  20  21
ENDBRANCH  19  20
ENDBRANCH   2  19
TORSDOF 5
ENDMDL
MODEL 2
REMARK VINA RESULT:      -8.9      6.155      9.126
REMARK  Name = 
REMARK  5 active torsions:
REMARK  status: ('A' for Active; 'I' for Inactive)
REMARK    1  A    between atoms: C_2  and  C_3
REMARK    2  A    between atoms: C_3  and  C_4
REMARK    3  A    between atoms: C_4  and  N_5
REMARK    4  A    between atoms: N_16  and  C_17
REMARK    5  A    between atoms: C_21  and  C_22
REMARK                            x       y       z     vdW  Elec       q    Type
REMARK                         _______ _______ _______ _____ _____    ______ ____
ROOT
ATOM      1  O   UNL     1       8.234   7.039  18.609  0.00  0.00    +0.000 OA
ATOM      2  C   UNL     1       7.760   7.822  17.791  0.00  0.00    +0.000 C 
ATOM      3  N   UNL     1       6.873   7.498  16.776  0.00  0.00    +0.000 N 
ATOM      4  H   UNL     1       6.733   8.181  16.041  0.00  0.00    +0.000 HD
ENDROOT
BRANCH   3   5
ATOM      5  C   UNL     1       6.259   6.237  16.587  0.00  0.00    +0.000 A 
ATOM      6  C   UNL     1       6.047   5.684  15.322  0.00  0.00    +0.000 A 
ATOM      7  C   UNL     1       5.473   4.416  15.182  0.00  0.00    +0.000 A 
ATOM      8  C   UNL     1       5.084   3.700  16.309  0.00  0.00    +0.000 A 
ATOM      9  C   UNL     1       5.206   4.272  17.578  0.00  0.00    +0.000 A 
ATOM     10  C   UNL     1       5.860   5.511  17.718  0.00  0.00    +0.000 A 
BRANCH   9  11
ATOM     11  C   UNL     1       4.677   3.596  18.796  0.00  0.00    +0.000 C 
ATOM     12  O   UNL     1       5.444   3.496  19.754  0.00  0.00    +0.000 OA
ATOM     13  N   UNL     1       3.356   3.146  18.845  0.00  0.00    +0.000 N 
ATOM     14  C   UNL     1       2.322   3.295  17.810  0.00  0.00    +0.000 C 
ATOM     15  C   UNL     1       0.972   3.707  18.403  0.00  0.00    +0.000 C 
ATOM     16  O   UNL     1       0.573   2.831  19.463  0.00  0.00    +0.000 OA
ATOM     17  C   UNL     1       1.553   2.848  20.514  0.00  0.00    +0.000 C 
ATOM     18  C   UNL     1       2.913   2.357  20.002  0.00  0.00    +0.000 C 
ENDBRANCH   9  11
ENDBRANCH   3   5
BRANCH   2  19
ATOM     19  C   UNL     1       8.145   9.285  17.828  0.00  0.00    +0.000 C 
BRANCH  19  20
ATOM     20  C   UNL     1       8.973   9.565  19.076  0.00  0.00    +0.000 C 
BRANCH  20  21
ATOM     21  N   UNL     1       9.580  10.893  19.042  0.00  0.00    +0.000 N 
ATOM     22  N   UNL     1      10.112  11.268  17.841  0.00  0.00    +0.000 NA
ATOM     23  N   UNL     1      10.659  12.381  17.687  0.00  0.00    +0.000 NA
ATOM     24  C   UNL     1      10.704  13.289  18.750  0.00  0.00    +0.000 A 
ATOM     25  C   UNL     1      11.248  14.561  18.531  0.00  0.00    +0.000 A 
ATOM     26  C   UNL     1      11.307  15.503  19.564  0.00  0.00    +0.000 A 
ATOM     27  C   UNL     1      10.826  15.178  20.831  0.00  0.00    +0.000 A 
ATOM     28  C   UNL     1      10.289  13.912  21.065  0.00  0.00    +0.000 A 
ATOM     29  C   UNL     1      10.234  12.988  20.018  0.00  0.00    +0.000 A 
ATOM     30  C   UNL     1       9.661  11.654  20.194  0.00  0.00    +0.000 A 
ATOM     31  O   UNL     1       9.277  11.281  21.296  0.00  0.00    +0.000 OA
ENDBRANCH  20  21
ENDBRANCH  19  20
ENDBRANCH   2  19
TORSDOF 5
ENDMDL
MODEL 3
REMARK VINA RESULT:      -8.9      1.235      1.326
REMARK  Name = 
REMARK  5 active torsions:
REMARK  status: ('A' for Active; 'I' for Inactive)
REMARK    1  A    between atoms: C_2  and  C_3
REMARK    2  A    between atoms: C_3  and  C_4
REMARK    3  A    between atoms: C_4  and  N_5
REMARK    4  A    between atoms: N_16  and  C_17
REMARK    5  A    between atoms: C_21  and  C_22
REMARK                            x       y       z     vdW  Elec       q    Type
REMARK                         _______ _______ _______ _____ _____    ______ ____
ROOT
ATOM      1  O   UNL     1       1.074   4.399  19.316  0.00  0.00    +0.000 OA
ATOM      2  C   UNL     1       2.044   4.618  20.039  0.00  0.00    +0.000 C 
ATOM      3  N   UNL     1       2.685   5.837  20.189  0.00  0.00    +0.000 N 
ATOM      4  H   UNL     1       3.596   5.836  20.633  0.00  0.00    +0.000 HD
ENDROOT
BRANCH   3   5
ATOM      5  C   UNL     1       2.257   7.070  19.639  0.00  0.00    +0.000 A 
ATOM      6  C   UNL     1       2.584   7.471  18.343  0.00  0.00    +0.000 A 
ATOM      7  C   UNL     1       2.106   8.679  17.825  0.00  0.00    +0.000 A 
ATOM      8  C   UNL     1       1.314   9.508  18.612  0.00  0.00    +0.000 A 
ATOM      9  C   UNL     1       1.049   9.168  19.941  0.00  0.00    +0.000 A 
ATOM     10  C   UNL     1       1.462   7.913  20.428  0.00  0.00    +0.000 A 
BRANCH   9  11
ATOM     11  C   UNL     1       0.320  10.090  20.857  0.00  0.00    +0.000 C 
ATOM     12  O   UNL     1      -0.244   9.583  21.825  0.00  0.00    +0.000 OA
ATOM     13  N   UNL     1       0.329  11.470  20.633  0.00  0.00    +0.000 N 
ATOM     14  C   UNL     1       1.044  12.199  19.575  0.00  0.00    +0.000 C 
ATOM     15  C   UNL     1       1.725  13.462  20.109  0.00  0.00    +0.000 C 
ATOM     16  O   UNL     1       0.808  14.290  20.832  0.00  0.00    +0.000 OA
ATOM     17  C   UNL     1       0.259  13.566  21.946  0.00  0.00    +0.000 C 
ATOM     18  C   UNL     1      -0.516  12.333  21.468  0.00  0.00    +0.000 C 
ENDBRANCH   9  11
ENDBRANCH   3   5
BRANCH   2  19
ATOM     19  C   UNL     1       2.651   3.498  20.855  0.00  0.00    +0.000 C 
BRANCH  19  20
ATOM     20  C   UNL     1       3.360   2.516  19.931  0.00  0.00    +0.000 C 
BRANCH  20  21
ATOM     21  N   UNL     1       4.288   3.192  19.027  0.00  0.00    +0.000 N 
ATOM     22  N   UNL     1       5.373   3.772  19.620  0.00  0.00    +0.000 NA
ATOM     23  N   UNL     1       6.237   4.378  18.953  0.00  0.00    +0.000 NA
ATOM     24  C   UNL     1       6.124   4.445  17.560  0.00  0.00    +0.000 A 
ATOM     25  C   UNL     1       7.146   5.059  16.826  0.00  0.00    +0.000 A 
ATOM     26  C   UNL     1       7.077   5.141  15.431  0.00  0.00    +0.000 A 
ATOM     27  C   UNL     1       5.977   4.613  14.756  0.00  0.00    +0.000 A 
ATOM     28  C   UNL     1       4.949   4.006  15.476  0.00  0.00    +0.000 A 
ATOM     29  C   UNL     1       5.040   3.929  16.869  0.00  0.00    +0.000 A 
ATOM     30  C   UNL     1       4.006   3.284  17.676  0.00  0.00    +0.000 A 
ATOM     31  O   UNL     1       2.984   2.854  17.154  0.00  0.00    +0.000 OA
ENDBRANCH  20  21
ENDBRANCH  19  20
ENDBRANCH   2  19
TORSDOF 5
ENDMDL
MODEL 4
REMARK VINA RESULT:      -8.8      1.246      1.879
REMARK  Name = 
REMARK  5 active torsions:
REMARK  status: ('A' for Active; 'I' for Inactive)
REMARK    1  A    between atoms: C_2  and  C_3
REMARK    2  A    between atoms: C_3  and  C_4
REMARK    3  A    between atoms: C_4  and  N_5
REMARK    4  A    between atoms: N_16  and  C_17
REMARK    5  A    between atoms: C_21  and  C_22
REMARK                            x       y       z     vdW  Elec       q    Type
REMARK                         _______ _______ _______ _____ _____    ______ ____
ROOT
ATOM      1  O   UNL     1       1.191   4.361  19.184  0.00  0.00    +0.000 OA
ATOM      2  C   UNL     1       2.096   4.606  19.978  0.00  0.00    +0.000 C 
ATOM      3  N   UNL     1       2.836   5.777  20.029  0.00  0.00    +0.000 N 
ATOM      4  H   UNL     1       3.691   5.767  20.574  0.00  0.00    +0.000 HD
ENDROOT
BRANCH   3   5
ATOM      5  C   UNL     1       2.593   6.943  19.265  0.00  0.00    +0.000 A 
ATOM      6  C   UNL     1       3.260   7.214  18.069  0.00  0.00    +0.000 A 
ATOM      7  C   UNL     1       2.959   8.359  17.324  0.00  0.00    +0.000 A 
ATOM      8  C   UNL     1       2.002   9.256  17.784  0.00  0.00    +0.000 A 
ATOM      9  C   UNL     1       1.386   9.050  19.021  0.00  0.00    +0.000 A 
ATOM     10  C   UNL     1       1.632   7.855  19.725  0.00  0.00    +0.000 A 
BRANCH   9  11
ATOM     11  C   UNL     1       0.457  10.054  19.612  0.00  0.00    +0.000 C 
ATOM     12  O   UNL     1      -0.310  10.626  18.838  0.00  0.00    +0.000 OA
ATOM     13  N   UNL     1       0.442  10.286  20.990  0.00  0.00    +0.000 N 
ATOM     14  C   UNL     1       1.235   9.600  22.020  0.00  0.00    +0.000 C 
ATOM     15  C   UNL     1       0.395   9.251  23.253  0.00  0.00    +0.000 C 
ATOM     16  O   UNL     1      -0.300  10.396  23.758  0.00  0.00    +0.000 OA
ATOM     17  C   UNL     1      -1.175  10.929  22.749  0.00  0.00    +0.000 C 
ATOM     18  C   UNL     1      -0.379  11.382  21.519  0.00  0.00    +0.000 C 
ENDBRANCH   9  11
ENDBRANCH   3   5
BRANCH   2  19
ATOM     19  C   UNL     1       2.500   3.576  21.011  0.00  0.00    +0.000 C 
BRANCH  19  20
ATOM     20  C   UNL     1       3.545   2.639  20.417  0.00  0.00    +0.000 C 
BRANCH  20  21
ATOM     21  N   UNL     1       4.405   3.321  19.454  0.00  0.00    +0.000 N 
ATOM     22  N   UNL     1       5.315   4.190  19.986  0.00  0.00    +0.000 NA
ATOM     23  N   UNL     1       6.106   4.832  19.265  0.00  0.00    +0.000 NA
ATOM     24  C   UNL     1       6.096   4.643  17.878  0.00  0.00    +0.000 A 
ATOM     25  C   UNL     1       7.047   5.313  17.097  0.00  0.00    +0.000 A 
ATOM     26  C   UNL     1       7.077   5.148  15.708  0.00  0.00    +0.000 A 
ATOM     27  C   UNL     1       6.150   4.312  15.086  0.00  0.00    +0.000 A 
ATOM     28  C   UNL     1       5.195   3.646  15.851  0.00  0.00    +0.000 A 
ATOM     29  C   UNL     1       5.184   3.821  17.238  0.00  0.00    +0.000 A 
ATOM     30  C   UNL     1       4.222   3.132  18.096  0.00  0.00    +0.000 A 
ATOM     31  O   UNL     1       3.342   2.432  17.610  0.00  0.00    +0.000 OA
ENDBRANCH  20  21
ENDBRANCH  19  20
ENDBRANCH   2  19
TORSDOF 5
ENDMDL
MODEL 5
REMARK VINA RESULT:      -8.8      6.139      8.992
REMARK  Name = 
REMARK  5 active torsions:
REMARK  status: ('A' for Active; 'I' for Inactive)
REMARK    1  A    between atoms: C_2  and  C_3
REMARK    2  A    between atoms: C_3  and  C_4
REMARK    3  A    between atoms: C_4  and  N_5
REMARK    4  A    between atoms: N_16  and  C_17
REMARK    5  A    between atoms: C_21  and  C_22
REMARK                            x       y       z     vdW  Elec       q    Type
REMARK                         _______ _______ _______ _____ _____    ______ ____
ROOT
ATOM      1  O   UNL     1       8.203   7.070  18.736  0.00  0.00    +0.000 OA
ATOM      2  C   UNL     1       7.822   7.759  17.793  0.00  0.00    +0.000 C 
ATOM      3  N   UNL     1       6.906   7.376  16.826  0.00  0.00    +0.000 N 
ATOM      4  H   UNL     1       6.847   7.941  15.987  0.00  0.00    +0.000 HD
ENDROOT
BRANCH   3   5
ATOM      5  C   UNL     1       6.152   6.178  16.830  0.00  0.00    +0.000 A 
ATOM      6  C   UNL     1       6.512   5.058  16.076  0.00  0.00    +0.000 A 
ATOM      7  C   UNL     1       5.761   3.881  16.141  0.00  0.00    +0.000 A 
ATOM      8  C   UNL     1       4.627   3.821  16.944  0.00  0.00    +0.000 A 
ATOM      9  C   UNL     1       4.201   4.957  17.637  0.00  0.00    +0.000 A 
ATOM     10  C   UNL     1       5.006   6.112  17.634  0.00  0.00    +0.000 A 
BRANCH   9  11
ATOM     11  C   UNL     1       2.920   4.975  18.399  0.00  0.00    +0.000 C 
ATOM     12  O   UNL     1       1.956   5.513  17.855  0.00  0.00    +0.000 OA
ATOM     13  N   UNL     1       2.827   4.364  19.652  0.00  0.00    +0.000 N 
ATOM     14  C   UNL     1       3.874   3.611  20.358  0.00  0.00    +0.000 C 
ATOM     15  C   UNL     1       3.329   2.328  20.992  0.00  0.00    +0.000 C 
ATOM     16  O   UNL     1       2.185   2.591  21.812  0.00  0.00    +0.000 OA
ATOM     17  C   UNL     1       1.139   3.189  21.027  0.00  0.00    +0.000 C 
ATOM     18  C   UNL     1       1.597   4.528  20.436  0.00  0.00    +0.000 C 
ENDBRANCH   9  11
ENDBRANCH   3   5
BRANCH   2  19
ATOM     19  C   UNL     1       8.372   9.156  17.602  0.00  0.00    +0.000 C 
BRANCH  19  20
ATOM     20  C   UNL     1       8.849   9.706  18.940  0.00  0.00    +0.000 C 
BRANCH  20  21
ATOM     21  N   UNL     1       9.135  11.136  18.871  0.00  0.00    +0.000 N 
ATOM     22  N   UNL     1       8.588  11.798  17.809  0.00  0.00    +0.000 NA
ATOM     23  N   UNL     1       8.761  13.023  17.642  0.00  0.00    +0.000 NA
ATOM     24  C   UNL     1       9.503  13.757  18.574  0.00  0.00    +0.000 A 
ATOM     25  C   UNL     1       9.615  15.143  18.410  0.00  0.00    +0.000 A 
ATOM     26  C   UNL     1      10.341  15.916  19.322  0.00  0.00    +0.000 A 
ATOM     27  C   UNL     1      10.968  15.306  20.408  0.00  0.00    +0.000 A 
ATOM     28  C   UNL     1      10.870  13.926  20.579  0.00  0.00    +0.000 A 
ATOM     29  C   UNL     1      10.136  13.173  19.659  0.00  0.00    +0.000 A 
ATOM     30  C   UNL     1       9.977  11.726  19.797  0.00  0.00    +0.000 A 
ATOM     31  O   UNL     1      10.552  11.118  20.692  0.00  0.00    +0.000 OA
ENDBRANCH  20  21
ENDBRANCH  19  20
ENDBRANCH   2  19
TORSDOF 5
ENDMDL
MODEL 6
REMARK VINA RESULT:      -8.7      6.369      9.010
REMARK  Name = 
REMARK  5 active torsions:
REMARK  status: ('A' for Active; 'I' for Inactive)
REMARK    1  A    between atoms: C_2  and  C_3
REMARK    2  A    between atoms: C_3  and  C_4
REMARK    3  A    between atoms: C_4  and  N_5
REMARK    4  A    between atoms: N_16  and  C_17
REMARK    5  A    between atoms: C_21  and  C_22
REMARK                            x       y       z     vdW  Elec       q    Type
REMARK                         _______ _______ _______ _____ _____    ______ ____
ROOT
ATOM      1  O   UNL     1       8.521   7.341  18.817  0.00  0.00    +0.000 OA
ATOM      2  C   UNL     1       8.028   8.067  17.957  0.00  0.00    +0.000 C 
ATOM      3  N   UNL     1       7.195   7.658  16.928  0.00  0.00    +0.000 N 
ATOM      4  H   UNL     1       7.040   8.306  16.165  0.00  0.00    +0.000 HD
ENDROOT
BRANCH   3   5
ATOM      5  C   UNL     1       6.661   6.357  16.765  0.00  0.00    +0.000 A 
ATOM      6  C   UNL     1       6.749   5.651  15.564  0.00  0.00    +0.000 A 
ATOM      7  C   UNL     1       6.244   4.351  15.458  0.00  0.00    +0.000 A 
ATOM      8  C   UNL     1       5.623   3.755  16.550  0.00  0.00    +0.000 A 
ATOM      9  C   UNL     1       5.445   4.476  17.733  0.00  0.00    +0.000 A 
ATOM     10  C   UNL     1       6.030   5.751  17.860  0.00  0.00    +0.000 A 
BRANCH   9  11
ATOM     11  C   UNL     1       4.667   3.925  18.879  0.00  0.00    +0.000 C 
ATOM     12  O   UNL     1       5.163   2.974  19.482  0.00  0.00    +0.000 OA
ATOM     13  N   UNL     1       3.455   4.505  19.262  0.00  0.00    +0.000 N 
ATOM     14  C   UNL     1       2.813   5.696  18.686  0.00  0.00    +0.000 C 
ATOM     15  C   UNL     1       2.256   6.627  19.767  0.00  0.00    +0.000 C 
ATOM     16  O   UNL     1       1.406   5.924  20.680  0.00  0.00    +0.000 OA
ATOM     17  C   UNL     1       2.137   4.868  21.324  0.00  0.00    +0.000 C 
ATOM     18  C   UNL     1       2.646   3.850  20.297  0.00  0.00    +0.000 C 
ENDBRANCH   9  11
ENDBRANCH   3   5
BRANCH   2  19
ATOM     19  C   UNL     1       8.328   9.551  17.954  0.00  0.00    +0.000 C 
BRANCH  19  20
ATOM     20  C   UNL     1       9.151   9.909  19.185  0.00  0.00    +0.000 C 
BRANCH  20  21
ATOM     21  N   UNL     1       9.833  11.192  19.030  0.00  0.00    +0.000 N 
ATOM     22  N   UNL     1      10.442  11.395  17.825  0.00  0.00    +0.000 NA
ATOM     23  N   UNL     1      11.057  12.452  17.573  0.00  0.00    +0.000 NA
ATOM     24  C   UNL     1      11.103  13.477  18.525  0.00  0.00    +0.000 A 
ATOM     25  C   UNL     1      11.728  14.685  18.189  0.00  0.00    +0.000 A 
ATOM     26  C   UNL     1      11.791  15.738  19.108  0.00  0.00    +0.000 A 
ATOM     27  C   UNL     1      11.232  15.590  20.377  0.00  0.00    +0.000 A 
ATOM     28  C   UNL     1      10.613  14.390  20.725  0.00  0.00    +0.000 A 
ATOM     29  C   UNL     1      10.557  13.352  19.791  0.00  0.00    +0.000 A 
ATOM     30  C   UNL     1       9.902  12.079  20.089  0.00  0.00    +0.000 A 
ATOM     31  O   UNL     1       9.445  11.859  21.204  0.00  0.00    +0.000 OA
ENDBRANCH  20  21
ENDBRANCH  19  20
ENDBRANCH   2  19
TORSDOF 5
ENDMDL
MODEL 7
REMARK VINA RESULT:      -8.7      1.083      1.529
REMARK  Name = 
REMARK  5 active torsions:
REMARK  status: ('A' for Active; 'I' for Inactive)
REMARK    1  A    between atoms: C_2  and  C_3
REMARK    2  A    between atoms: C_3  and  C_4
REMARK    3  A    between atoms: C_4  and  N_5
REMARK    4  A    between atoms: N_16  and  C_17
REMARK    5  A    between atoms: C_21  and  C_22
REMARK                            x       y       z     vdW  Elec       q    Type
REMARK                         _______ _______ _______ _____ _____    ______ ____
ROOT
ATOM      1  O   UNL     1       0.510   4.794  20.352  0.00  0.00    +0.000 OA
ATOM      2  C   UNL     1       1.715   4.803  20.594  0.00  0.00    +0.000 C 
ATOM      3  N   UNL     1       2.608   5.799  20.234  0.00  0.00    +0.000 N 
ATOM      4  H   UNL     1       3.597   5.586  20.294  0.00  0.00    +0.000 HD
ENDROOT
BRANCH   3   5
ATOM      5  C   UNL     1       2.269   7.039  19.642  0.00  0.00    +0.000 A 
ATOM      6  C   UNL     1       2.598   7.361  18.324  0.00  0.00    +0.000 A 
ATOM      7  C   UNL     1       2.207   8.582  17.765  0.00  0.00    +0.000 A 
ATOM      8  C   UNL     1       1.502   9.503  18.531  0.00  0.00    +0.000 A 
ATOM      9  C   UNL     1       1.239   9.239  19.878  0.00  0.00    +0.000 A 
ATOM     10  C   UNL     1       1.561   7.975  20.410  0.00  0.00    +0.000 A 
BRANCH   9  11
ATOM     11  C   UNL     1       0.607  10.253  20.768  0.00  0.00    +0.000 C 
ATOM     12  O   UNL     1       1.241  10.588  21.768  0.00  0.00    +0.000 OA
ATOM     13  N   UNL     1      -0.627  10.819  20.439  0.00  0.00    +0.000 N 
ATOM     14  C   UNL     1      -1.429  10.575  19.230  0.00  0.00    +0.000 C 
ATOM     15  C   UNL     1      -1.999  11.872  18.648  0.00  0.00    +0.000 C 
ATOM     16  O   UNL     1      -2.703  12.628  19.638  0.00  0.00    +0.000 OA
ATOM     17  C   UNL     1      -1.822  12.967  20.723  0.00  0.00    +0.000 C 
ATOM     18  C   UNL     1      -1.287  11.704  21.407  0.00  0.00    +0.000 C 
ENDBRANCH   9  11
ENDBRANCH   3   5
BRANCH   2  19
ATOM     19  C   UNL     1       2.348   3.646  21.337  0.00  0.00    +0.000 C 
BRANCH  19  20
ATOM     20  C   UNL     1       2.755   2.563  20.346  0.00  0.00    +0.000 C 
BRANCH  20  21
ATOM     21  N   UNL     1       3.397   3.122  19.160  0.00  0.00    +0.000 N 
ATOM     22  N   UNL     1       2.608   3.213  18.049  0.00  0.00    +0.000 NA
ATOM     23  N   UNL     1       3.043   3.674  16.973  0.00  0.00    +0.000 NA
ATOM     24  C   UNL     1       4.358   4.146  16.898  0.00  0.00    +0.000 A 
ATOM     25  C   UNL     1       4.799   4.735  15.706  0.00  0.00    +0.000 A 
ATOM     26  C   UNL     1       6.104   5.226  15.589  0.00  0.00    +0.000 A 
ATOM     27  C   UNL     1       6.984   5.129  16.666  0.00  0.00    +0.000 A 
ATOM     28  C   UNL     1       6.560   4.538  17.855  0.00  0.00    +0.000 A 
ATOM     29  C   UNL     1       5.251   4.058  17.953  0.00  0.00    +0.000 A 
ATOM     30  C   UNL     1       4.740   3.451  19.181  0.00  0.00    +0.000 A 
ATOM     31  O   UNL     1       5.478   3.277  20.144  0.00  0.00    +0.000 OA
ENDBRANCH  20  21
ENDBRANCH  19  20
ENDBRANCH   2  19
TORSDOF 5
ENDMDL
MODEL 8
REMARK VINA RESULT:      -8.6      6.032      8.799
REMARK  Name = 
REMARK  5 active torsions:
REMARK  status: ('A' for Active; 'I' for Inactive)
REMARK    1  A    between atoms: C_2  and  C_3
REMARK    2  A    between atoms: C_3  and  C_4
REMARK    3  A    between atoms: C_4  and  N_5
REMARK    4  A    between atoms: N_16  and  C_17
REMARK    5  A    between atoms: C_21  and  C_22
REMARK                            x       y       z     vdW  Elec       q    Type
REMARK                         _______ _______ _______ _____ _____    ______ ____
ROOT
ATOM      1  O   UNL     1       8.123   7.008  18.766  0.00  0.00    +0.000 OA
ATOM      2  C   UNL     1       7.811   7.734  17.825  0.00  0.00    +0.000 C 
ATOM      3  N   UNL     1       6.947   7.400  16.794  0.00  0.00    +0.000 N 
ATOM      4  H   UNL     1       6.947   7.994  15.973  0.00  0.00    +0.000 HD
ENDROOT
BRANCH   3   5
ATOM      5  C   UNL     1       6.174   6.217  16.713  0.00  0.00    +0.000 A 
ATOM      6  C   UNL     1       6.500   5.160  15.861  0.00  0.00    +0.000 A 
ATOM      7  C   UNL     1       5.732   3.992  15.843  0.00  0.00    +0.000 A 
ATOM      8  C   UNL     1       4.614   3.881  16.662  0.00  0.00    +0.000 A 
ATOM      9  C   UNL     1       4.219   4.961  17.457  0.00  0.00    +0.000 A 
ATOM     10  C   UNL     1       5.043   6.101  17.533  0.00  0.00    +0.000 A 
BRANCH   9  11
ATOM     11  C   UNL     1       2.955   4.934  18.245  0.00  0.00    +0.000 C 
ATOM     12  O   UNL     1       1.953   5.405  17.706  0.00  0.00    +0.000 OA
ATOM     13  N   UNL     1       2.919   4.355  19.516  0.00  0.00    +0.000 N 
ATOM     14  C   UNL     1       4.018   3.678  20.220  0.00  0.00    +0.000 C 
ATOM     15  C   UNL     1       3.554   2.387  20.901  0.00  0.00    +0.000 C 
ATOM     16  O   UNL     1       2.415   2.613  21.737  0.00  0.00    +0.000 OA
ATOM     17  C   UNL     1       1.323   3.132  20.958  0.00  0.00    +0.000 C 
ATOM     18  C   UNL     1       1.698   4.476  20.321  0.00  0.00    +0.000 C 
ENDBRANCH   9  11
ENDBRANCH   3   5
BRANCH   2  19
ATOM     19  C   UNL     1       8.395   9.126  17.714  0.00  0.00    +0.000 C 
BRANCH  19  20
ATOM     20  C   UNL     1       8.675   9.677  19.106  0.00  0.00    +0.000 C 
BRANCH  20  21
ATOM     21  N   UNL     1       9.570  10.830  19.066  0.00  0.00    +0.000 N 
ATOM     22  N   UNL     1      10.613  10.800  19.947  0.00  0.00    +0.000 NA
ATOM     23  N   UNL     1      11.446  11.729  20.007  0.00  0.00    +0.000 NA
ATOM     24  C   UNL     1      11.342  12.817  19.134  0.00  0.00    +0.000 A 
ATOM     25  C   UNL     1      12.333  13.806  19.164  0.00  0.00    +0.000 A 
ATOM     26  C   UNL     1      12.272  14.908  18.304  0.00  0.00    +0.000 A 
ATOM     27  C   UNL     1      11.212  15.033  17.407  0.00  0.00    +0.000 A 
ATOM     28  C   UNL     1      10.215  14.060  17.373  0.00  0.00    +0.000 A 
ATOM     29  C   UNL     1      10.297  12.964  18.237  0.00  0.00    +0.000 A 
ATOM     30  C   UNL     1       9.296  11.899  18.231  0.00  0.00    +0.000 A 
ATOM     31  O   UNL     1       8.307  11.976  17.513  0.00  0.00    +0.000 OA
ENDBRANCH  20  21
ENDBRANCH  19  20
ENDBRANCH   2  19
TORSDOF 5
ENDMDL
MODEL 9
REMARK VINA RESULT:      -8.5      6.760      8.448
REMARK  Name = 
REMARK  5 active torsions:
REMARK  status: ('A' for Active; 'I' for Inactive)
REMARK    1  A    between atoms: C_2  and  C_3
REMARK    2  A    between atoms: C_3  and  C_4
REMARK    3  A    between atoms: C_4  and  N_5
REMARK    4  A    between atoms: N_16  and  C_17
REMARK    5  A    between atoms: C_21  and  C_22
REMARK                            x       y       z     vdW  Elec       q    Type
REMARK                         _______ _______ _______ _____ _____    ______ ____
ROOT
ATOM      1  O   UNL     1       8.453   7.149  19.074  0.00  0.00    +0.000 OA
ATOM      2  C   UNL     1       8.026   7.736  18.082  0.00  0.00    +0.000 C 
ATOM      3  N   UNL     1       8.140   9.094  17.831  0.00  0.00    +0.000 N 
ATOM      4  H   UNL     1       7.558   9.485  17.099  0.00  0.00    +0.000 HD
ENDROOT
BRANCH   3   5
ATOM      5  C   UNL     1       8.879  10.019  18.606  0.00  0.00    +0.000 A 
ATOM      6  C   UNL     1       8.848  10.029  20.002  0.00  0.00    +0.000 A 
ATOM      7  C   UNL     1       9.627  10.934  20.730  0.00  0.00    +0.000 A 
ATOM      8  C   UNL     1      10.428  11.855  20.064  0.00  0.00    +0.000 A 
ATOM      9  C   UNL     1      10.405  11.922  18.668  0.00  0.00    +0.000 A 
ATOM     10  C   UNL     1       9.685  10.954  17.942  0.00  0.00    +0.000 A 
BRANCH   9  11
ATOM     11  C   UNL     1      11.142  12.981  17.922  0.00  0.00    +0.000 C 
ATOM     12  O   UNL     1      12.059  12.610  17.190  0.00  0.00    +0.000 OA
ATOM     13  N   UNL     1      10.762  14.321  18.027  0.00  0.00    +0.000 N 
ATOM     14  C   UNL     1       9.630  14.872  18.786  0.00  0.00    +0.000 C 
ATOM     15  C   UNL     1       8.867  15.934  17.989  0.00  0.00    +0.000 C 
ATOM     16  O   UNL     1       9.745  16.947  17.487  0.00  0.00    +0.000 OA
ATOM     17  C   UNL     1      10.738  16.362  16.627  0.00  0.00    +0.000 C 
ATOM     18  C   UNL     1      11.597  15.351  17.395  0.00  0.00    +0.000 C 
ENDBRANCH   9  11
ENDBRANCH   3   5
BRANCH   2  19
ATOM     19  C   UNL     1       7.288   6.970  17.006  0.00  0.00    +0.000 C 
BRANCH  19  20
ATOM     20  C   UNL     1       5.786   7.155  17.184  0.00  0.00    +0.000 C 
BRANCH  20  21
ATOM     21  N   UNL     1       5.188   6.063  17.947  0.00  0.00    +0.000 N 
ATOM     22  N   UNL     1       5.957   4.941  18.074  0.00  0.00    +0.000 NA
ATOM     23  N   UNL     1       5.555   3.941  18.705  0.00  0.00    +0.000 NA
ATOM     24  C   UNL     1       4.304   3.967  19.331  0.00  0.00    +0.000 A 
ATOM     25  C   UNL     1       3.909   2.865  20.100  0.00  0.00    +0.000 A 
ATOM     26  C   UNL     1       2.670   2.852  20.749  0.00  0.00    +0.000 A 
ATOM     27  C   UNL     1       1.809   3.942  20.630  0.00  0.00    +0.000 A 
ATOM     28  C   UNL     1       2.187   5.042  19.861  0.00  0.00    +0.000 A 
ATOM     29  C   UNL     1       3.432   5.038  19.224  0.00  0.00    +0.000 A 
ATOM     30  C   UNL     1       3.894   6.170  18.424  0.00  0.00    +0.000 A 
ATOM     31  O   UNL     1       3.164   7.134  18.227  0.00  0.00    +0.000 OA
ENDBRANCH  20  21
ENDBRANCH  19  20
ENDBRANCH   2  19
TORSDOF 5
ENDMDL
