MODEL 1
REMARK VINA RESULT:      -9.7      0.000      0.000
REMARK  Name = 
REMARK  5 active torsions:
REMARK  status: ('A' for Active; 'I' for Inactive)
REMARK    1  A    between atoms: C_2  and  C_3
REMARK    2  A    between atoms: C_3  and  C_4
REMARK    3  A    between atoms: C_4  and  C_5
REMARK    4  A    between atoms: C_5  and  C_6
REMARK    5  A    between atoms: C_18  and  C_19
REMARK                            x       y       z     vdW  Elec       q    Type
REMARK                         _______ _______ _______ _____ _____    ______ ____
ROOT
ATOM      1  O   UNL     1       7.810   5.818  18.702  0.00  0.00    +0.000 OA
ATOM      2  C   UNL     1       7.069   6.522  18.017  0.00  0.00    +0.000 C 
ATOM      3  N   UNL     1       5.714   6.292  17.849  0.00  0.00    +0.000 N 
ATOM      4  C   UNL     1       4.779   7.086  17.026  0.00  0.00    +0.000 C 
ATOM      5  C   UNL     1       3.350   6.593  17.356  0.00  0.00    +0.000 C 
ATOM      6  C   UNL     1       3.652   5.284  18.047  0.00  0.00    +0.000 A 
ATOM      7  C   UNL     1       2.753   4.302  18.446  0.00  0.00    +0.000 A 
ATOM      8  C   UNL     1       3.235   3.223  19.191  0.00  0.00    +0.000 A 
ATOM      9  C   UNL     1       4.591   3.141  19.533  0.00  0.00    +0.000 A 
ATOM     10  C   UNL     1       5.488   4.128  19.117  0.00  0.00    +0.000 A 
ATOM     11  C   UNL     1       5.009   5.189  18.366  0.00  0.00    +0.000 A 
ENDROOT
BRANCH   5  12
ATOM     12  C   UNL     1       2.598   7.570  18.246  0.00  0.00    +0.000 A 
ATOM     13  C   UNL     1       2.096   8.770  17.721  0.00  0.00    +0.000 A 
ATOM     14  C   UNL     1       1.348   9.637  18.523  0.00  0.00    +0.000 A 
ATOM     15  C   UNL     1       1.098   9.319  19.856  0.00  0.00    +0.000 A 
ATOM     16  C   UNL     1       1.617   8.149  20.399  0.00  0.00    +0.000 A 
ATOM     17  C   UNL     1       2.367   7.286  19.605  0.00  0.00    +0.000 A 
ENDBRANCH   5  12
BRANCH   2  18
ATOM     18  C   UNL     1       7.623   7.736  17.287  0.00  0.00    +0.000 C 
BRANCH  18  19
ATOM     19  C   UNL     1       8.364   8.662  18.258  0.00  0.00    +0.000 C 
BRANCH  19  20
ATOM     20  C   UNL     1       7.934  10.120  18.117  0.00  0.00    +0.000 C 
BRANCH  20  21
ATOM     21  C   UNL     1       9.114  11.061  18.237  0.00  0.00    +0.000 A 
ATOM     22  C   UNL     1      10.190  10.735  19.104  0.00  0.00    +0.000 A 
ATOM     23  C   UNL     1      11.292  11.584  19.260  0.00  0.00    +0.000 A 
ATOM     24  C   UNL     1      11.281  12.752  18.537  0.00  0.00    +0.000 A 
ATOM     25  N   UNL     1      12.218  13.775  18.485  0.00  0.00    +0.000 N 
ATOM     26  C   UNL     1      11.759  14.763  17.601  0.00  0.00    +0.000 A 
ATOM     27  O   UNL     1      12.324  15.801  17.313  0.00  0.00    +0.000 OA
ATOM     28  N   UNL     1      10.519  14.320  17.114  0.00  0.00    +0.000 N 
ATOM     29  C   UNL     1      10.228  13.086  17.688  0.00  0.00    +0.000 A 
ATOM     30  C   UNL     1       9.132  12.270  17.517  0.00  0.00    +0.000 A 
ATOM     31  H   UNL     1      13.088  13.835  18.988  0.00  0.00    +0.000 HD
ATOM     32  H   UNL     1       9.960  14.836  16.456  0.00  0.00    +0.000 HD
ENDBRANCH  20  21
ENDBRANCH  19  20
ENDBRANCH  18  19
ENDBRANCH   2  18
TORSDOF 5
ENDMDL
MODEL 2
REMARK VINA RESULT:      -9.7      1.060      1.134
REMARK  Name = 
REMARK  5 active torsions:
REMARK  status: ('A' for Active; 'I' for Inactive)
REMARK    1  A    between atoms: C_2  and  C_3
REMARK    2  A    between atoms: C_3  and  C_4
REMARK    3  A    between atoms: C_4  and  C_5
REMARK    4  A    between atoms: C_5  and  C_6
REMARK    5  A    between atoms: C_18  and  C_19
REMARK                            x       y       z     vdW  Elec       q    Type
REMARK                         _______ _______ _______ _____ _____    ______ ____
ROOT
ATOM      1  O   UNL     1       7.517   5.134  18.830  0.00  0.00    +0.000 OA
ATOM      2  C   UNL     1       6.820   5.857  18.120  0.00  0.00    +0.000 C 
ATOM      3  N   UNL     1       5.447   5.735  17.995  0.00  0.00    +0.000 N 
ATOM      4  C   UNL     1       4.560   6.556  17.145  0.00  0.00    +0.000 C 
ATOM      5  C   UNL     1       3.105   6.207  17.535  0.00  0.00    +0.000 C 
ATOM      6  C   UNL     1       3.313   4.920  18.297  0.00  0.00    +0.000 A 
ATOM      7  C   UNL     1       2.346   4.043  18.774  0.00  0.00    +0.000 A 
ATOM      8  C   UNL     1       2.755   2.972  19.572  0.00  0.00    +0.000 A 
ATOM      9  C   UNL     1       4.108   2.794  19.889  0.00  0.00    +0.000 A 
ATOM     10  C   UNL     1       5.074   3.675  19.396  0.00  0.00    +0.000 A 
ATOM     11  C   UNL     1       4.666   4.728  18.593  0.00  0.00    +0.000 A 
ENDROOT
BRANCH   5  12
ATOM     12  C   UNL     1       2.460   7.295  18.381  0.00  0.00    +0.000 A 
ATOM     13  C   UNL     1       2.020   8.489  17.790  0.00  0.00    +0.000 A 
ATOM     14  C   UNL     1       1.368   9.460  18.556  0.00  0.00    +0.000 A 
ATOM     15  C   UNL     1       1.156   9.255  19.917  0.00  0.00    +0.000 A 
ATOM     16  C   UNL     1       1.616   8.091  20.523  0.00  0.00    +0.000 A 
ATOM     17  C   UNL     1       2.270   7.124  19.764  0.00  0.00    +0.000 A 
ENDBRANCH   5  12
BRANCH   2  18
ATOM     18  C   UNL     1       7.455   6.976  17.307  0.00  0.00    +0.000 C 
BRANCH  18  19
ATOM     19  C   UNL     1       8.049   8.047  18.227  0.00  0.00    +0.000 C 
BRANCH  19  20
ATOM     20  C   UNL     1       8.149   9.411  17.548  0.00  0.00    +0.000 C 
BRANCH  20  21
ATOM     21  C   UNL     1       8.911  10.402  18.400  0.00  0.00    +0.000 A 
ATOM     22  C   UNL     1       9.136  10.122  19.775  0.00  0.00    +0.000 A 
ATOM     23  C   UNL     1       9.820  11.018  20.605  0.00  0.00    +0.000 A 
ATOM     24  C   UNL     1      10.258  12.185  20.029  0.00  0.00    +0.000 A 
ATOM     25  N   UNL     1      10.954  13.249  20.589  0.00  0.00    +0.000 N 
ATOM     26  C   UNL     1      11.175  14.217  19.598  0.00  0.00    +0.000 A 
ATOM     27  O   UNL     1      11.752  15.278  19.734  0.00  0.00    +0.000 OA
ATOM     28  N   UNL     1      10.598  13.720  18.418  0.00  0.00    +0.000 N 
ATOM     29  C   UNL     1      10.038  12.474  18.683  0.00  0.00    +0.000 A 
ATOM     30  C   UNL     1       9.368  11.611  17.845  0.00  0.00    +0.000 A 
ATOM     31  H   UNL     1      11.258  13.346  21.544  0.00  0.00    +0.000 HD
ATOM     32  H   UNL     1      10.609  14.211  17.541  0.00  0.00    +0.000 HD
ENDBRANCH  20  21
ENDBRANCH  19  20
ENDBRANCH  18  19
ENDBRANCH   2  18
TORSDOF 5
ENDMDL
MODEL 3
REMARK VINA RESULT:      -9.3      1.539      1.947
REMARK  Name = 
REMARK  5 active torsions:
REMARK  status: ('A' for Active; 'I' for Inactive)
REMARK    1  A    between atoms: C_2  and  C_3
REMARK    2  A    between atoms: C_3  and  C_4
REMARK    3  A    between atoms: C_4  and  C_5
REMARK    4  A    between atoms: C_5  and  C_6
REMARK    5  A    between atoms: C_18  and  C_19
REMARK                            x       y       z     vdW  Elec       q    Type
REMARK                         _______ _______ _______ _____ _____    ______ ____
ROOT
ATOM      1  O   UNL     1       7.433   5.030  18.667  0.00  0.00    +0.000 OA
ATOM      2  C   UNL     1       6.730   5.757  17.965  0.00  0.00    +0.000 C 
ATOM      3  N   UNL     1       5.352   5.667  17.888  0.00  0.00    +0.000 N 
ATOM      4  C   UNL     1       4.457   6.494  17.052  0.00  0.00    +0.000 C 
ATOM      5  C   UNL     1       3.008   6.190  17.496  0.00  0.00    +0.000 C 
ATOM      6  C   UNL     1       3.209   4.914  18.279  0.00  0.00    +0.000 A 
ATOM      7  C   UNL     1       2.237   4.072  18.806  0.00  0.00    +0.000 A 
ATOM      8  C   UNL     1       2.646   3.008  19.613  0.00  0.00    +0.000 A 
ATOM      9  C   UNL     1       4.004   2.801  19.888  0.00  0.00    +0.000 A 
ATOM     10  C   UNL     1       4.974   3.647  19.344  0.00  0.00    +0.000 A 
ATOM     11  C   UNL     1       4.566   4.693  18.533  0.00  0.00    +0.000 A 
ENDROOT
BRANCH   5  12
ATOM     12  C   UNL     1       2.420   7.312  18.340  0.00  0.00    +0.000 A 
ATOM     13  C   UNL     1       2.020   8.517  17.743  0.00  0.00    +0.000 A 
ATOM     14  C   UNL     1       1.419   9.521  18.507  0.00  0.00    +0.000 A 
ATOM     15  C   UNL     1       1.218   9.338  19.874  0.00  0.00    +0.000 A 
ATOM     16  C   UNL     1       1.639   8.162  20.485  0.00  0.00    +0.000 A 
ATOM     17  C   UNL     1       2.242   7.162  19.728  0.00  0.00    +0.000 A 
ENDBRANCH   5  12
BRANCH   2  18
ATOM     18  C   UNL     1       7.365   6.841  17.107  0.00  0.00    +0.000 C 
BRANCH  18  19
ATOM     19  C   UNL     1       7.371   8.184  17.846  0.00  0.00    +0.000 C 
BRANCH  19  20
ATOM     20  C   UNL     1       8.694   8.453  18.559  0.00  0.00    +0.000 C 
BRANCH  20  21
ATOM     21  C   UNL     1       8.910   9.933  18.789  0.00  0.00    +0.000 A 
ATOM     22  C   UNL     1       8.612  10.858  17.753  0.00  0.00    +0.000 A 
ATOM     23  C   UNL     1       8.815  12.234  17.915  0.00  0.00    +0.000 A 
ATOM     24  C   UNL     1       9.321  12.647  19.123  0.00  0.00    +0.000 A 
ATOM     25  N   UNL     1       9.623  13.926  19.571  0.00  0.00    +0.000 N 
ATOM     26  C   UNL     1      10.120  13.841  20.881  0.00  0.00    +0.000 A 
ATOM     27  O   UNL     1      10.484  14.765  21.582  0.00  0.00    +0.000 OA
ATOM     28  N   UNL     1      10.115  12.479  21.223  0.00  0.00    +0.000 N 
ATOM     29  C   UNL     1       9.623  11.748  20.145  0.00  0.00    +0.000 A 
ATOM     30  C   UNL     1       9.435  10.391  20.011  0.00  0.00    +0.000 A 
ATOM     31  H   UNL     1       9.522  14.791  19.067  0.00  0.00    +0.000 HD
ATOM     32  H   UNL     1      10.421  12.125  22.113  0.00  0.00    +0.000 HD
ENDBRANCH  20  21
ENDBRANCH  19  20
ENDBRANCH  18  19
ENDBRANCH   2  18
TORSDOF 5
ENDMDL
MODEL 4
REMARK VINA RESULT:      -9.1      4.935      8.196
REMARK  Name = 
REMARK  5 active torsions:
REMARK  status: ('A' for Active; 'I' for Inactive)
REMARK    1  A    between atoms: C_2  and  C_3
REMARK    2  A    between atoms: C_3  and  C_4
REMARK    3  A    between atoms: C_4  and  C_5
REMARK    4  A    between atoms: C_5  and  C_6
REMARK    5  A    between atoms: C_18  and  C_19
REMARK                            x       y       z     vdW  Elec       q    Type
REMARK                         _______ _______ _______ _____ _____    ______ ____
ROOT
ATOM      1  O   UNL     1       5.277   2.841  19.686  0.00  0.00    +0.000 OA
ATOM      2  C   UNL     1       4.673   3.113  18.649  0.00  0.00    +0.000 C 
ATOM      3  N   UNL     1       5.010   4.154  17.802  0.00  0.00    +0.000 N 
ATOM      4  C   UNL     1       4.314   4.543  16.558  0.00  0.00    +0.000 C 
ATOM      5  C   UNL     1       5.203   5.589  15.846  0.00  0.00    +0.000 C 
ATOM      6  C   UNL     1       6.134   5.985  16.968  0.00  0.00    +0.000 A 
ATOM      7  C   UNL     1       7.073   7.009  16.979  0.00  0.00    +0.000 A 
ATOM      8  C   UNL     1       7.926   7.119  18.079  0.00  0.00    +0.000 A 
ATOM      9  C   UNL     1       7.840   6.210  19.142  0.00  0.00    +0.000 A 
ATOM     10  C   UNL     1       6.886   5.190  19.127  0.00  0.00    +0.000 A 
ATOM     11  C   UNL     1       6.032   5.093  18.040  0.00  0.00    +0.000 A 
ENDROOT
BRANCH   5  12
ATOM     12  C   UNL     1       5.938   5.000  14.651  0.00  0.00    +0.000 A 
ATOM     13  C   UNL     1       5.348   3.984  13.884  0.00  0.00    +0.000 A 
ATOM     14  C   UNL     1       5.994   3.489  12.747  0.00  0.00    +0.000 A 
ATOM     15  C   UNL     1       7.236   3.995  12.369  0.00  0.00    +0.000 A 
ATOM     16  C   UNL     1       7.847   4.978  13.139  0.00  0.00    +0.000 A 
ATOM     17  C   UNL     1       7.209   5.470  14.274  0.00  0.00    +0.000 A 
ENDBRANCH   5  12
BRANCH   2  18
ATOM     18  C   UNL     1       3.472   2.283  18.220  0.00  0.00    +0.000 C 
BRANCH  18  19
ATOM     19  C   UNL     1       2.179   3.097  18.337  0.00  0.00    +0.000 C 
BRANCH  19  20
ATOM     20  C   UNL     1       1.989   3.693  19.730  0.00  0.00    +0.000 C 
BRANCH  20  21
ATOM     21  C   UNL     1       1.894   5.202  19.681  0.00  0.00    +0.000 A 
ATOM     22  C   UNL     1       2.147   5.884  18.460  0.00  0.00    +0.000 A 
ATOM     23  C   UNL     1       2.090   7.280  18.372  0.00  0.00    +0.000 A 
ATOM     24  C   UNL     1       1.782   7.961  19.525  0.00  0.00    +0.000 A 
ATOM     25  N   UNL     1       1.654   9.326  19.745  0.00  0.00    +0.000 N 
ATOM     26  C   UNL     1       1.330   9.537  21.094  0.00  0.00    +0.000 A 
ATOM     27  O   UNL     1       1.144  10.609  21.638  0.00  0.00    +0.000 OA
ATOM     28  N   UNL     1       1.263   8.270  21.693  0.00  0.00    +0.000 N 
ATOM     29  C   UNL     1       1.539   7.304  20.730  0.00  0.00    +0.000 A 
ATOM     30  C   UNL     1       1.590   5.933  20.844  0.00  0.00    +0.000 A 
ATOM     31  H   UNL     1       1.774  10.068  19.076  0.00  0.00    +0.000 HD
ATOM     32  H   UNL     1       1.045   8.120  22.663  0.00  0.00    +0.000 HD
ENDBRANCH  20  21
ENDBRANCH  19  20
ENDBRANCH  18  19
ENDBRANCH   2  18
TORSDOF 5
ENDMDL
MODEL 5
REMARK VINA RESULT:      -9.1      5.847      9.487
REMARK  Name = 
REMARK  5 active torsions:
REMARK  status: ('A' for Active; 'I' for Inactive)
REMARK    1  A    between atoms: C_2  and  C_3
REMARK    2  A    between atoms: C_3  and  C_4
REMARK    3  A    between atoms: C_4  and  C_5
REMARK    4  A    between atoms: C_5  and  C_6
REMARK    5  A    between atoms: C_18  and  C_19
REMARK                            x       y       z     vdW  Elec       q    Type
REMARK                         _______ _______ _______ _____ _____    ______ ____
ROOT
ATOM      1  O   UNL     1       2.223   7.544  20.189  0.00  0.00    +0.000 OA
ATOM      2  C   UNL     1       1.855   8.243  19.246  0.00  0.00    +0.000 C 
ATOM      3  N   UNL     1       1.028   9.345  19.370  0.00  0.00    +0.000 N 
ATOM      4  C   UNL     1       0.536  10.208  18.276  0.00  0.00    +0.000 C 
ATOM      5  C   UNL     1      -0.138  11.435  18.933  0.00  0.00    +0.000 C 
ATOM      6  C   UNL     1      -0.312  10.943  20.351  0.00  0.00    +0.000 A 
ATOM      7  C   UNL     1      -1.003  11.554  21.389  0.00  0.00    +0.000 A 
ATOM      8  C   UNL     1      -0.926  10.988  22.664  0.00  0.00    +0.000 A 
ATOM      9  C   UNL     1      -0.164   9.834  22.887  0.00  0.00    +0.000 A 
ATOM     10  C   UNL     1       0.518   9.220  21.833  0.00  0.00    +0.000 A 
ATOM     11  C   UNL     1       0.428   9.777  20.568  0.00  0.00    +0.000 A 
ENDROOT
BRANCH   5  12
ATOM     12  C   UNL     1       0.729  12.683  18.845  0.00  0.00    +0.000 A 
ATOM     13  C   UNL     1       2.097  12.579  18.552  0.00  0.00    +0.000 A 
ATOM     14  C   UNL     1       2.879  13.728  18.406  0.00  0.00    +0.000 A 
ATOM     15  C   UNL     1       2.309  14.990  18.557  0.00  0.00    +0.000 A 
ATOM     16  C   UNL     1       0.962  15.107  18.880  0.00  0.00    +0.000 A 
ATOM     17  C   UNL     1       0.180  13.965  19.031  0.00  0.00    +0.000 A 
ENDBRANCH   5  12
BRANCH   2  18
ATOM     18  C   UNL     1       2.311   7.922  17.830  0.00  0.00    +0.000 C 
BRANCH  18  19
ATOM     19  C   UNL     1       3.789   7.517  17.814  0.00  0.00    +0.000 C 
BRANCH  19  20
ATOM     20  C   UNL     1       3.995   6.075  17.355  0.00  0.00    +0.000 C 
BRANCH  20  21
ATOM     21  C   UNL     1       3.106   5.117  18.119  0.00  0.00    +0.000 A 
ATOM     22  C   UNL     1       2.018   4.487  17.458  0.00  0.00    +0.000 A 
ATOM     23  C   UNL     1       1.158   3.609  18.129  0.00  0.00    +0.000 A 
ATOM     24  C   UNL     1       1.415   3.389  19.461  0.00  0.00    +0.000 A 
ATOM     25  N   UNL     1       0.748   2.583  20.374  0.00  0.00    +0.000 N 
ATOM     26  C   UNL     1       1.385   2.690  21.620  0.00  0.00    +0.000 A 
ATOM     27  O   UNL     1       1.070   2.124  22.649  0.00  0.00    +0.000 OA
ATOM     28  N   UNL     1       2.457   3.580  21.447  0.00  0.00    +0.000 N 
ATOM     29  C   UNL     1       2.475   4.007  20.122  0.00  0.00    +0.000 A 
ATOM     30  C   UNL     1       3.333   4.875  19.486  0.00  0.00    +0.000 A 
ATOM     31  H   UNL     1      -0.063   2.012  20.208  0.00  0.00    +0.000 HD
ATOM     32  H   UNL     1       3.090   3.842  22.182  0.00  0.00    +0.000 HD
ENDBRANCH  20  21
ENDBRANCH  19  20
ENDBRANCH  18  19
ENDBRANCH   2  18
TORSDOF 5
ENDMDL
MODEL 6
REMARK VINA RESULT:      -9.1      5.349      7.881
REMARK  Name = 
REMARK  5 active torsions:
REMARK  status: ('A' for Active; 'I' for Inactive)
REMARK    1  A    between atoms: C_2  and  C_3
REMARK    2  A    between atoms: C_3  and  C_4
REMARK    3  A    between atoms: C_4  and  C_5
REMARK    4  A    between atoms: C_5  and  C_6
REMARK    5  A    between atoms: C_18  and  C_19
REMARK                            x       y       z     vdW  Elec       q    Type
REMARK                         _______ _______ _______ _____ _____    ______ ____
ROOT
ATOM      1  O   UNL     1       1.851   7.228  20.910  0.00  0.00    +0.000 OA
ATOM      2  C   UNL     1       1.795   7.958  19.921  0.00  0.00    +0.000 C 
ATOM      3  N   UNL     1       1.150   9.182  19.894  0.00  0.00    +0.000 N 
ATOM      4  C   UNL     1       1.029  10.092  18.736  0.00  0.00    +0.000 C 
ATOM      5  C   UNL     1       0.448  11.425  19.263  0.00  0.00    +0.000 C 
ATOM      6  C   UNL     1      -0.078  10.995  20.612  0.00  0.00    +0.000 A 
ATOM      7  C   UNL     1      -0.850  11.732  21.502  0.00  0.00    +0.000 A 
ATOM      8  C   UNL     1      -1.118  11.186  22.759  0.00  0.00    +0.000 A 
ATOM      9  C   UNL     1      -0.613   9.928  23.114  0.00  0.00    +0.000 A 
ATOM     10  C   UNL     1       0.153   9.191  22.207  0.00  0.00    +0.000 A 
ATOM     11  C   UNL     1       0.405   9.730  20.956  0.00  0.00    +0.000 A 
ENDROOT
BRANCH   5  12
ATOM     12  C   UNL     1       1.507  12.513  19.362  0.00  0.00    +0.000 A 
ATOM     13  C   UNL     1       1.899  13.012  20.613  0.00  0.00    +0.000 A 
ATOM     14  C   UNL     1       2.918  13.964  20.709  0.00  0.00    +0.000 A 
ATOM     15  C   UNL     1       3.552  14.432  19.560  0.00  0.00    +0.000 A 
ATOM     16  C   UNL     1       3.151  13.971  18.311  0.00  0.00    +0.000 A 
ATOM     17  C   UNL     1       2.133  13.027  18.212  0.00  0.00    +0.000 A 
ENDBRANCH   5  12
BRANCH   2  18
ATOM     18  C   UNL     1       2.461   7.539  18.619  0.00  0.00    +0.000 C 
BRANCH  18  19
ATOM     19  C   UNL     1       2.570   6.013  18.531  0.00  0.00    +0.000 C 
BRANCH  19  20
ATOM     20  C   UNL     1       3.927   5.497  19.003  0.00  0.00    +0.000 C 
BRANCH  20  21
ATOM     21  C   UNL     1       4.923   5.434  17.865  0.00  0.00    +0.000 A 
ATOM     22  C   UNL     1       6.186   6.072  17.998  0.00  0.00    +0.000 A 
ATOM     23  C   UNL     1       7.130   6.056  16.965  0.00  0.00    +0.000 A 
ATOM     24  C   UNL     1       6.776   5.397  15.813  0.00  0.00    +0.000 A 
ATOM     25  N   UNL     1       7.492   5.213  14.637  0.00  0.00    +0.000 N 
ATOM     26  C   UNL     1       6.707   4.471  13.742  0.00  0.00    +0.000 A 
ATOM     27  O   UNL     1       7.015   4.126  12.617  0.00  0.00    +0.000 OA
ATOM     28  N   UNL     1       5.495   4.205  14.398  0.00  0.00    +0.000 N 
ATOM     29  C   UNL     1       5.539   4.772  15.669  0.00  0.00    +0.000 A 
ATOM     30  C   UNL     1       4.592   4.774  16.668  0.00  0.00    +0.000 A 
ATOM     31  H   UNL     1       8.417   5.548  14.425  0.00  0.00    +0.000 HD
ATOM     32  H   UNL     1       4.739   3.684  13.987  0.00  0.00    +0.000 HD
ENDBRANCH  20  21
ENDBRANCH  19  20
ENDBRANCH  18  19
ENDBRANCH   2  18
TORSDOF 5
ENDMDL
MODEL 7
REMARK VINA RESULT:      -9.0      1.338      1.628
REMARK  Name = 
REMARK  5 active torsions:
REMARK  status: ('A' for Active; 'I' for Inactive)
REMARK    1  A    between atoms: C_2  and  C_3
REMARK    2  A    between atoms: C_3  and  C_4
REMARK    3  A    between atoms: C_4  and  C_5
REMARK    4  A    between atoms: C_5  and  C_6
REMARK    5  A    between atoms: C_18  and  C_19
REMARK                            x       y       z     vdW  Elec       q    Type
REMARK                         _______ _______ _______ _____ _____    ______ ____
ROOT
ATOM      1  O   UNL     1       7.714   5.665  18.699  0.00  0.00    +0.000 OA
ATOM      2  C   UNL     1       6.961   6.355  18.012  0.00  0.00    +0.000 C 
ATOM      3  N   UNL     1       5.605   6.121  17.870  0.00  0.00    +0.000 N 
ATOM      4  C   UNL     1       4.655   6.897  17.046  0.00  0.00    +0.000 C 
ATOM      5  C   UNL     1       3.233   6.409  17.408  0.00  0.00    +0.000 C 
ATOM      6  C   UNL     1       3.547   5.114  18.120  0.00  0.00    +0.000 A 
ATOM      7  C   UNL     1       2.657   4.139  18.552  0.00  0.00    +0.000 A 
ATOM      8  C   UNL     1       3.151   3.076  19.311  0.00  0.00    +0.000 A 
ATOM      9  C   UNL     1       4.513   3.001  19.632  0.00  0.00    +0.000 A 
ATOM     10  C   UNL     1       5.402   3.981  19.183  0.00  0.00    +0.000 A 
ATOM     11  C   UNL     1       4.910   5.027  18.420  0.00  0.00    +0.000 A 
ENDROOT
BRANCH   5  12
ATOM     12  C   UNL     1       2.493   7.403  18.292  0.00  0.00    +0.000 A 
ATOM     13  C   UNL     1       2.250   7.111  19.642  0.00  0.00    +0.000 A 
ATOM     14  C   UNL     1       1.629   8.050  20.470  0.00  0.00    +0.000 A 
ATOM     15  C   UNL     1       1.238   9.286  19.958  0.00  0.00    +0.000 A 
ATOM     16  C   UNL     1       1.442   9.576  18.614  0.00  0.00    +0.000 A 
ATOM     17  C   UNL     1       2.056   8.641  17.786  0.00  0.00    +0.000 A 
ENDBRANCH   5  12
BRANCH   2  18
ATOM     18  C   UNL     1       7.502   7.556  17.250  0.00  0.00    +0.000 C 
BRANCH  18  19
ATOM     19  C   UNL     1       7.607   8.779  18.167  0.00  0.00    +0.000 C 
BRANCH  19  20
ATOM     20  C   UNL     1       9.049   9.240  18.362  0.00  0.00    +0.000 C 
BRANCH  20  21
ATOM     21  C   UNL     1       9.116  10.689  18.795  0.00  0.00    +0.000 A 
ATOM     22  C   UNL     1       9.313  11.006  20.166  0.00  0.00    +0.000 A 
ATOM     23  C   UNL     1       9.361  12.331  20.614  0.00  0.00    +0.000 A 
ATOM     24  C   UNL     1       9.204  13.312  19.666  0.00  0.00    +0.000 A 
ATOM     25  N   UNL     1       9.207  14.694  19.805  0.00  0.00    +0.000 N 
ATOM     26  C   UNL     1       9.005  15.275  18.544  0.00  0.00    +0.000 A 
ATOM     27  O   UNL     1       8.950  16.463  18.292  0.00  0.00    +0.000 OA
ATOM     28  N   UNL     1       8.881  14.217  17.630  0.00  0.00    +0.000 N 
ATOM     29  C   UNL     1       9.004  13.014  18.319  0.00  0.00    +0.000 A 
ATOM     30  C   UNL     1       8.951  11.720  17.852  0.00  0.00    +0.000 A 
ATOM     31  H   UNL     1       9.322  15.223  20.653  0.00  0.00    +0.000 HD
ATOM     32  H   UNL     1       8.729  14.344  16.645  0.00  0.00    +0.000 HD
ENDBRANCH  20  21
ENDBRANCH  19  20
ENDBRANCH  18  19
ENDBRANCH   2  18
TORSDOF 5
ENDMDL
MODEL 8
REMARK VINA RESULT:      -8.9      4.912      8.247
REMARK  Name = 
REMARK  5 active torsions:
REMARK  status: ('A' for Active; 'I' for Inactive)
REMARK    1  A    between atoms: C_2  and  C_3
REMARK    2  A    between atoms: C_3  and  C_4
REMARK    3  A    between atoms: C_4  and  C_5
REMARK    4  A    between atoms: C_5  and  C_6
REMARK    5  A    between atoms: C_18  and  C_19
REMARK                            x       y       z     vdW  Elec       q    Type
REMARK                         _______ _______ _______ _____ _____    ______ ____
ROOT
ATOM      1  O   UNL     1       5.213   2.546  19.574  0.00  0.00    +0.000 OA
ATOM      2  C   UNL     1       4.599   2.866  18.557  0.00  0.00    +0.000 C 
ATOM      3  N   UNL     1       4.922   3.953  17.763  0.00  0.00    +0.000 N 
ATOM      4  C   UNL     1       4.214   4.399  16.545  0.00  0.00    +0.000 C 
ATOM      5  C   UNL     1       5.089   5.488  15.883  0.00  0.00    +0.000 C 
ATOM      6  C   UNL     1       6.024   5.834  17.018  0.00  0.00    +0.000 A 
ATOM      7  C   UNL     1       6.954   6.865  17.075  0.00  0.00    +0.000 A 
ATOM      8  C   UNL     1       7.814   6.925  18.174  0.00  0.00    +0.000 A 
ATOM      9  C   UNL     1       7.743   5.962  19.189  0.00  0.00    +0.000 A 
ATOM     10  C   UNL     1       6.797   4.935  19.127  0.00  0.00    +0.000 A 
ATOM     11  C   UNL     1       5.937   4.887  18.042  0.00  0.00    +0.000 A 
ENDROOT
BRANCH   5  12
ATOM     12  C   UNL     1       5.821   4.968  14.654  0.00  0.00    +0.000 A 
ATOM     13  C   UNL     1       7.103   5.440  14.337  0.00  0.00    +0.000 A 
ATOM     14  C   UNL     1       7.802   4.914  13.246  0.00  0.00    +0.000 A 
ATOM     15  C   UNL     1       7.227   3.920  12.457  0.00  0.00    +0.000 A 
ATOM     16  C   UNL     1       5.943   3.467  12.740  0.00  0.00    +0.000 A 
ATOM     17  C   UNL     1       5.242   3.992  13.823  0.00  0.00    +0.000 A 
ENDBRANCH   5  12
BRANCH   2  18
ATOM     18  C   UNL     1       3.403   2.048  18.093  0.00  0.00    +0.000 C 
BRANCH  18  19
ATOM     19  C   UNL     1       2.390   1.876  19.230  0.00  0.00    +0.000 C 
BRANCH  19  20
ATOM     20  C   UNL     1       1.132   2.717  19.024  0.00  0.00    +0.000 C 
BRANCH  20  21
ATOM     21  C   UNL     1       1.413   4.192  19.213  0.00  0.00    +0.000 A 
ATOM     22  C   UNL     1       1.475   4.735  20.525  0.00  0.00    +0.000 A 
ATOM     23  C   UNL     1       1.713   6.097  20.747  0.00  0.00    +0.000 A 
ATOM     24  C   UNL     1       1.880   6.885  19.634  0.00  0.00    +0.000 A 
ATOM     25  N   UNL     1       2.127   8.248  19.539  0.00  0.00    +0.000 N 
ATOM     26  C   UNL     1       2.219   8.597  18.182  0.00  0.00    +0.000 A 
ATOM     27  O   UNL     1       2.427   9.705  17.729  0.00  0.00    +0.000 OA
ATOM     28  N   UNL     1       2.022   7.415  17.451  0.00  0.00    +0.000 N 
ATOM     29  C   UNL     1       1.816   6.365  18.342  0.00  0.00    +0.000 A 
ATOM     30  C   UNL     1       1.582   5.031  18.097  0.00  0.00    +0.000 A 
ATOM     31  H   UNL     1       2.223   8.907  20.293  0.00  0.00    +0.000 HD
ATOM     32  H   UNL     1       2.037   7.369  16.447  0.00  0.00    +0.000 HD
ENDBRANCH  20  21
ENDBRANCH  19  20
ENDBRANCH  18  19
ENDBRANCH   2  18
TORSDOF 5
ENDMDL
MODEL 9
REMARK VINA RESULT:      -8.9      5.255      8.130
REMARK  Name = 
REMARK  5 active torsions:
REMARK  status: ('A' for Active; 'I' for Inactive)
REMARK    1  A    between atoms: C_2  and  C_3
REMARK    2  A    between atoms: C_3  and  C_4
REMARK    3  A    between atoms: C_4  and  C_5
REMARK    4  A    between atoms: C_5  and  C_6
REMARK    5  A    between atoms: C_18  and  C_19
REMARK                            x       y       z     vdW  Elec       q    Type
REMARK                         _______ _______ _______ _____ _____    ______ ____
ROOT
ATOM      1  O   UNL     1       1.641   7.913  21.482  0.00  0.00    +0.000 OA
ATOM      2  C   UNL     1       1.485   8.381  20.354  0.00  0.00    +0.000 C 
ATOM      3  N   UNL     1       0.698   9.483  20.072  0.00  0.00    +0.000 N 
ATOM      4  C   UNL     1       0.455  10.079  18.741  0.00  0.00    +0.000 C 
ATOM      5  C   UNL     1      -0.274  11.423  18.970  0.00  0.00    +0.000 C 
ATOM      6  C   UNL     1      -0.728  11.264  20.402  0.00  0.00    +0.000 A 
ATOM      7  C   UNL     1      -1.570  12.095  21.129  0.00  0.00    +0.000 A 
ATOM      8  C   UNL     1      -1.755  11.831  22.488  0.00  0.00    +0.000 A 
ATOM      9  C   UNL     1      -1.099  10.756  23.102  0.00  0.00    +0.000 A 
ATOM     10  C   UNL     1      -0.262   9.919  22.359  0.00  0.00    +0.000 A 
ATOM     11  C   UNL     1      -0.092  10.176  21.009  0.00  0.00    +0.000 A 
ENDROOT
BRANCH   5  12
ATOM     12  C   UNL     1       0.649  12.617  18.774  0.00  0.00    +0.000 A 
ATOM     13  C   UNL     1       0.149  13.924  18.859  0.00  0.00    +0.000 A 
ATOM     14  C   UNL     1       1.009  15.021  18.745  0.00  0.00    +0.000 A 
ATOM     15  C   UNL     1       2.372  14.825  18.537  0.00  0.00    +0.000 A 
ATOM     16  C   UNL     1       2.877  13.535  18.417  0.00  0.00    +0.000 A 
ATOM     17  C   UNL     1       2.023  12.441  18.525  0.00  0.00    +0.000 A 
ENDBRANCH   5  12
BRANCH   2  18
ATOM     18  C   UNL     1       2.180   7.747  19.158  0.00  0.00    +0.000 C 
BRANCH  18  19
ATOM     19  C   UNL     1       2.257   6.225  19.318  0.00  0.00    +0.000 C 
BRANCH  19  20
ATOM     20  C   UNL     1       3.685   5.735  19.550  0.00  0.00    +0.000 C 
BRANCH  20  21
ATOM     21  C   UNL     1       4.334   5.286  18.259  0.00  0.00    +0.000 A 
ATOM     22  C   UNL     1       3.874   4.108  17.611  0.00  0.00    +0.000 A 
ATOM     23  C   UNL     1       4.458   3.645  16.426  0.00  0.00    +0.000 A 
ATOM     24  C   UNL     1       5.501   4.382  15.920  0.00  0.00    +0.000 A 
ATOM     25  N   UNL     1       6.266   4.176  14.779  0.00  0.00    +0.000 N 
ATOM     26  C   UNL     1       7.220   5.201  14.684  0.00  0.00    +0.000 A 
ATOM     27  O   UNL     1       8.056   5.337  13.812  0.00  0.00    +0.000 OA
ATOM     28  N   UNL     1       7.020   6.038  15.793  0.00  0.00    +0.000 N 
ATOM     29  C   UNL     1       5.965   5.536  16.550  0.00  0.00    +0.000 A 
ATOM     30  C   UNL     1       5.410   6.012  17.716  0.00  0.00    +0.000 A 
ATOM     31  H   UNL     1       6.183   3.426  14.114  0.00  0.00    +0.000 HD
ATOM     32  H   UNL     1       7.568   6.860  15.979  0.00  0.00    +0.000 HD
ENDBRANCH  20  21
ENDBRANCH  19  20
ENDBRANCH  18  19
ENDBRANCH   2  18
TORSDOF 5
ENDMDL
