MODEL 1
REMARK VINA RESULT:      -9.2      0.000      0.000
REMARK  Name = 
REMARK  9 active torsions:
REMARK  status: ('A' for Active; 'I' for Inactive)
REMARK    1  A    between atoms: C_1  and  C_2
REMARK    2  A    between atoms: C_2  and  C_3
REMARK    3  A    between atoms: C_2  and  C_10
REMARK    4  A    between atoms: C_3  and  C_4
REMARK    5  A    between atoms: N_8  and  C_9
REMARK    6  A    between atoms: C_14  and  N_15
REMARK    7  A    between atoms: C_16  and  C_17
REMARK    8  A    between atoms: C_17  and  C_18
REMARK    9  A    between atoms: C_18  and  C_19
REMARK                            x       y       z     vdW  Elec       q    Type
REMARK                         _______ _______ _______ _____ _____    ______ ____
ROOT
ATOM      1  C   UNL     1       4.713   4.969  17.061  0.00  0.00    +0.000 A 
ATOM      2  C   UNL     1       3.918   3.840  16.793  0.00  0.00    +0.000 A 
ATOM      3  C   UNL     1       2.566   3.818  17.130  0.00  0.00    +0.000 A 
ATOM      4  C   UNL     1       1.995   4.909  17.778  0.00  0.00    +0.000 A 
ATOM      5  C   UNL     1       2.772   6.026  18.113  0.00  0.00    +0.000 A 
ATOM      6  C   UNL     1       4.124   6.060  17.736  0.00  0.00    +0.000 A 
ENDROOT
BRANCH   5   7
ATOM      7  N   UNL     1       2.226   6.992  19.018  0.00  0.00    +0.000 N 
ATOM      8  C   UNL     1       1.894   6.744  20.364  0.00  0.00    +0.000 A 
ATOM      9  C   UNL     1       1.348   7.729  21.105  0.00  0.00    +0.000 A 
ATOM     10  C   UNL     1       1.102   9.037  20.568  0.00  0.00    +0.000 A 
ATOM     11  C   UNL     1       1.399   9.308  19.299  0.00  0.00    +0.000 A 
ATOM     12  C   UNL     1       1.979   8.258  18.427  0.00  0.00    +0.000 A 
ATOM     13  O   UNL     1       2.171   8.560  17.249  0.00  0.00    +0.000 OA
BRANCH   8  14
ATOM     14  C   UNL     1       2.128   5.400  21.030  0.00  0.00    +0.000 C 
BRANCH  14  15
ATOM     15  C   UNL     1       1.145   4.258  20.764  0.00  0.00    +0.000 C 
BRANCH  15  16
ATOM     16  C   UNL     1       1.608   2.872  21.164  0.00  0.00    +0.000 C 
ATOM     17  F   UNL     1       1.604   1.986  20.150  0.00  0.00    +0.000 F 
ATOM     18  F   UNL     1       2.880   2.925  21.635  0.00  0.00    +0.000 F 
ATOM     19  F   UNL     1       0.840   2.373  22.158  0.00  0.00    +0.000 F 
ENDBRANCH  15  16
ENDBRANCH  14  15
ENDBRANCH   8  14
ENDBRANCH   5   7
BRANCH   1  21
ATOM     20  C   UNL     1       7.111   4.668  17.831  0.00  0.00    +0.000 C 
ATOM     21  C   UNL     1       6.183   4.938  16.639  0.00  0.00    +0.000 C 
BRANCH  21  22
ATOM     22  C   UNL     1       6.413   3.951  15.471  0.00  0.00    +0.000 C 
BRANCH  22  23
ATOM     23  C   UNL     1       7.062   4.587  14.280  0.00  0.00    +0.000 A 
ATOM     24  N   UNL     1       7.959   5.556  14.291  0.00  0.00    +0.000 NA
ATOM     25  N   UNL     1       8.329   5.818  12.997  0.00  0.00    +0.000 NA
ATOM     26  C   UNL     1       7.635   5.028  12.213  0.00  0.00    +0.000 A 
ATOM     27  N   UNL     1       6.813   4.258  12.972  0.00  0.00    +0.000 N 
ATOM     28  C   UNL     1       5.855   3.305  12.469  0.00  0.00    +0.000 C 
ENDBRANCH  22  23
ENDBRANCH  21  22
ENDBRANCH   1  21
TORSDOF 7
ENDMDL
MODEL 2
REMARK VINA RESULT:      -8.5      1.899      3.031
REMARK  Name = 
REMARK  9 active torsions:
REMARK  status: ('A' for Active; 'I' for Inactive)
REMARK    1  A    between atoms: C_1  and  C_2
REMARK    2  A    between atoms: C_2  and  C_3
REMARK    3  A    between atoms: C_2  and  C_10
REMARK    4  A    between atoms: C_3  and  C_4
REMARK    5  A    between atoms: N_8  and  C_9
REMARK    6  A    between atoms: C_14  and  N_15
REMARK    7  A    between atoms: C_16  and  C_17
REMARK    8  A    between atoms: C_17  and  C_18
REMARK    9  A    between atoms: C_18  and  C_19
REMARK                            x       y       z     vdW  Elec       q    Type
REMARK                         _______ _______ _______ _____ _____    ______ ____
ROOT
ATOM      1  C   UNL     1       4.596   4.455  16.651  0.00  0.00    +0.000 A 
ATOM      2  C   UNL     1       3.793   3.300  16.622  0.00  0.00    +0.000 A 
ATOM      3  C   UNL     1       2.507   3.306  17.159  0.00  0.00    +0.000 A 
ATOM      4  C   UNL     1       2.017   4.455  17.772  0.00  0.00    +0.000 A 
ATOM      5  C   UNL     1       2.812   5.605  17.870  0.00  0.00    +0.000 A 
ATOM      6  C   UNL     1       4.091   5.607  17.293  0.00  0.00    +0.000 A 
ENDROOT
BRANCH   5   7
ATOM      7  N   UNL     1       2.388   6.657  18.745  0.00  0.00    +0.000 N 
ATOM      8  C   UNL     1       2.117   6.507  20.119  0.00  0.00    +0.000 A 
ATOM      9  C   UNL     1       1.684   7.570  20.829  0.00  0.00    +0.000 A 
ATOM     10  C   UNL     1       1.499   8.860  20.229  0.00  0.00    +0.000 A 
ATOM     11  C   UNL     1       1.741   9.038  18.933  0.00  0.00    +0.000 A 
ATOM     12  C   UNL     1       2.195   7.902  18.095  0.00  0.00    +0.000 A 
ATOM     13  O   UNL     1       2.339   8.125  16.892  0.00  0.00    +0.000 OA
BRANCH   8  14
ATOM     14  C   UNL     1       2.296   5.189  20.850  0.00  0.00    +0.000 C 
BRANCH  14  15
ATOM     15  C   UNL     1       1.155   4.169  20.830  0.00  0.00    +0.000 C 
BRANCH  15  16
ATOM     16  C   UNL     1       1.548   2.724  21.061  0.00  0.00    +0.000 C 
ATOM     17  F   UNL     1       2.874   2.542  21.215  0.00  0.00    +0.000 F 
ATOM     18  F   UNL     1       0.954   2.255  22.187  0.00  0.00    +0.000 F 
ATOM     19  F   UNL     1       1.135   1.941  20.040  0.00  0.00    +0.000 F 
ENDBRANCH  15  16
ENDBRANCH  14  15
ENDBRANCH   8  14
ENDBRANCH   5   7
BRANCH   1  21
ATOM     20  C   UNL     1       5.914   4.037  14.524  0.00  0.00    +0.000 C 
ATOM     21  C   UNL     1       5.986   4.389  16.017  0.00  0.00    +0.000 C 
BRANCH  21  22
ATOM     22  C   UNL     1       6.790   5.682  16.284  0.00  0.00    +0.000 C 
BRANCH  22  23
ATOM     23  C   UNL     1       7.371   5.741  17.663  0.00  0.00    +0.000 A 
ATOM     24  N   UNL     1       7.515   4.733  18.505  0.00  0.00    +0.000 NA
ATOM     25  N   UNL     1       8.128   5.202  19.639  0.00  0.00    +0.000 NA
ATOM     26  C   UNL     1       8.325   6.490  19.487  0.00  0.00    +0.000 A 
ATOM     27  N   UNL     1       7.845   6.873  18.275  0.00  0.00    +0.000 N 
ATOM     28  C   UNL     1       7.827   8.223  17.770  0.00  0.00    +0.000 C 
ENDBRANCH  22  23
ENDBRANCH  21  22
ENDBRANCH   1  21
TORSDOF 7
ENDMDL
MODEL 3
REMARK VINA RESULT:      -8.1      2.640      7.400
REMARK  Name = 
REMARK  9 active torsions:
REMARK  status: ('A' for Active; 'I' for Inactive)
REMARK    1  A    between atoms: C_1  and  C_2
REMARK    2  A    between atoms: C_2  and  C_3
REMARK    3  A    between atoms: C_2  and  C_10
REMARK    4  A    between atoms: C_3  and  C_4
REMARK    5  A    between atoms: N_8  and  C_9
REMARK    6  A    between atoms: C_14  and  N_15
REMARK    7  A    between atoms: C_16  and  C_17
REMARK    8  A    between atoms: C_17  and  C_18
REMARK    9  A    between atoms: C_18  and  C_19
REMARK                            x       y       z     vdW  Elec       q    Type
REMARK                         _______ _______ _______ _____ _____    ______ ____
ROOT
ATOM      1  C   UNL     1       2.287   7.638  19.298  0.00  0.00    +0.000 A 
ATOM      2  C   UNL     1       1.914   6.867  20.414  0.00  0.00    +0.000 A 
ATOM      3  C   UNL     1       2.531   5.646  20.682  0.00  0.00    +0.000 A 
ATOM      4  C   UNL     1       3.503   5.156  19.815  0.00  0.00    +0.000 A 
ATOM      5  C   UNL     1       3.856   5.870  18.662  0.00  0.00    +0.000 A 
ATOM      6  C   UNL     1       3.261   7.118  18.418  0.00  0.00    +0.000 A 
ENDROOT
BRANCH   5   7
ATOM      7  N   UNL     1       4.639   5.210  17.662  0.00  0.00    +0.000 N 
ATOM      8  C   UNL     1       4.184   4.161  16.839  0.00  0.00    +0.000 A 
ATOM      9  C   UNL     1       5.033   3.592  15.959  0.00  0.00    +0.000 A 
ATOM     10  C   UNL     1       6.393   4.030  15.824  0.00  0.00    +0.000 A 
ATOM     11  C   UNL     1       6.860   5.015  16.587  0.00  0.00    +0.000 A 
ATOM     12  C   UNL     1       5.981   5.663  17.590  0.00  0.00    +0.000 A 
ATOM     13  O   UNL     1       6.497   6.524  18.304  0.00  0.00    +0.000 OA
BRANCH   8  14
ATOM     14  C   UNL     1       2.761   3.636  16.895  0.00  0.00    +0.000 C 
BRANCH  14  15
ATOM     15  C   UNL     1       2.458   2.400  17.745  0.00  0.00    +0.000 C 
BRANCH  15  16
ATOM     16  C   UNL     1       1.303   2.526  18.717  0.00  0.00    +0.000 C 
ATOM     17  F   UNL     1       0.285   1.682  18.460  0.00  0.00    +0.000 F 
ATOM     18  F   UNL     1       1.725   2.261  19.979  0.00  0.00    +0.000 F 
ATOM     19  F   UNL     1       0.810   3.785  18.722  0.00  0.00    +0.000 F 
ENDBRANCH  15  16
ENDBRANCH  14  15
ENDBRANCH   8  14
ENDBRANCH   5   7
BRANCH   1  21
ATOM     20  C   UNL     1       1.070   9.124  17.642  0.00  0.00    +0.000 C 
ATOM     21  C   UNL     1       1.591   8.982  19.079  0.00  0.00    +0.000 C 
BRANCH  21  22
ATOM     22  C   UNL     1       0.489   9.226  20.137  0.00  0.00    +0.000 C 
BRANCH  22  23
ATOM     23  C   UNL     1       0.387  10.658  20.563  0.00  0.00    +0.000 A 
ATOM     24  N   UNL     1       1.139  11.274  21.457  0.00  0.00    +0.000 NA
ATOM     25  N   UNL     1       0.749  12.588  21.518  0.00  0.00    +0.000 NA
ATOM     26  C   UNL     1      -0.250  12.750  20.684  0.00  0.00    +0.000 A 
ATOM     27  N   UNL     1      -0.524  11.563  20.082  0.00  0.00    +0.000 N 
ATOM     28  C   UNL     1      -1.593  11.327  19.144  0.00  0.00    +0.000 C 
ENDBRANCH  22  23
ENDBRANCH  21  22
ENDBRANCH   1  21
TORSDOF 7
ENDMDL
MODEL 4
REMARK VINA RESULT:      -8.1      2.789      7.736
REMARK  Name = 
REMARK  9 active torsions:
REMARK  status: ('A' for Active; 'I' for Inactive)
REMARK    1  A    between atoms: C_1  and  C_2
REMARK    2  A    between atoms: C_2  and  C_3
REMARK    3  A    between atoms: C_2  and  C_10
REMARK    4  A    between atoms: C_3  and  C_4
REMARK    5  A    between atoms: N_8  and  C_9
REMARK    6  A    between atoms: C_14  and  N_15
REMARK    7  A    between atoms: C_16  and  C_17
REMARK    8  A    between atoms: C_17  and  C_18
REMARK    9  A    between atoms: C_18  and  C_19
REMARK                            x       y       z     vdW  Elec       q    Type
REMARK                         _______ _______ _______ _____ _____    ______ ____
ROOT
ATOM      1  C   UNL     1       1.606   8.196  20.078  0.00  0.00    +0.000 A 
ATOM      2  C   UNL     1       1.517   9.306  19.219  0.00  0.00    +0.000 A 
ATOM      3  C   UNL     1       1.904   9.212  17.883  0.00  0.00    +0.000 A 
ATOM      4  C   UNL     1       2.424   8.018  17.394  0.00  0.00    +0.000 A 
ATOM      5  C   UNL     1       2.581   6.910  18.237  0.00  0.00    +0.000 A 
ATOM      6  C   UNL     1       2.153   6.997  19.572  0.00  0.00    +0.000 A 
ENDROOT
BRANCH   5   7
ATOM      7  N   UNL     1       3.371   5.808  17.779  0.00  0.00    +0.000 N 
ATOM      8  C   UNL     1       2.917   4.480  17.658  0.00  0.00    +0.000 A 
ATOM      9  C   UNL     1       3.773   3.521  17.250  0.00  0.00    +0.000 A 
ATOM     10  C   UNL     1       5.140   3.811  16.923  0.00  0.00    +0.000 A 
ATOM     11  C   UNL     1       5.606   5.053  17.029  0.00  0.00    +0.000 A 
ATOM     12  C   UNL     1       4.719   6.146  17.496  0.00  0.00    +0.000 A 
ATOM     13  O   UNL     1       5.234   7.257  17.629  0.00  0.00    +0.000 OA
BRANCH   8  14
ATOM     14  C   UNL     1       1.487   4.073  17.965  0.00  0.00    +0.000 C 
BRANCH  14  15
ATOM     15  C   UNL     1       1.232   3.020  19.046  0.00  0.00    +0.000 C 
BRANCH  15  16
ATOM     16  C   UNL     1       1.264   3.514  20.478  0.00  0.00    +0.000 C 
ATOM     17  F   UNL     1       0.876   2.590  21.378  0.00  0.00    +0.000 F 
ATOM     18  F   UNL     1       2.525   3.884  20.814  0.00  0.00    +0.000 F 
ATOM     19  F   UNL     1       0.478   4.603  20.633  0.00  0.00    +0.000 F 
ENDBRANCH  15  16
ENDBRANCH  14  15
ENDBRANCH   8  14
ENDBRANCH   5   7
BRANCH   1  21
ATOM     20  C   UNL     1       2.032   9.331  22.306  0.00  0.00    +0.000 C 
ATOM     21  C   UNL     1       1.137   8.359  21.525  0.00  0.00    +0.000 C 
BRANCH  21  22
ATOM     22  C   UNL     1      -0.360   8.744  21.593  0.00  0.00    +0.000 C 
BRANCH  22  23
ATOM     23  C   UNL     1      -0.585  10.160  22.027  0.00  0.00    +0.000 A 
ATOM     24  N   UNL     1      -0.518  10.629  23.260  0.00  0.00    +0.000 NA
ATOM     25  N   UNL     1      -0.745  11.981  23.220  0.00  0.00    +0.000 NA
ATOM     26  C   UNL     1      -0.973  12.314  21.972  0.00  0.00    +0.000 A 
ATOM     27  N   UNL     1      -0.906  11.202  21.196  0.00  0.00    +0.000 N 
ATOM     28  C   UNL     1      -1.156  11.154  19.776  0.00  0.00    +0.000 C 
ENDBRANCH  22  23
ENDBRANCH  21  22
ENDBRANCH   1  21
TORSDOF 7
ENDMDL
MODEL 5
REMARK VINA RESULT:      -7.9      1.566      2.802
REMARK  Name = 
REMARK  9 active torsions:
REMARK  status: ('A' for Active; 'I' for Inactive)
REMARK    1  A    between atoms: C_1  and  C_2
REMARK    2  A    between atoms: C_2  and  C_3
REMARK    3  A    between atoms: C_2  and  C_10
REMARK    4  A    between atoms: C_3  and  C_4
REMARK    5  A    between atoms: N_8  and  C_9
REMARK    6  A    between atoms: C_14  and  N_15
REMARK    7  A    between atoms: C_16  and  C_17
REMARK    8  A    between atoms: C_17  and  C_18
REMARK    9  A    between atoms: C_18  and  C_19
REMARK                            x       y       z     vdW  Elec       q    Type
REMARK                         _______ _______ _______ _____ _____    ______ ____
ROOT
ATOM      1  C   UNL     1       4.549   4.375  16.741  0.00  0.00    +0.000 A 
ATOM      2  C   UNL     1       3.706   3.251  16.690  0.00  0.00    +0.000 A 
ATOM      3  C   UNL     1       2.409   3.302  17.198  0.00  0.00    +0.000 A 
ATOM      4  C   UNL     1       1.947   4.466  17.803  0.00  0.00    +0.000 A 
ATOM      5  C   UNL     1       2.780   5.587  17.922  0.00  0.00    +0.000 A 
ATOM      6  C   UNL     1       4.072   5.544  17.374  0.00  0.00    +0.000 A 
ENDROOT
BRANCH   5   7
ATOM      7  N   UNL     1       2.374   6.652  18.790  0.00  0.00    +0.000 N 
ATOM      8  C   UNL     1       2.116   6.519  20.168  0.00  0.00    +0.000 A 
ATOM      9  C   UNL     1       1.700   7.593  20.871  0.00  0.00    +0.000 A 
ATOM     10  C   UNL     1       1.521   8.878  20.259  0.00  0.00    +0.000 A 
ATOM     11  C   UNL     1       1.751   9.041  18.958  0.00  0.00    +0.000 A 
ATOM     12  C   UNL     1       2.186   7.892  18.128  0.00  0.00    +0.000 A 
ATOM     13  O   UNL     1       2.320   8.100  16.922  0.00  0.00    +0.000 OA
BRANCH   8  14
ATOM     14  C   UNL     1       2.290   5.207  20.911  0.00  0.00    +0.000 C 
BRANCH  14  15
ATOM     15  C   UNL     1       1.203   4.137  20.792  0.00  0.00    +0.000 C 
BRANCH  15  16
ATOM     16  C   UNL     1       1.648   2.707  21.022  0.00  0.00    +0.000 C 
ATOM     17  F   UNL     1       2.984   2.561  21.100  0.00  0.00    +0.000 F 
ATOM     18  F   UNL     1       1.133   2.242  22.188  0.00  0.00    +0.000 F 
ATOM     19  F   UNL     1       1.196   1.896  20.039  0.00  0.00    +0.000 F 
ENDBRANCH  15  16
ENDBRANCH  14  15
ENDBRANCH   8  14
ENDBRANCH   5   7
BRANCH   1  21
ATOM     20  C   UNL     1       6.135   5.208  14.945  0.00  0.00    +0.000 C 
ATOM     21  C   UNL     1       5.950   4.260  16.138  0.00  0.00    +0.000 C 
BRANCH  21  22
ATOM     22  C   UNL     1       7.044   4.441  17.216  0.00  0.00    +0.000 C 
BRANCH  22  23
ATOM     23  C   UNL     1       7.425   5.874  17.435  0.00  0.00    +0.000 A 
ATOM     24  N   UNL     1       7.449   6.833  16.528  0.00  0.00    +0.000 NA
ATOM     25  N   UNL     1       7.808   8.004  17.146  0.00  0.00    +0.000 NA
ATOM     26  C   UNL     1       8.024   7.739  18.413  0.00  0.00    +0.000 A 
ATOM     27  N   UNL     1       7.818   6.414  18.632  0.00  0.00    +0.000 N 
ATOM     28  C   UNL     1       8.012   5.732  19.887  0.00  0.00    +0.000 C 
ENDBRANCH  22  23
ENDBRANCH  21  22
ENDBRANCH   1  21
TORSDOF 7
ENDMDL
MODEL 6
REMARK VINA RESULT:      -7.9      2.577      3.701
REMARK  Name = 
REMARK  9 active torsions:
REMARK  status: ('A' for Active; 'I' for Inactive)
REMARK    1  A    between atoms: C_1  and  C_2
REMARK    2  A    between atoms: C_2  and  C_3
REMARK    3  A    between atoms: C_2  and  C_10
REMARK    4  A    between atoms: C_3  and  C_4
REMARK    5  A    between atoms: N_8  and  C_9
REMARK    6  A    between atoms: C_14  and  N_15
REMARK    7  A    between atoms: C_16  and  C_17
REMARK    8  A    between atoms: C_17  and  C_18
REMARK    9  A    between atoms: C_18  and  C_19
REMARK                            x       y       z     vdW  Elec       q    Type
REMARK                         _______ _______ _______ _____ _____    ______ ____
ROOT
ATOM      1  C   UNL     1       5.464   5.671  17.081  0.00  0.00    +0.000 A 
ATOM      2  C   UNL     1       5.038   6.952  16.686  0.00  0.00    +0.000 A 
ATOM      3  C   UNL     1       3.816   7.467  17.117  0.00  0.00    +0.000 A 
ATOM      4  C   UNL     1       2.981   6.692  17.916  0.00  0.00    +0.000 A 
ATOM      5  C   UNL     1       3.348   5.389  18.279  0.00  0.00    +0.000 A 
ATOM      6  C   UNL     1       4.597   4.890  17.876  0.00  0.00    +0.000 A 
ENDROOT
BRANCH   5   7
ATOM      7  N   UNL     1       2.354   4.533  18.853  0.00  0.00    +0.000 N 
ATOM      8  C   UNL     1       1.681   4.774  20.066  0.00  0.00    +0.000 A 
ATOM      9  C   UNL     1       0.791   3.869  20.522  0.00  0.00    +0.000 A 
ATOM     10  C   UNL     1       0.497   2.664  19.801  0.00  0.00    +0.000 A 
ATOM     11  C   UNL     1       1.116   2.400  18.653  0.00  0.00    +0.000 A 
ATOM     12  C   UNL     1       2.123   3.345  18.114  0.00  0.00    +0.000 A 
ATOM     13  O   UNL     1       2.701   3.007  17.080  0.00  0.00    +0.000 OA
BRANCH   8  14
ATOM     14  C   UNL     1       1.910   6.025  20.895  0.00  0.00    +0.000 C 
BRANCH  14  15
ATOM     15  C   UNL     1       0.748   6.999  21.105  0.00  0.00    +0.000 C 
BRANCH  15  16
ATOM     16  C   UNL     1       1.096   8.472  21.057  0.00  0.00    +0.000 C 
ATOM     17  F   UNL     1       1.758   8.836  19.943  0.00  0.00    +0.000 F 
ATOM     18  F   UNL     1      -0.036   9.219  21.103  0.00  0.00    +0.000 F 
ATOM     19  F   UNL     1       1.846   8.828  22.124  0.00  0.00    +0.000 F 
ENDBRANCH  15  16
ENDBRANCH  14  15
ENDBRANCH   8  14
ENDBRANCH   5   7
BRANCH   1  21
ATOM     20  C   UNL     1       7.682   4.641  17.753  0.00  0.00    +0.000 C 
ATOM     21  C   UNL     1       6.829   5.180  16.596  0.00  0.00    +0.000 C 
BRANCH  21  22
ATOM     22  C   UNL     1       6.684   4.161  15.441  0.00  0.00    +0.000 C 
BRANCH  22  23
ATOM     23  C   UNL     1       7.180   4.685  14.128  0.00  0.00    +0.000 A 
ATOM     24  N   UNL     1       8.070   5.643  13.944  0.00  0.00    +0.000 NA
ATOM     25  N   UNL     1       8.277   5.787  12.595  0.00  0.00    +0.000 NA
ATOM     26  C   UNL     1       7.493   4.936  11.976  0.00  0.00    +0.000 A 
ATOM     27  N   UNL     1       6.773   4.243  12.896  0.00  0.00    +0.000 N 
ATOM     28  C   UNL     1       5.762   3.258  12.600  0.00  0.00    +0.000 C 
ENDBRANCH  22  23
ENDBRANCH  21  22
ENDBRANCH   1  21
TORSDOF 7
ENDMDL
MODEL 7
REMARK VINA RESULT:      -7.8      5.002      6.669
REMARK  Name = 
REMARK  9 active torsions:
REMARK  status: ('A' for Active; 'I' for Inactive)
REMARK    1  A    between atoms: C_1  and  C_2
REMARK    2  A    between atoms: C_2  and  C_3
REMARK    3  A    between atoms: C_2  and  C_10
REMARK    4  A    between atoms: C_3  and  C_4
REMARK    5  A    between atoms: N_8  and  C_9
REMARK    6  A    between atoms: C_14  and  N_15
REMARK    7  A    between atoms: C_16  and  C_17
REMARK    8  A    between atoms: C_17  and  C_18
REMARK    9  A    between atoms: C_18  and  C_19
REMARK                            x       y       z     vdW  Elec       q    Type
REMARK                         _______ _______ _______ _____ _____    ______ ____
ROOT
ATOM      1  C   UNL     1       2.280   7.206  19.573  0.00  0.00    +0.000 A 
ATOM      2  C   UNL     1       2.736   7.464  18.268  0.00  0.00    +0.000 A 
ATOM      3  C   UNL     1       2.458   8.674  17.636  0.00  0.00    +0.000 A 
ATOM      4  C   UNL     1       1.683   9.632  18.282  0.00  0.00    +0.000 A 
ATOM      5  C   UNL     1       1.162   9.384  19.560  0.00  0.00    +0.000 A 
ATOM      6  C   UNL     1       1.478   8.180  20.208  0.00  0.00    +0.000 A 
ENDROOT
BRANCH   5   7
ATOM      7  N   UNL     1       0.150  10.260  20.067  0.00  0.00    +0.000 N 
ATOM      8  C   UNL     1      -0.959  10.726  19.335  0.00  0.00    +0.000 A 
ATOM      9  C   UNL     1      -1.825  11.583  19.915  0.00  0.00    +0.000 A 
ATOM     10  C   UNL     1      -1.660  12.030  21.268  0.00  0.00    +0.000 A 
ATOM     11  C   UNL     1      -0.622  11.614  21.990  0.00  0.00    +0.000 A 
ATOM     12  C   UNL     1       0.377  10.692  21.399  0.00  0.00    +0.000 A 
ATOM     13  O   UNL     1       1.344  10.398  22.103  0.00  0.00    +0.000 OA
BRANCH   8  14
ATOM     14  C   UNL     1      -1.232  10.301  17.903  0.00  0.00    +0.000 C 
BRANCH  14  15
ATOM     15  C   UNL     1      -2.264  11.077  17.082  0.00  0.00    +0.000 C 
BRANCH  15  16
ATOM     16  C   UNL     1      -3.544  10.338  16.749  0.00  0.00    +0.000 C 
ATOM     17  F   UNL     1      -4.058   9.650  17.787  0.00  0.00    +0.000 F 
ATOM     18  F   UNL     1      -4.498  11.216  16.349  0.00  0.00    +0.000 F 
ATOM     19  F   UNL     1      -3.351   9.472  15.729  0.00  0.00    +0.000 F 
ENDBRANCH  15  16
ENDBRANCH  14  15
ENDBRANCH   8  14
ENDBRANCH   5   7
BRANCH   1  21
ATOM     20  C   UNL     1       1.411   4.981  20.426  0.00  0.00    +0.000 C 
ATOM     21  C   UNL     1       2.646   5.869  20.219  0.00  0.00    +0.000 C 
BRANCH  21  22
ATOM     22  C   UNL     1       3.768   5.152  19.433  0.00  0.00    +0.000 C 
BRANCH  22  23
ATOM     23  C   UNL     1       3.289   3.941  18.694  0.00  0.00    +0.000 A 
ATOM     24  N   UNL     1       2.523   3.923  17.618  0.00  0.00    +0.000 NA
ATOM     25  N   UNL     1       2.354   2.618  17.229  0.00  0.00    +0.000 NA
ATOM     26  C   UNL     1       2.995   1.858  18.085  0.00  0.00    +0.000 A 
ATOM     27  N   UNL     1       3.574   2.643  19.031  0.00  0.00    +0.000 N 
ATOM     28  C   UNL     1       4.316   2.169  20.173  0.00  0.00    +0.000 C 
ENDBRANCH  22  23
ENDBRANCH  21  22
ENDBRANCH   1  21
TORSDOF 7
ENDMDL
MODEL 8
REMARK VINA RESULT:      -7.8      4.631      6.660
REMARK  Name = 
REMARK  9 active torsions:
REMARK  status: ('A' for Active; 'I' for Inactive)
REMARK    1  A    between atoms: C_1  and  C_2
REMARK    2  A    between atoms: C_2  and  C_3
REMARK    3  A    between atoms: C_2  and  C_10
REMARK    4  A    between atoms: C_3  and  C_4
REMARK    5  A    between atoms: N_8  and  C_9
REMARK    6  A    between atoms: C_14  and  N_15
REMARK    7  A    between atoms: C_16  and  C_17
REMARK    8  A    between atoms: C_17  and  C_18
REMARK    9  A    between atoms: C_18  and  C_19
REMARK                            x       y       z     vdW  Elec       q    Type
REMARK                         _______ _______ _______ _____ _____    ______ ____
ROOT
ATOM      1  C   UNL     1       2.052   7.848  19.182  0.00  0.00    +0.000 A 
ATOM      2  C   UNL     1       2.450   8.513  18.009  0.00  0.00    +0.000 A 
ATOM      3  C   UNL     1       2.149   9.859  17.808  0.00  0.00    +0.000 A 
ATOM      4  C   UNL     1       1.408  10.553  18.759  0.00  0.00    +0.000 A 
ATOM      5  C   UNL     1       0.945   9.906  19.913  0.00  0.00    +0.000 A 
ATOM      6  C   UNL     1       1.284   8.561  20.130  0.00  0.00    +0.000 A 
ENDROOT
BRANCH   5   7
ATOM      7  N   UNL     1      -0.040  10.564  20.717  0.00  0.00    +0.000 N 
ATOM      8  C   UNL     1      -1.038  11.429  20.229  0.00  0.00    +0.000 A 
ATOM      9  C   UNL     1      -1.886  12.021  21.096  0.00  0.00    +0.000 A 
ATOM     10  C   UNL     1      -1.811  11.789  22.509  0.00  0.00    +0.000 A 
ATOM     11  C   UNL     1      -0.878  10.981  23.009  0.00  0.00    +0.000 A 
ATOM     12  C   UNL     1       0.098  10.321  22.108  0.00  0.00    +0.000 A 
ATOM     13  O   UNL     1       0.971   9.637  22.644  0.00  0.00    +0.000 OA
BRANCH   8  14
ATOM     14  C   UNL     1      -1.211  11.727  18.750  0.00  0.00    +0.000 C 
BRANCH  14  15
ATOM     15  C   UNL     1      -2.506  11.305  18.054  0.00  0.00    +0.000 C 
BRANCH  15  16
ATOM     16  C   UNL     1      -2.397  10.140  17.091  0.00  0.00    +0.000 C 
ATOM     17  F   UNL     1      -2.466  10.501  15.796  0.00  0.00    +0.000 F 
ATOM     18  F   UNL     1      -1.208   9.508  17.260  0.00  0.00    +0.000 F 
ATOM     19  F   UNL     1      -3.366   9.227  17.323  0.00  0.00    +0.000 F 
ENDBRANCH  15  16
ENDBRANCH  14  15
ENDBRANCH   8  14
ENDBRANCH   5   7
BRANCH   1  21
ATOM     20  C   UNL     1       1.652   5.710  20.486  0.00  0.00    +0.000 C 
ATOM     21  C   UNL     1       2.441   6.379  19.352  0.00  0.00    +0.000 C 
BRANCH  21  22
ATOM     22  C   UNL     1       2.329   5.608  18.016  0.00  0.00    +0.000 C 
BRANCH  22  23
ATOM     23  C   UNL     1       2.403   4.121  18.185  0.00  0.00    +0.000 A 
ATOM     24  N   UNL     1       1.410   3.260  18.050  0.00  0.00    +0.000 NA
ATOM     25  N   UNL     1       1.906   1.996  18.244  0.00  0.00    +0.000 NA
ATOM     26  C   UNL     1       3.184   2.104  18.520  0.00  0.00    +0.000 A 
ATOM     27  N   UNL     1       3.531   3.417  18.516  0.00  0.00    +0.000 N 
ATOM     28  C   UNL     1       4.837   3.940  18.832  0.00  0.00    +0.000 C 
ENDBRANCH  22  23
ENDBRANCH  21  22
ENDBRANCH   1  21
TORSDOF 7
ENDMDL
MODEL 9
REMARK VINA RESULT:      -7.8      2.760      7.440
REMARK  Name = 
REMARK  9 active torsions:
REMARK  status: ('A' for Active; 'I' for Inactive)
REMARK    1  A    between atoms: C_1  and  C_2
REMARK    2  A    between atoms: C_2  and  C_3
REMARK    3  A    between atoms: C_2  and  C_10
REMARK    4  A    between atoms: C_3  and  C_4
REMARK    5  A    between atoms: N_8  and  C_9
REMARK    6  A    between atoms: C_14  and  N_15
REMARK    7  A    between atoms: C_16  and  C_17
REMARK    8  A    between atoms: C_17  and  C_18
REMARK    9  A    between atoms: C_18  and  C_19
REMARK                            x       y       z     vdW  Elec       q    Type
REMARK                         _______ _______ _______ _____ _____    ______ ____
ROOT
ATOM      1  C   UNL     1       1.468   8.859  18.824  0.00  0.00    +0.000 A 
ATOM      2  C   UNL     1       1.226   8.583  20.181  0.00  0.00    +0.000 A 
ATOM      3  C   UNL     1       1.795   7.471  20.800  0.00  0.00    +0.000 A 
ATOM      4  C   UNL     1       2.582   6.593  20.060  0.00  0.00    +0.000 A 
ATOM      5  C   UNL     1       2.795   6.807  18.691  0.00  0.00    +0.000 A 
ATOM      6  C   UNL     1       2.253   7.950  18.082  0.00  0.00    +0.000 A 
ENDROOT
BRANCH   5   7
ATOM      7  N   UNL     1       3.364   5.747  17.914  0.00  0.00    +0.000 N 
ATOM      8  C   UNL     1       2.746   4.506  17.663  0.00  0.00    +0.000 A 
ATOM      9  C   UNL     1       3.404   3.572  16.946  0.00  0.00    +0.000 A 
ATOM     10  C   UNL     1       4.718   3.804  16.419  0.00  0.00    +0.000 A 
ATOM     11  C   UNL     1       5.335   4.963  16.639  0.00  0.00    +0.000 A 
ATOM     12  C   UNL     1       4.672   6.020  17.441  0.00  0.00    +0.000 A 
ATOM     13  O   UNL     1       5.326   7.041  17.658  0.00  0.00    +0.000 OA
BRANCH   8  14
ATOM     14  C   UNL     1       1.354   4.168  18.163  0.00  0.00    +0.000 C 
BRANCH  14  15
ATOM     15  C   UNL     1       1.160   3.827  19.642  0.00  0.00    +0.000 C 
BRANCH  15  16
ATOM     16  C   UNL     1       1.902   2.607  20.148  0.00  0.00    +0.000 C 
ATOM     17  F   UNL     1       1.890   1.571  19.288  0.00  0.00    +0.000 F 
ATOM     18  F   UNL     1       3.204   2.915  20.374  0.00  0.00    +0.000 F 
ATOM     19  F   UNL     1       1.388   2.180  21.323  0.00  0.00    +0.000 F 
ENDBRANCH  15  16
ENDBRANCH  14  15
ENDBRANCH   8  14
ENDBRANCH   5   7
BRANCH   1  21
ATOM     20  C   UNL     1      -0.652  10.229  18.570  0.00  0.00    +0.000 C 
ATOM     21  C   UNL     1       0.837  10.113  18.215  0.00  0.00    +0.000 C 
BRANCH  21  22
ATOM     22  C   UNL     1       1.637  11.384  18.586  0.00  0.00    +0.000 C 
BRANCH  22  23
ATOM     23  C   UNL     1       1.056  12.128  19.749  0.00  0.00    +0.000 A 
ATOM     24  N   UNL     1       1.196  11.830  21.028  0.00  0.00    +0.000 NA
ATOM     25  N   UNL     1       0.547  12.785  21.768  0.00  0.00    +0.000 NA
ATOM     26  C   UNL     1      -0.002  13.635  20.933  0.00  0.00    +0.000 A 
ATOM     27  N   UNL     1       0.272  13.249  19.660  0.00  0.00    +0.000 N 
ATOM     28  C   UNL     1      -0.207  13.899  18.466  0.00  0.00    +0.000 C 
ENDBRANCH  22  23
ENDBRANCH  21  22
ENDBRANCH   1  21
TORSDOF 7
ENDMDL
