MODEL 1
REMARK VINA RESULT:      -8.8      0.000      0.000
REMARK  Name = 
REMARK  5 active torsions:
REMARK  status: ('A' for Active; 'I' for Inactive)
REMARK    1  A    between atoms: C_2  and  C_25
REMARK    2  A    between atoms: N_3  and  C_4
REMARK    3  A    between atoms: C_8  and  N_9
REMARK    4  A    between atoms: C_10  and  C_12
REMARK    5  A    between atoms: C_12  and  C_13
REMARK                            x       y       z     vdW  Elec       q    Type
REMARK                         _______ _______ _______ _____ _____    ______ ____
ROOT
ATOM      1  N   UNL     1       4.093   4.902  17.099  0.00  0.00    +0.000 N 
ATOM      2  C   UNL     1       4.026   4.295  18.352  0.00  0.00    +0.000 C 
ATOM      3  O   UNL     1       4.995   3.830  18.956  0.00  0.00    +0.000 OA
ATOM      4  H   UNL     1       3.302   5.462  16.810  0.00  0.00    +0.000 HD
ENDROOT
BRANCH   1   9
ATOM      5  C   UNL     1       6.388   4.020  14.277  0.00  0.00    +0.000 A 
ATOM      6  C   UNL     1       7.417   4.936  14.498  0.00  0.00    +0.000 A 
ATOM      7  C   UNL     1       7.393   5.782  15.600  0.00  0.00    +0.000 A 
ATOM      8  C   UNL     1       6.320   5.752  16.477  0.00  0.00    +0.000 A 
ATOM      9  C   UNL     1       5.229   4.907  16.247  0.00  0.00    +0.000 A 
ATOM     10  C   UNL     1       5.279   4.024  15.148  0.00  0.00    +0.000 A 
BRANCH   5  13
ATOM     11  O   UNL     1       4.447   3.666  12.104  0.00  0.00    +0.000 OA
ATOM     12  C   UNL     1       5.450   2.971  12.221  0.00  0.00    +0.000 C 
ATOM     13  N   UNL     1       6.431   3.102  13.192  0.00  0.00    +0.000 N 
ATOM     14  H   UNL     1       7.282   2.573  13.068  0.00  0.00    +0.000 HD
BRANCH  12  15
ATOM     15  C   UNL     1       5.642   1.922  11.178  0.00  0.00    +0.000 C 
ATOM     16  C   UNL     1       6.157   0.527  11.388  0.00  0.00    +0.000 C 
ATOM     17  C   UNL     1       7.034   1.554  10.730  0.00  0.00    +0.000 C 
ENDBRANCH  12  15
ENDBRANCH   5  13
ENDBRANCH   1   9
BRANCH   2  18
ATOM     18  C   UNL     1       2.629   4.294  19.023  0.00  0.00    +0.000 C 
ATOM     19  C   UNL     1       2.712   3.450  20.331  0.00  0.00    +0.000 C 
ATOM     20  C   UNL     1       1.312   2.896  20.582  0.00  0.00    +0.000 C 
ATOM     21  C   UNL     1       0.580   2.981  19.250  0.00  0.00    +0.000 C 
ATOM     22  C   UNL     1       1.630   3.420  18.232  0.00  0.00    +0.000 C 
BRANCH  18  23
ATOM     23  C   UNL     1       2.170   5.731  19.342  0.00  0.00    +0.000 A 
ATOM     24  C   UNL     1       1.657   6.102  20.597  0.00  0.00    +0.000 A 
ATOM     25  C   UNL     1       1.334   7.433  20.886  0.00  0.00    +0.000 A 
ATOM     26  C   UNL     1       1.501   8.416  19.919  0.00  0.00    +0.000 A 
ATOM     27 CL   UNL     1       1.137  10.054  20.297  0.00  0.00    +0.000 Cl
ATOM     28  C   UNL     1       1.969   8.077  18.656  0.00  0.00    +0.000 A 
ATOM     29  C   UNL     1       2.294   6.745  18.369  0.00  0.00    +0.000 A 
ENDBRANCH  18  23
ENDBRANCH   2  18
TORSDOF 5
ENDMDL
MODEL 2
REMARK VINA RESULT:      -8.7      4.274      8.377
REMARK  Name = 
REMARK  5 active torsions:
REMARK  status: ('A' for Active; 'I' for Inactive)
REMARK    1  A    between atoms: C_2  and  C_25
REMARK    2  A    between atoms: N_3  and  C_4
REMARK    3  A    between atoms: C_8  and  N_9
REMARK    4  A    between atoms: C_10  and  C_12
REMARK    5  A    between atoms: C_12  and  C_13
REMARK                            x       y       z     vdW  Elec       q    Type
REMARK                         _______ _______ _______ _____ _____    ______ ____
ROOT
ATOM      1  N   UNL     1       1.522   7.253  20.757  0.00  0.00    +0.000 N 
ATOM      2  C   UNL     1       2.071   6.686  19.609  0.00  0.00    +0.000 C 
ATOM      3  O   UNL     1       2.286   7.298  18.560  0.00  0.00    +0.000 OA
ATOM      4  H   UNL     1       1.619   6.740  21.623  0.00  0.00    +0.000 HD
ENDROOT
BRANCH   1   9
ATOM      5  C   UNL     1      -0.241  10.402  19.762  0.00  0.00    +0.000 A 
ATOM      6  C   UNL     1      -0.252  11.077  20.984  0.00  0.00    +0.000 A 
ATOM      7  C   UNL     1       0.374  10.538  22.101  0.00  0.00    +0.000 A 
ATOM      8  C   UNL     1       0.988   9.297  22.024  0.00  0.00    +0.000 A 
ATOM      9  C   UNL     1       0.951   8.551  20.842  0.00  0.00    +0.000 A 
ATOM     10  C   UNL     1       0.348   9.121  19.701  0.00  0.00    +0.000 A 
BRANCH   5  13
ATOM     11  O   UNL     1      -2.678   9.585  18.345  0.00  0.00    +0.000 OA
ATOM     12  C   UNL     1      -1.959  10.500  17.961  0.00  0.00    +0.000 C 
ATOM     13  N   UNL     1      -0.818  10.970  18.594  0.00  0.00    +0.000 N 
ATOM     14  H   UNL     1      -0.422  11.836  18.257  0.00  0.00    +0.000 HD
BRANCH  12  15
ATOM     15  C   UNL     1      -2.398  11.197  16.717  0.00  0.00    +0.000 C 
ATOM     16  C   UNL     1      -3.781  11.203  16.129  0.00  0.00    +0.000 C 
ATOM     17  C   UNL     1      -2.696  10.397  15.473  0.00  0.00    +0.000 C 
ENDBRANCH  12  15
ENDBRANCH   5  13
ENDBRANCH   1   9
BRANCH   2  18
ATOM     18  C   UNL     1       2.491   5.199  19.731  0.00  0.00    +0.000 C 
ATOM     19  C   UNL     1       1.311   4.312  19.232  0.00  0.00    +0.000 C 
ATOM     20  C   UNL     1       1.431   2.976  19.962  0.00  0.00    +0.000 C 
ATOM     21  C   UNL     1       2.308   3.238  21.177  0.00  0.00    +0.000 C 
ATOM     22  C   UNL     1       2.527   4.748  21.208  0.00  0.00    +0.000 C 
BRANCH  18  23
ATOM     23  C   UNL     1       3.760   4.915  18.903  0.00  0.00    +0.000 A 
ATOM     24  C   UNL     1       3.716   4.355  17.614  0.00  0.00    +0.000 A 
ATOM     25  C   UNL     1       4.877   4.194  16.850  0.00  0.00    +0.000 A 
ATOM     26  C   UNL     1       6.109   4.573  17.367  0.00  0.00    +0.000 A 
ATOM     27 CL   UNL     1       7.526   4.405  16.406  0.00  0.00    +0.000 Cl
ATOM     28  C   UNL     1       6.193   5.093  18.653  0.00  0.00    +0.000 A 
ATOM     29  C   UNL     1       5.030   5.257  19.415  0.00  0.00    +0.000 A 
ENDBRANCH  18  23
ENDBRANCH   2  18
TORSDOF 5
ENDMDL
MODEL 3
REMARK VINA RESULT:      -8.7      4.373      9.001
REMARK  Name = 
REMARK  5 active torsions:
REMARK  status: ('A' for Active; 'I' for Inactive)
REMARK    1  A    between atoms: C_2  and  C_25
REMARK    2  A    between atoms: N_3  and  C_4
REMARK    3  A    between atoms: C_8  and  N_9
REMARK    4  A    between atoms: C_10  and  C_12
REMARK    5  A    between atoms: C_12  and  C_13
REMARK                            x       y       z     vdW  Elec       q    Type
REMARK                         _______ _______ _______ _____ _____    ______ ____
ROOT
ATOM      1  N   UNL     1       1.408   7.127  21.147  0.00  0.00    +0.000 N 
ATOM      2  C   UNL     1       1.993   6.673  19.966  0.00  0.00    +0.000 C 
ATOM      3  O   UNL     1       2.280   7.391  19.006  0.00  0.00    +0.000 OA
ATOM      4  H   UNL     1       1.445   6.516  21.951  0.00  0.00    +0.000 HD
ENDROOT
BRANCH   1   9
ATOM      5  C   UNL     1       0.663  10.758  20.618  0.00  0.00    +0.000 A 
ATOM      6  C   UNL     1      -0.207  10.990  21.684  0.00  0.00    +0.000 A 
ATOM      7  C   UNL     1      -0.489   9.989  22.605  0.00  0.00    +0.000 A 
ATOM      8  C   UNL     1       0.065   8.727  22.453  0.00  0.00    +0.000 A 
ATOM      9  C   UNL     1       0.878   8.429  21.354  0.00  0.00    +0.000 A 
ATOM     10  C   UNL     1       1.190   9.461  20.445  0.00  0.00    +0.000 A 
BRANCH   5  13
ATOM     11  O   UNL     1       2.428  13.062  21.059  0.00  0.00    +0.000 OA
ATOM     12  C   UNL     1       1.830  12.871  20.005  0.00  0.00    +0.000 C 
ATOM     13  N   UNL     1       1.014  11.790  19.707  0.00  0.00    +0.000 N 
ATOM     14  H   UNL     1       0.725  11.677  18.746  0.00  0.00    +0.000 HD
BRANCH  12  15
ATOM     15  C   UNL     1       2.057  13.885  18.934  0.00  0.00    +0.000 C 
ATOM     16  C   UNL     1       2.646  15.257  19.103  0.00  0.00    +0.000 C 
ATOM     17  C   UNL     1       1.173  15.104  18.855  0.00  0.00    +0.000 C 
ENDBRANCH  12  15
ENDBRANCH   5  13
ENDBRANCH   1   9
BRANCH   2  18
ATOM     18  C   UNL     1       2.357   5.166  19.935  0.00  0.00    +0.000 C 
ATOM     19  C   UNL     1       1.111   4.369  19.442  0.00  0.00    +0.000 C 
ATOM     20  C   UNL     1       1.220   2.972  20.048  0.00  0.00    +0.000 C 
ATOM     21  C   UNL     1       2.181   3.095  21.221  0.00  0.00    +0.000 C 
ATOM     22  C   UNL     1       2.465   4.589  21.364  0.00  0.00    +0.000 C 
BRANCH  18  23
ATOM     23  C   UNL     1       3.559   4.909  19.005  0.00  0.00    +0.000 A 
ATOM     24  C   UNL     1       3.410   4.473  17.677  0.00  0.00    +0.000 A 
ATOM     25  C   UNL     1       4.514   4.336  16.828  0.00  0.00    +0.000 A 
ATOM     26  C   UNL     1       5.792   4.614  17.297  0.00  0.00    +0.000 A 
ATOM     27 CL   UNL     1       7.139   4.478  16.235  0.00  0.00    +0.000 Cl
ATOM     28  C   UNL     1       5.978   5.008  18.616  0.00  0.00    +0.000 A 
ATOM     29  C   UNL     1       4.872   5.148  19.463  0.00  0.00    +0.000 A 
ENDBRANCH  18  23
ENDBRANCH   2  18
TORSDOF 5
ENDMDL
MODEL 4
REMARK VINA RESULT:      -8.7      3.552      6.414
REMARK  Name = 
REMARK  5 active torsions:
REMARK  status: ('A' for Active; 'I' for Inactive)
REMARK    1  A    between atoms: C_2  and  C_25
REMARK    2  A    between atoms: N_3  and  C_4
REMARK    3  A    between atoms: C_8  and  N_9
REMARK    4  A    between atoms: C_10  and  C_12
REMARK    5  A    between atoms: C_12  and  C_13
REMARK                            x       y       z     vdW  Elec       q    Type
REMARK                         _______ _______ _______ _____ _____    ______ ____
ROOT
ATOM      1  N   UNL     1       1.914   8.527  19.184  0.00  0.00    +0.000 N 
ATOM      2  C   UNL     1       0.965   9.211  19.941  0.00  0.00    +0.000 C 
ATOM      3  O   UNL     1       0.404   8.754  20.939  0.00  0.00    +0.000 OA
ATOM      4  H   UNL     1       2.485   9.069  18.550  0.00  0.00    +0.000 HD
ENDROOT
BRANCH   1   9
ATOM      5  C   UNL     1       3.282   5.131  18.399  0.00  0.00    +0.000 A 
ATOM      6  C   UNL     1       2.958   4.455  19.577  0.00  0.00    +0.000 A 
ATOM      7  C   UNL     1       2.236   5.084  20.584  0.00  0.00    +0.000 A 
ATOM      8  C   UNL     1       1.861   6.412  20.446  0.00  0.00    +0.000 A 
ATOM      9  C   UNL     1       2.237   7.150  19.319  0.00  0.00    +0.000 A 
ATOM     10  C   UNL     1       2.935   6.494  18.284  0.00  0.00    +0.000 A 
BRANCH   5  13
ATOM     11  O   UNL     1       6.090   5.398  17.588  0.00  0.00    +0.000 OA
ATOM     12  C   UNL     1       5.287   4.691  16.989  0.00  0.00    +0.000 C 
ATOM     13  N   UNL     1       3.960   4.482  17.332  0.00  0.00    +0.000 N 
ATOM     14  H   UNL     1       3.465   3.746  16.850  0.00  0.00    +0.000 HD
BRANCH  12  15
ATOM     15  C   UNL     1       5.823   3.952  15.809  0.00  0.00    +0.000 C 
ATOM     16  C   UNL     1       6.896   4.417  14.866  0.00  0.00    +0.000 C 
ATOM     17  C   UNL     1       5.464   4.402  14.414  0.00  0.00    +0.000 C 
ENDBRANCH  12  15
ENDBRANCH   5  13
ENDBRANCH   1   9
BRANCH   2  18
ATOM     18  C   UNL     1       0.683  10.670  19.501  0.00  0.00    +0.000 C 
ATOM     19  C   UNL     1       1.755  11.082  18.447  0.00  0.00    +0.000 C 
ATOM     20  C   UNL     1       1.906  12.598  18.549  0.00  0.00    +0.000 C 
ATOM     21  C   UNL     1       1.346  12.987  19.909  0.00  0.00    +0.000 C 
ATOM     22  C   UNL     1       1.047  11.671  20.621  0.00  0.00    +0.000 C 
BRANCH  18  23
ATOM     23  C   UNL     1      -0.732  10.803  18.905  0.00  0.00    +0.000 A 
ATOM     24  C   UNL     1      -1.724  11.618  19.478  0.00  0.00    +0.000 A 
ATOM     25  C   UNL     1      -2.969  11.789  18.863  0.00  0.00    +0.000 A 
ATOM     26  C   UNL     1      -3.254  11.135  17.671  0.00  0.00    +0.000 A 
ATOM     27 CL   UNL     1      -4.774  11.382  16.905  0.00  0.00    +0.000 Cl
ATOM     28  C   UNL     1      -2.310  10.291  17.099  0.00  0.00    +0.000 A 
ATOM     29  C   UNL     1      -1.063  10.123  17.714  0.00  0.00    +0.000 A 
ENDBRANCH  18  23
ENDBRANCH   2  18
TORSDOF 5
ENDMDL
MODEL 5
REMARK VINA RESULT:      -8.6      4.317      9.024
REMARK  Name = 
REMARK  5 active torsions:
REMARK  status: ('A' for Active; 'I' for Inactive)
REMARK    1  A    between atoms: C_2  and  C_25
REMARK    2  A    between atoms: N_3  and  C_4
REMARK    3  A    between atoms: C_8  and  N_9
REMARK    4  A    between atoms: C_10  and  C_12
REMARK    5  A    between atoms: C_12  and  C_13
REMARK                            x       y       z     vdW  Elec       q    Type
REMARK                         _______ _______ _______ _____ _____    ______ ____
ROOT
ATOM      1  N   UNL     1       1.963   7.171  18.972  0.00  0.00    +0.000 N 
ATOM      2  C   UNL     1       1.893   6.367  20.108  0.00  0.00    +0.000 C 
ATOM      3  O   UNL     1       1.419   6.723  21.189  0.00  0.00    +0.000 OA
ATOM      4  H   UNL     1       2.134   6.713  18.086  0.00  0.00    +0.000 HD
ENDROOT
BRANCH   1   9
ATOM      5  C   UNL     1       0.504  10.505  19.849  0.00  0.00    +0.000 A 
ATOM      6  C   UNL     1       1.175  11.318  18.935  0.00  0.00    +0.000 A 
ATOM      7  C   UNL     1       2.040  10.770  17.995  0.00  0.00    +0.000 A 
ATOM      8  C   UNL     1       2.277   9.404  17.981  0.00  0.00    +0.000 A 
ATOM      9  C   UNL     1       1.689   8.564  18.932  0.00  0.00    +0.000 A 
ATOM     10  C   UNL     1       0.782   9.122  19.857  0.00  0.00    +0.000 A 
BRANCH   5  13
ATOM     11  O   UNL     1       0.568  10.416  22.782  0.00  0.00    +0.000 OA
ATOM     12  C   UNL     1      -0.352  10.925  22.150  0.00  0.00    +0.000 C 
ATOM     13  N   UNL     1      -0.435  11.041  20.771  0.00  0.00    +0.000 N 
ATOM     14  H   UNL     1      -1.165  11.631  20.398  0.00  0.00    +0.000 HD
BRANCH  12  15
ATOM     15  C   UNL     1      -1.453  11.515  22.965  0.00  0.00    +0.000 C 
ATOM     16  C   UNL     1      -2.588  12.364  22.465  0.00  0.00    +0.000 C 
ATOM     17  C   UNL     1      -1.470  12.998  23.243  0.00  0.00    +0.000 C 
ENDBRANCH  12  15
ENDBRANCH   5  13
ENDBRANCH   1   9
BRANCH   2  18
ATOM     18  C   UNL     1       2.389   4.909  19.929  0.00  0.00    +0.000 C 
ATOM     19  C   UNL     1       1.222   4.062  19.337  0.00  0.00    +0.000 C 
ATOM     20  C   UNL     1       1.450   2.624  19.799  0.00  0.00    +0.000 C 
ATOM     21  C   UNL     1       2.389   2.710  20.994  0.00  0.00    +0.000 C 
ATOM     22  C   UNL     1       2.538   4.199  21.293  0.00  0.00    +0.000 C 
BRANCH  18  23
ATOM     23  C   UNL     1       3.615   4.855  18.996  0.00  0.00    +0.000 A 
ATOM     24  C   UNL     1       4.916   5.156  19.435  0.00  0.00    +0.000 A 
ATOM     25  C   UNL     1       6.021   5.010  18.590  0.00  0.00    +0.000 A 
ATOM     26  C   UNL     1       5.845   4.576  17.282  0.00  0.00    +0.000 A 
ATOM     27 CL   UNL     1       7.215   4.363  16.262  0.00  0.00    +0.000 Cl
ATOM     28  C   UNL     1       4.569   4.307  16.804  0.00  0.00    +0.000 A 
ATOM     29  C   UNL     1       3.464   4.452  17.653  0.00  0.00    +0.000 A 
ENDBRANCH  18  23
ENDBRANCH   2  18
TORSDOF 5
ENDMDL
MODEL 6
REMARK VINA RESULT:      -8.5      0.812      1.231
REMARK  Name = 
REMARK  5 active torsions:
REMARK  status: ('A' for Active; 'I' for Inactive)
REMARK    1  A    between atoms: C_2  and  C_25
REMARK    2  A    between atoms: N_3  and  C_4
REMARK    3  A    between atoms: C_8  and  N_9
REMARK    4  A    between atoms: C_10  and  C_12
REMARK    5  A    between atoms: C_12  and  C_13
REMARK                            x       y       z     vdW  Elec       q    Type
REMARK                         _______ _______ _______ _____ _____    ______ ____
ROOT
ATOM      1  N   UNL     1       4.095   5.123  17.532  0.00  0.00    +0.000 N 
ATOM      2  C   UNL     1       3.989   4.505  18.777  0.00  0.00    +0.000 C 
ATOM      3  O   UNL     1       4.918   3.943  19.360  0.00  0.00    +0.000 OA
ATOM      4  H   UNL     1       3.356   5.759  17.262  0.00  0.00    +0.000 HD
ENDROOT
BRANCH   1   9
ATOM      5  C   UNL     1       6.240   4.117  14.633  0.00  0.00    +0.000 A 
ATOM      6  C   UNL     1       7.374   4.891  14.884  0.00  0.00    +0.000 A 
ATOM      7  C   UNL     1       7.463   5.676  16.026  0.00  0.00    +0.000 A 
ATOM      8  C   UNL     1       6.402   5.731  16.918  0.00  0.00    +0.000 A 
ATOM      9  C   UNL     1       5.215   5.035  16.663  0.00  0.00    +0.000 A 
ATOM     10  C   UNL     1       5.148   4.209  15.521  0.00  0.00    +0.000 A 
BRANCH   5  13
ATOM     11  O   UNL     1       7.239   4.577  11.912  0.00  0.00    +0.000 OA
ATOM     12  C   UNL     1       6.629   3.564  12.236  0.00  0.00    +0.000 C 
ATOM     13  N   UNL     1       6.162   3.256  13.505  0.00  0.00    +0.000 N 
ATOM     14  H   UNL     1       5.827   2.317  13.662  0.00  0.00    +0.000 HD
BRANCH  12  15
ATOM     15  C   UNL     1       6.423   2.554  11.157  0.00  0.00    +0.000 C 
ATOM     16  C   UNL     1       5.936   1.143  11.325  0.00  0.00    +0.000 C 
ATOM     17  C   UNL     1       7.384   1.399  11.016  0.00  0.00    +0.000 C 
ENDBRANCH  12  15
ENDBRANCH   5  13
ENDBRANCH   1   9
BRANCH   2  18
ATOM     18  C   UNL     1       2.607   4.624  19.468  0.00  0.00    +0.000 C 
ATOM     19  C   UNL     1       2.679   3.889  20.841  0.00  0.00    +0.000 C 
ATOM     20  C   UNL     1       1.260   3.423  21.160  0.00  0.00    +0.000 C 
ATOM     21  C   UNL     1       0.507   3.430  19.838  0.00  0.00    +0.000 C 
ATOM     22  C   UNL     1       1.555   3.734  18.770  0.00  0.00    +0.000 C 
BRANCH  18  23
ATOM     23  C   UNL     1       2.218   6.102  19.673  0.00  0.00    +0.000 A 
ATOM     24  C   UNL     1       2.336   7.065  18.656  0.00  0.00    +0.000 A 
ATOM     25  C   UNL     1       1.890   8.378  18.842  0.00  0.00    +0.000 A 
ATOM     26  C   UNL     1       1.334   8.759  20.057  0.00  0.00    +0.000 A 
ATOM     27 CL   UNL     1       0.754  10.366  20.263  0.00  0.00    +0.000 Cl
ATOM     28  C   UNL     1       1.238   7.842  21.096  0.00  0.00    +0.000 A 
ATOM     29  C   UNL     1       1.682   6.528  20.907  0.00  0.00    +0.000 A 
ENDBRANCH  18  23
ENDBRANCH   2  18
TORSDOF 5
ENDMDL
MODEL 7
REMARK VINA RESULT:      -8.5      4.140      8.168
REMARK  Name = 
REMARK  5 active torsions:
REMARK  status: ('A' for Active; 'I' for Inactive)
REMARK    1  A    between atoms: C_2  and  C_25
REMARK    2  A    between atoms: N_3  and  C_4
REMARK    3  A    between atoms: C_8  and  N_9
REMARK    4  A    between atoms: C_10  and  C_12
REMARK    5  A    between atoms: C_12  and  C_13
REMARK                            x       y       z     vdW  Elec       q    Type
REMARK                         _______ _______ _______ _____ _____    ______ ____
ROOT
ATOM      1  N   UNL     1       2.472   6.849  19.328  0.00  0.00    +0.000 N 
ATOM      2  C   UNL     1       3.311   6.619  18.239  0.00  0.00    +0.000 C 
ATOM      3  O   UNL     1       3.634   7.474  17.412  0.00  0.00    +0.000 OA
ATOM      4  H   UNL     1       2.473   6.163  20.071  0.00  0.00    +0.000 HD
ENDROOT
BRANCH   1   9
ATOM      5  C   UNL     1       0.215   9.762  18.669  0.00  0.00    +0.000 A 
ATOM      6  C   UNL     1       0.139  10.312  19.949  0.00  0.00    +0.000 A 
ATOM      7  C   UNL     1       0.876   9.778  20.999  0.00  0.00    +0.000 A 
ATOM      8  C   UNL     1       1.671   8.660  20.793  0.00  0.00    +0.000 A 
ATOM      9  C   UNL     1       1.711   8.029  19.546  0.00  0.00    +0.000 A 
ATOM     10  C   UNL     1       0.991   8.600  18.476  0.00  0.00    +0.000 A 
BRANCH   5  13
ATOM     11  O   UNL     1      -2.653   9.644  18.055  0.00  0.00    +0.000 OA
ATOM     12  C   UNL     1      -1.838  10.205  17.330  0.00  0.00    +0.000 C 
ATOM     13  N   UNL     1      -0.479  10.338  17.570  0.00  0.00    +0.000 N 
ATOM     14  H   UNL     1       0.039  10.968  16.975  0.00  0.00    +0.000 HD
BRANCH  12  15
ATOM     15  C   UNL     1      -2.392  10.844  16.101  0.00  0.00    +0.000 C 
ATOM     16  C   UNL     1      -3.829  10.862  15.664  0.00  0.00    +0.000 C 
ATOM     17  C   UNL     1      -2.844   9.985  14.946  0.00  0.00    +0.000 C 
ENDBRANCH  12  15
ENDBRANCH   5  13
ENDBRANCH   1   9
BRANCH   2  18
ATOM     18  C   UNL     1       3.913   5.194  18.146  0.00  0.00    +0.000 C 
ATOM     19  C   UNL     1       2.746   4.178  17.959  0.00  0.00    +0.000 C 
ATOM     20  C   UNL     1       3.225   2.851  18.543  0.00  0.00    +0.000 C 
ATOM     21  C   UNL     1       4.387   3.192  19.466  0.00  0.00    +0.000 C 
ATOM     22  C   UNL     1       4.433   4.717  19.521  0.00  0.00    +0.000 C 
BRANCH  18  23
ATOM     23  C   UNL     1       4.905   5.090  16.971  0.00  0.00    +0.000 A 
ATOM     24  C   UNL     1       4.556   4.528  15.731  0.00  0.00    +0.000 A 
ATOM     25  C   UNL     1       5.449   4.531  14.654  0.00  0.00    +0.000 A 
ATOM     26  C   UNL     1       6.717   5.080  14.801  0.00  0.00    +0.000 A 
ATOM     27 CL   UNL     1       7.793   5.111  13.459  0.00  0.00    +0.000 Cl
ATOM     28  C   UNL     1       7.108   5.608  16.024  0.00  0.00    +0.000 A 
ATOM     29  C   UNL     1       6.212   5.607  17.101  0.00  0.00    +0.000 A 
ENDBRANCH  18  23
ENDBRANCH   2  18
TORSDOF 5
ENDMDL
MODEL 8
REMARK VINA RESULT:      -8.4      4.419      8.687
REMARK  Name = 
REMARK  5 active torsions:
REMARK  status: ('A' for Active; 'I' for Inactive)
REMARK    1  A    between atoms: C_2  and  C_25
REMARK    2  A    between atoms: N_3  and  C_4
REMARK    3  A    between atoms: C_8  and  N_9
REMARK    4  A    between atoms: C_10  and  C_12
REMARK    5  A    between atoms: C_12  and  C_13
REMARK                            x       y       z     vdW  Elec       q    Type
REMARK                         _______ _______ _______ _____ _____    ______ ____
ROOT
ATOM      1  N   UNL     1       2.208   6.940  19.490  0.00  0.00    +0.000 N 
ATOM      2  C   UNL     1       2.009   5.599  19.811  0.00  0.00    +0.000 C 
ATOM      3  O   UNL     1       1.177   5.190  20.623  0.00  0.00    +0.000 OA
ATOM      4  H   UNL     1       2.728   7.146  18.647  0.00  0.00    +0.000 HD
ENDROOT
BRANCH   1   9
ATOM      5  C   UNL     1       0.723  10.319  20.115  0.00  0.00    +0.000 A 
ATOM      6  C   UNL     1       0.435  10.216  21.477  0.00  0.00    +0.000 A 
ATOM      7  C   UNL     1       0.789   9.081  22.196  0.00  0.00    +0.000 A 
ATOM      8  C   UNL     1       1.403   8.015  21.556  0.00  0.00    +0.000 A 
ATOM      9  C   UNL     1       1.635   8.044  20.176  0.00  0.00    +0.000 A 
ATOM     10  C   UNL     1       1.308   9.215  19.461  0.00  0.00    +0.000 A 
BRANCH   5  13
ATOM     11  O   UNL     1       2.136  12.892  20.148  0.00  0.00    +0.000 OA
ATOM     12  C   UNL     1       1.126  12.694  19.480  0.00  0.00    +0.000 C 
ATOM     13  N   UNL     1       0.428  11.500  19.381  0.00  0.00    +0.000 N 
ATOM     14  H   UNL     1      -0.282  11.435  18.665  0.00  0.00    +0.000 HD
BRANCH  12  15
ATOM     15  C   UNL     1       0.649  13.847  18.663  0.00  0.00    +0.000 C 
ATOM     16  C   UNL     1       1.006  15.294  18.852  0.00  0.00    +0.000 C 
ATOM     17  C   UNL     1      -0.362  14.808  19.238  0.00  0.00    +0.000 C 
ENDBRANCH  12  15
ENDBRANCH   5  13
ENDBRANCH   1   9
BRANCH   2  18
ATOM     18  C   UNL     1       2.866   4.585  19.011  0.00  0.00    +0.000 C 
ATOM     19  C   UNL     1       2.010   4.047  17.824  0.00  0.00    +0.000 C 
ATOM     20  C   UNL     1       2.539   2.650  17.504  0.00  0.00    +0.000 C 
ATOM     21  C   UNL     1       3.303   2.195  18.739  0.00  0.00    +0.000 C 
ATOM     22  C   UNL     1       3.048   3.267  19.796  0.00  0.00    +0.000 C 
BRANCH  18  23
ATOM     23  C   UNL     1       4.155   5.246  18.484  0.00  0.00    +0.000 A 
ATOM     24  C   UNL     1       4.196   5.977  17.284  0.00  0.00    +0.000 A 
ATOM     25  C   UNL     1       5.358   6.643  16.877  0.00  0.00    +0.000 A 
ATOM     26  C   UNL     1       6.507   6.576  17.654  0.00  0.00    +0.000 A 
ATOM     27 CL   UNL     1       7.919   7.429  17.164  0.00  0.00    +0.000 Cl
ATOM     28  C   UNL     1       6.512   5.830  18.826  0.00  0.00    +0.000 A 
ATOM     29  C   UNL     1       5.348   5.166  19.233  0.00  0.00    +0.000 A 
ENDBRANCH  18  23
ENDBRANCH   2  18
TORSDOF 5
ENDMDL
MODEL 9
REMARK VINA RESULT:      -8.4      4.404      8.907
REMARK  Name = 
REMARK  5 active torsions:
REMARK  status: ('A' for Active; 'I' for Inactive)
REMARK    1  A    between atoms: C_2  and  C_25
REMARK    2  A    between atoms: N_3  and  C_4
REMARK    3  A    between atoms: C_8  and  N_9
REMARK    4  A    between atoms: C_10  and  C_12
REMARK    5  A    between atoms: C_12  and  C_13
REMARK                            x       y       z     vdW  Elec       q    Type
REMARK                         _______ _______ _______ _____ _____    ______ ____
ROOT
ATOM      1  N   UNL     1       1.460   7.212  21.165  0.00  0.00    +0.000 N 
ATOM      2  C   UNL     1       1.980   6.815  19.935  0.00  0.00    +0.000 C 
ATOM      3  O   UNL     1       2.177   7.571  18.982  0.00  0.00    +0.000 OA
ATOM      4  H   UNL     1       1.571   6.579  21.946  0.00  0.00    +0.000 HD
ENDROOT
BRANCH   1   9
ATOM      5  C   UNL     1       0.792  10.891  20.981  0.00  0.00    +0.000 A 
ATOM      6  C   UNL     1      -0.233  11.005  21.922  0.00  0.00    +0.000 A 
ATOM      7  C   UNL     1      -0.649   9.903  22.659  0.00  0.00    +0.000 A 
ATOM      8  C   UNL     1      -0.073   8.661  22.438  0.00  0.00    +0.000 A 
ATOM      9  C   UNL     1       0.899   8.487  21.448  0.00  0.00    +0.000 A 
ATOM     10  C   UNL     1       1.343   9.617  20.731  0.00  0.00    +0.000 A 
BRANCH   5  13
ATOM     11  O   UNL     1      -0.331  12.155  18.581  0.00  0.00    +0.000 OA
ATOM     12  C   UNL     1       0.704  12.539  19.115  0.00  0.00    +0.000 C 
ATOM     13  N   UNL     1       1.274  12.022  20.268  0.00  0.00    +0.000 N 
ATOM     14  H   UNL     1       2.032  12.543  20.686  0.00  0.00    +0.000 HD
BRANCH  12  15
ATOM     15  C   UNL     1       1.372  13.709  18.474  0.00  0.00    +0.000 C 
ATOM     16  C   UNL     1       2.393  14.617  19.099  0.00  0.00    +0.000 C 
ATOM     17  C   UNL     1       0.990  15.109  18.885  0.00  0.00    +0.000 C 
ENDBRANCH  12  15
ENDBRANCH   5  13
ENDBRANCH   1   9
BRANCH   2  18
ATOM     18  C   UNL     1       2.394   5.325  19.833  0.00  0.00    +0.000 C 
ATOM     19  C   UNL     1       1.200   4.524  19.229  0.00  0.00    +0.000 C 
ATOM     20  C   UNL     1       1.323   3.096  19.755  0.00  0.00    +0.000 C 
ATOM     21  C   UNL     1       2.221   3.174  20.981  0.00  0.00    +0.000 C 
ATOM     22  C   UNL     1       2.449   4.663  21.228  0.00  0.00    +0.000 C 
BRANCH  18  23
ATOM     23  C   UNL     1       3.648   5.160  18.952  0.00  0.00    +0.000 A 
ATOM     24  C   UNL     1       4.953   5.298  19.456  0.00  0.00    +0.000 A 
ATOM     25  C   UNL     1       6.073   5.053  18.654  0.00  0.00    +0.000 A 
ATOM     26  C   UNL     1       5.910   4.682  17.325  0.00  0.00    +0.000 A 
ATOM     27 CL   UNL     1       7.293   4.346  16.359  0.00  0.00    +0.000 Cl
ATOM     28  C   UNL     1       4.635   4.574  16.785  0.00  0.00    +0.000 A 
ATOM     29  C   UNL     1       3.515   4.817  17.590  0.00  0.00    +0.000 A 
ENDBRANCH  18  23
ENDBRANCH   2  18
TORSDOF 5
ENDMDL
