MODEL 1
REMARK VINA RESULT:      -8.6      0.000      0.000
REMARK  Name = 
REMARK  4 active torsions:
REMARK  status: ('A' for Active; 'I' for Inactive)
REMARK    1  A    between atoms: C_1  and  C_2
REMARK    2  A    between atoms: C_6  and  C_8
REMARK    3  A    between atoms: C_18  and  C_19
REMARK    4  A    between atoms: C_19  and  C_20
REMARK                            x       y       z     vdW  Elec       q    Type
REMARK                         _______ _______ _______ _____ _____    ______ ____
ROOT
ATOM      1  C   UNL     1       0.032   9.483  23.120  0.00  0.00    +0.000 C 
ATOM      2  C   UNL     1       0.339   9.391  21.667  0.00  0.00    +0.000 A 
ATOM      3  N   UNL     1       1.196   8.362  21.287  0.00  0.00    +0.000 NA
ATOM      4  C   UNL     1       1.436   8.419  20.002  0.00  0.00    +0.000 A 
ATOM      5  N   UNL     1       2.251   7.501  19.394  0.00  0.00    +0.000 N 
ATOM      6  C   UNL     1       2.841   7.649  18.167  0.00  0.00    +0.000 C 
ATOM      7  O   UNL     1       2.732   8.620  17.415  0.00  0.00    +0.000 OA
ATOM      8  S   UNL     1       0.585   9.613  19.146  0.00  0.00    +0.000 S 
ATOM      9  C   UNL     1      -0.103  10.193  20.617  0.00  0.00    +0.000 A 
ATOM     10  H   UNL     1       2.542   6.767  20.024  0.00  0.00    +0.000 HD
ENDROOT
BRANCH   6  11
ATOM     11  C   UNL     1       3.740   6.544  17.728  0.00  0.00    +0.000 A 
ATOM     12  C   UNL     1       3.321   5.202  17.702  0.00  0.00    +0.000 A 
ATOM     13  C   UNL     1       4.147   4.191  17.186  0.00  0.00    +0.000 A 
ATOM     14  C   UNL     1       5.397   4.590  16.708  0.00  0.00    +0.000 A 
ATOM     15  N   UNL     1       6.435   3.926  16.117  0.00  0.00    +0.000 N 
ATOM     16  N   UNL     1       7.453   4.749  15.818  0.00  0.00    +0.000 NA
ATOM     17  N   UNL     1       7.101   5.970  16.194  0.00  0.00    +0.000 NA
ATOM     18  C   UNL     1       5.846   5.903  16.736  0.00  0.00    +0.000 A 
ATOM     19  C   UNL     1       5.016   6.903  17.253  0.00  0.00    +0.000 A 
ATOM     20  H   UNL     1       6.521   2.944  15.883  0.00  0.00    +0.000 HD
ENDBRANCH   6  11
BRANCH   9  21
ATOM     21  C   UNL     1      -1.049  11.354  20.563  0.00  0.00    +0.000 C 
BRANCH  21  22
ATOM     22  C   UNL     1      -0.757  12.475  21.535  0.00  0.00    +0.000 A 
ATOM     23  C   UNL     1       0.219  13.447  21.264  0.00  0.00    +0.000 A 
ATOM     24  C   UNL     1       0.330  14.584  22.073  0.00  0.00    +0.000 A 
ATOM     25  C   UNL     1      -0.532  14.760  23.157  0.00  0.00    +0.000 A 
ATOM     26  C   UNL     1      -1.458  13.769  23.471  0.00  0.00    +0.000 A 
ATOM     27  C   UNL     1      -1.549  12.630  22.675  0.00  0.00    +0.000 A 
ATOM     28  F   UNL     1      -2.464  11.699  22.981  0.00  0.00    +0.000 F 
ENDBRANCH  21  22
ENDBRANCH   9  21
TORSDOF 3
ENDMDL
MODEL 2
REMARK VINA RESULT:      -8.6      4.286      9.110
REMARK  Name = 
REMARK  4 active torsions:
REMARK  status: ('A' for Active; 'I' for Inactive)
REMARK    1  A    between atoms: C_1  and  C_2
REMARK    2  A    between atoms: C_6  and  C_8
REMARK    3  A    between atoms: C_18  and  C_19
REMARK    4  A    between atoms: C_19  and  C_20
REMARK                            x       y       z     vdW  Elec       q    Type
REMARK                         _______ _______ _______ _____ _____    ______ ____
ROOT
ATOM      1  C   UNL     1       2.127   3.859  21.389  0.00  0.00    +0.000 C 
ATOM      2  C   UNL     1       2.528   4.944  20.453  0.00  0.00    +0.000 A 
ATOM      3  N   UNL     1       1.777   6.114  20.516  0.00  0.00    +0.000 NA
ATOM      4  C   UNL     1       2.185   6.967  19.611  0.00  0.00    +0.000 A 
ATOM      5  N   UNL     1       1.598   8.199  19.485  0.00  0.00    +0.000 N 
ATOM      6  C   UNL     1       1.694   9.018  18.393  0.00  0.00    +0.000 C 
ATOM      7  O   UNL     1       2.321   8.786  17.357  0.00  0.00    +0.000 OA
ATOM      8  S   UNL     1       3.543   6.491  18.710  0.00  0.00    +0.000 S 
ATOM      9  C   UNL     1       3.552   4.963  19.509  0.00  0.00    +0.000 A 
ATOM     10  H   UNL     1       0.915   8.375  20.208  0.00  0.00    +0.000 HD
ENDROOT
BRANCH   6  11
ATOM     11  C   UNL     1       0.920  10.291  18.451  0.00  0.00    +0.000 A 
ATOM     12  C   UNL     1      -0.485  10.312  18.500  0.00  0.00    +0.000 A 
ATOM     13  C   UNL     1      -1.190  11.514  18.660  0.00  0.00    +0.000 A 
ATOM     14  C   UNL     1      -0.425  12.677  18.764  0.00  0.00    +0.000 A 
ATOM     15  N   UNL     1      -0.735  13.995  18.958  0.00  0.00    +0.000 N 
ATOM     16  N   UNL     1       0.362  14.769  18.993  0.00  0.00    +0.000 NA
ATOM     17  N   UNL     1       1.413  13.976  18.838  0.00  0.00    +0.000 NA
ATOM     18  C   UNL     1       0.961  12.692  18.701  0.00  0.00    +0.000 A 
ATOM     19  C   UNL     1       1.655  11.488  18.540  0.00  0.00    +0.000 A 
ATOM     20  H   UNL     1      -1.640  14.431  19.078  0.00  0.00    +0.000 HD
ENDBRANCH   6  11
BRANCH   9  21
ATOM     21  C   UNL     1       4.609   3.964  19.145  0.00  0.00    +0.000 C 
BRANCH  21  22
ATOM     22  C   UNL     1       5.368   4.260  17.871  0.00  0.00    +0.000 A 
ATOM     23  C   UNL     1       6.706   4.688  17.896  0.00  0.00    +0.000 A 
ATOM     24  C   UNL     1       7.449   4.757  16.712  0.00  0.00    +0.000 A 
ATOM     25  C   UNL     1       6.865   4.399  15.496  0.00  0.00    +0.000 A 
ATOM     26  C   UNL     1       5.521   4.037  15.455  0.00  0.00    +0.000 A 
ATOM     27  C   UNL     1       4.781   3.992  16.633  0.00  0.00    +0.000 A 
ATOM     28  F   UNL     1       3.494   3.618  16.574  0.00  0.00    +0.000 F 
ENDBRANCH  21  22
ENDBRANCH   9  21
TORSDOF 3
ENDMDL
MODEL 3
REMARK VINA RESULT:      -8.5      1.396      1.821
REMARK  Name = 
REMARK  4 active torsions:
REMARK  status: ('A' for Active; 'I' for Inactive)
REMARK    1  A    between atoms: C_1  and  C_2
REMARK    2  A    between atoms: C_6  and  C_8
REMARK    3  A    between atoms: C_18  and  C_19
REMARK    4  A    between atoms: C_19  and  C_20
REMARK                            x       y       z     vdW  Elec       q    Type
REMARK                         _______ _______ _______ _____ _____    ______ ____
ROOT
ATOM      1  C   UNL     1      -0.076   9.747  22.849  0.00  0.00    +0.000 C 
ATOM      2  C   UNL     1       0.271   9.602  21.410  0.00  0.00    +0.000 A 
ATOM      3  N   UNL     1       1.131   8.555  21.091  0.00  0.00    +0.000 NA
ATOM      4  C   UNL     1       1.408   8.564  19.812  0.00  0.00    +0.000 A 
ATOM      5  N   UNL     1       2.232   7.619  19.260  0.00  0.00    +0.000 N 
ATOM      6  C   UNL     1       2.857   7.719  18.046  0.00  0.00    +0.000 C 
ATOM      7  O   UNL     1       2.776   8.664  17.257  0.00  0.00    +0.000 OA
ATOM      8  S   UNL     1       0.589   9.731  18.891  0.00  0.00    +0.000 S 
ATOM      9  C   UNL     1      -0.136  10.368  20.320  0.00  0.00    +0.000 A 
ATOM     10  H   UNL     1       2.500   6.907  19.925  0.00  0.00    +0.000 HD
ENDROOT
BRANCH   6  11
ATOM     11  C   UNL     1       3.760   6.595  17.672  0.00  0.00    +0.000 A 
ATOM     12  C   UNL     1       3.336   5.254  17.691  0.00  0.00    +0.000 A 
ATOM     13  C   UNL     1       4.168   4.220  17.236  0.00  0.00    +0.000 A 
ATOM     14  C   UNL     1       5.429   4.594  16.770  0.00  0.00    +0.000 A 
ATOM     15  N   UNL     1       6.478   3.902  16.229  0.00  0.00    +0.000 N 
ATOM     16  N   UNL     1       7.506   4.708  15.920  0.00  0.00    +0.000 NA
ATOM     17  N   UNL     1       7.151   5.945  16.238  0.00  0.00    +0.000 NA
ATOM     18  C   UNL     1       5.884   5.905  16.754  0.00  0.00    +0.000 A 
ATOM     19  C   UNL     1       5.048   6.928  17.212  0.00  0.00    +0.000 A 
ATOM     20  H   UNL     1       6.563   2.911  16.037  0.00  0.00    +0.000 HD
ENDBRANCH   6  11
BRANCH   9  21
ATOM     21  C   UNL     1      -1.072  11.532  20.198  0.00  0.00    +0.000 C 
BRANCH  21  22
ATOM     22  C   UNL     1      -0.421  12.896  20.249  0.00  0.00    +0.000 A 
ATOM     23  C   UNL     1       0.120  13.408  21.440  0.00  0.00    +0.000 A 
ATOM     24  C   UNL     1       0.896  14.573  21.422  0.00  0.00    +0.000 A 
ATOM     25  C   UNL     1       1.139  15.234  20.217  0.00  0.00    +0.000 A 
ATOM     26  C   UNL     1       0.552  14.769  19.043  0.00  0.00    +0.000 A 
ATOM     27  C   UNL     1      -0.236  13.623  19.071  0.00  0.00    +0.000 A 
ATOM     28  F   UNL     1      -0.773  13.179  17.925  0.00  0.00    +0.000 F 
ENDBRANCH  21  22
ENDBRANCH   9  21
TORSDOF 3
ENDMDL
MODEL 4
REMARK VINA RESULT:      -8.4      1.770      2.840
REMARK  Name = 
REMARK  4 active torsions:
REMARK  status: ('A' for Active; 'I' for Inactive)
REMARK    1  A    between atoms: C_1  and  C_2
REMARK    2  A    between atoms: C_6  and  C_8
REMARK    3  A    between atoms: C_18  and  C_19
REMARK    4  A    between atoms: C_19  and  C_20
REMARK                            x       y       z     vdW  Elec       q    Type
REMARK                         _______ _______ _______ _____ _____    ______ ____
ROOT
ATOM      1  C   UNL     1       0.062   9.544  22.807  0.00  0.00    +0.000 C 
ATOM      2  C   UNL     1       0.436   9.433  21.371  0.00  0.00    +0.000 A 
ATOM      3  N   UNL     1       1.291   8.386  21.041  0.00  0.00    +0.000 NA
ATOM      4  C   UNL     1       1.592   8.426  19.769  0.00  0.00    +0.000 A 
ATOM      5  N   UNL     1       2.418   7.488  19.207  0.00  0.00    +0.000 N 
ATOM      6  C   UNL     1       3.067   7.614  18.008  0.00  0.00    +0.000 C 
ATOM      7  O   UNL     1       3.010   8.579  17.243  0.00  0.00    +0.000 OA
ATOM      8  S   UNL     1       0.803   9.626  18.863  0.00  0.00    +0.000 S 
ATOM      9  C   UNL     1       0.057  10.232  20.295  0.00  0.00    +0.000 A 
ATOM     10  H   UNL     1       2.667   6.756  19.858  0.00  0.00    +0.000 HD
ENDROOT
BRANCH   6  11
ATOM     11  C   UNL     1       3.967   6.490  17.622  0.00  0.00    +0.000 A 
ATOM     12  C   UNL     1       3.542   5.150  17.640  0.00  0.00    +0.000 A 
ATOM     13  C   UNL     1       4.369   4.117  17.174  0.00  0.00    +0.000 A 
ATOM     14  C   UNL     1       5.626   4.492  16.697  0.00  0.00    +0.000 A 
ATOM     15  N   UNL     1       6.669   3.802  16.144  0.00  0.00    +0.000 N 
ATOM     16  N   UNL     1       7.695   4.609  15.828  0.00  0.00    +0.000 NA
ATOM     17  N   UNL     1       7.343   5.845  16.153  0.00  0.00    +0.000 NA
ATOM     18  C   UNL     1       6.081   5.803  16.681  0.00  0.00    +0.000 A 
ATOM     19  C   UNL     1       5.250   6.825  17.150  0.00  0.00    +0.000 A 
ATOM     20  H   UNL     1       6.753   2.812  15.947  0.00  0.00    +0.000 HD
ENDBRANCH   6  11
BRANCH   9  21
ATOM     21  C   UNL     1      -0.865  11.408  20.185  0.00  0.00    +0.000 C 
BRANCH  21  22
ATOM     22  C   UNL     1      -2.005  11.250  19.204  0.00  0.00    +0.000 A 
ATOM     23  C   UNL     1      -2.018  10.216  18.253  0.00  0.00    +0.000 A 
ATOM     24  C   UNL     1      -3.169   9.963  17.498  0.00  0.00    +0.000 A 
ATOM     25  C   UNL     1      -4.314  10.739  17.685  0.00  0.00    +0.000 A 
ATOM     26  C   UNL     1      -4.287  11.807  18.578  0.00  0.00    +0.000 A 
ATOM     27  C   UNL     1      -3.133  12.066  19.310  0.00  0.00    +0.000 A 
ATOM     28  F   UNL     1      -3.136  13.085  20.182  0.00  0.00    +0.000 F 
ENDBRANCH  21  22
ENDBRANCH   9  21
TORSDOF 3
ENDMDL
MODEL 5
REMARK VINA RESULT:      -8.4      4.127     10.040
REMARK  Name = 
REMARK  4 active torsions:
REMARK  status: ('A' for Active; 'I' for Inactive)
REMARK    1  A    between atoms: C_1  and  C_2
REMARK    2  A    between atoms: C_6  and  C_8
REMARK    3  A    between atoms: C_18  and  C_19
REMARK    4  A    between atoms: C_19  and  C_20
REMARK                            x       y       z     vdW  Elec       q    Type
REMARK                         _______ _______ _______ _____ _____    ______ ____
ROOT
ATOM      1  C   UNL     1       2.595   8.237  17.413  0.00  0.00    +0.000 C 
ATOM      2  C   UNL     1       2.064   8.277  18.802  0.00  0.00    +0.000 A 
ATOM      3  N   UNL     1       1.219   9.340  19.104  0.00  0.00    +0.000 NA
ATOM      4  C   UNL     1       0.865   9.299  20.363  0.00  0.00    +0.000 A 
ATOM      5  N   UNL     1       0.025  10.244  20.893  0.00  0.00    +0.000 N 
ATOM      6  C   UNL     1      -0.138  10.506  22.227  0.00  0.00    +0.000 C 
ATOM      7  O   UNL     1       0.435   9.937  23.159  0.00  0.00    +0.000 OA
ATOM      8  S   UNL     1       1.413   7.951  21.238  0.00  0.00    +0.000 S 
ATOM      9  C   UNL     1       2.292   7.401  19.861  0.00  0.00    +0.000 A 
ATOM     10  H   UNL     1      -0.331  10.878  20.192  0.00  0.00    +0.000 HD
ENDROOT
BRANCH   6  11
ATOM     11  C   UNL     1      -1.061  11.623  22.573  0.00  0.00    +0.000 A 
ATOM     12  C   UNL     1      -0.838  12.941  22.139  0.00  0.00    +0.000 A 
ATOM     13  C   UNL     1      -1.773  13.958  22.387  0.00  0.00    +0.000 A 
ATOM     14  C   UNL     1      -2.925  13.589  23.085  0.00  0.00    +0.000 A 
ATOM     15  N   UNL     1      -4.048  14.265  23.474  0.00  0.00    +0.000 N 
ATOM     16  N   UNL     1      -4.908  13.473  24.134  0.00  0.00    +0.000 NA
ATOM     17  N   UNL     1      -4.376  12.260  24.180  0.00  0.00    +0.000 NA
ATOM     18  C   UNL     1      -3.166  12.301  23.541  0.00  0.00    +0.000 A 
ATOM     19  C   UNL     1      -2.227  11.296  23.290  0.00  0.00    +0.000 A 
ATOM     20  H   UNL     1      -4.298  15.235  23.326  0.00  0.00    +0.000 HD
ENDBRANCH   6  11
BRANCH   9  21
ATOM     21  C   UNL     1       3.077   6.128  19.967  0.00  0.00    +0.000 C 
BRANCH  21  22
ATOM     22  C   UNL     1       2.302   4.863  19.675  0.00  0.00    +0.000 A 
ATOM     23  C   UNL     1       1.527   4.231  20.661  0.00  0.00    +0.000 A 
ATOM     24  C   UNL     1       0.659   3.187  20.319  0.00  0.00    +0.000 A 
ATOM     25  C   UNL     1       0.559   2.766  18.993  0.00  0.00    +0.000 A 
ATOM     26  C   UNL     1       1.373   3.342  18.021  0.00  0.00    +0.000 A 
ATOM     27  C   UNL     1       2.249   4.365  18.371  0.00  0.00    +0.000 A 
ATOM     28  F   UNL     1       3.006   4.923  17.415  0.00  0.00    +0.000 F 
ENDBRANCH  21  22
ENDBRANCH   9  21
TORSDOF 3
ENDMDL
MODEL 6
REMARK VINA RESULT:      -8.3      3.752      9.344
REMARK  Name = 
REMARK  4 active torsions:
REMARK  status: ('A' for Active; 'I' for Inactive)
REMARK    1  A    between atoms: C_1  and  C_2
REMARK    2  A    between atoms: C_6  and  C_8
REMARK    3  A    between atoms: C_18  and  C_19
REMARK    4  A    between atoms: C_19  and  C_20
REMARK                            x       y       z     vdW  Elec       q    Type
REMARK                         _______ _______ _______ _____ _____    ______ ____
ROOT
ATOM      1  C   UNL     1       2.478   3.046  20.777  0.00  0.00    +0.000 C 
ATOM      2  C   UNL     1       2.566   4.300  19.981  0.00  0.00    +0.000 A 
ATOM      3  N   UNL     1       2.099   5.454  20.602  0.00  0.00    +0.000 NA
ATOM      4  C   UNL     1       2.174   6.474  19.787  0.00  0.00    +0.000 A 
ATOM      5  N   UNL     1       1.776   7.725  20.181  0.00  0.00    +0.000 N 
ATOM      6  C   UNL     1       1.488   8.769  19.343  0.00  0.00    +0.000 C 
ATOM      7  O   UNL     1       1.543   8.756  18.111  0.00  0.00    +0.000 OA
ATOM      8  S   UNL     1       2.900   6.163  18.284  0.00  0.00    +0.000 S 
ATOM      9  C   UNL     1       3.049   4.493  18.689  0.00  0.00    +0.000 A 
ATOM     10  H   UNL     1       1.523   7.758  21.158  0.00  0.00    +0.000 HD
ENDROOT
BRANCH   6  11
ATOM     11  C   UNL     1       1.012  10.024  19.991  0.00  0.00    +0.000 A 
ATOM     12  C   UNL     1       1.005  11.258  19.317  0.00  0.00    +0.000 A 
ATOM     13  C   UNL     1       0.456  12.407  19.907  0.00  0.00    +0.000 A 
ATOM     14  C   UNL     1      -0.074  12.257  21.190  0.00  0.00    +0.000 A 
ATOM     15  N   UNL     1      -0.708  13.107  22.053  0.00  0.00    +0.000 N 
ATOM     16  N   UNL     1      -1.049  12.496  23.199  0.00  0.00    +0.000 NA
ATOM     17  N   UNL     1      -0.661  11.233  23.108  0.00  0.00    +0.000 NA
ATOM     18  C   UNL     1      -0.066  11.057  21.888  0.00  0.00    +0.000 A 
ATOM     19  C   UNL     1       0.484   9.918  21.291  0.00  0.00    +0.000 A 
ATOM     20  H   UNL     1      -0.944  14.085  21.935  0.00  0.00    +0.000 HD
ENDBRANCH   6  11
BRANCH   9  21
ATOM     21  C   UNL     1       3.675   3.563  17.694  0.00  0.00    +0.000 C 
BRANCH  21  22
ATOM     22  C   UNL     1       4.953   4.061  17.057  0.00  0.00    +0.000 A 
ATOM     23  C   UNL     1       5.050   4.269  15.671  0.00  0.00    +0.000 A 
ATOM     24  C   UNL     1       6.164   4.921  15.130  0.00  0.00    +0.000 A 
ATOM     25  C   UNL     1       7.188   5.371  15.966  0.00  0.00    +0.000 A 
ATOM     26  C   UNL     1       7.129   5.109  17.332  0.00  0.00    +0.000 A 
ATOM     27  C   UNL     1       6.029   4.441  17.861  0.00  0.00    +0.000 A 
ATOM     28  F   UNL     1       5.982   4.221  19.183  0.00  0.00    +0.000 F 
ENDBRANCH  21  22
ENDBRANCH   9  21
TORSDOF 3
ENDMDL
MODEL 7
REMARK VINA RESULT:      -8.3      2.615      3.693
REMARK  Name = 
REMARK  4 active torsions:
REMARK  status: ('A' for Active; 'I' for Inactive)
REMARK    1  A    between atoms: C_1  and  C_2
REMARK    2  A    between atoms: C_6  and  C_8
REMARK    3  A    between atoms: C_18  and  C_19
REMARK    4  A    between atoms: C_19  and  C_20
REMARK                            x       y       z     vdW  Elec       q    Type
REMARK                         _______ _______ _______ _____ _____    ______ ____
ROOT
ATOM      1  C   UNL     1      -0.603  11.261  22.016  0.00  0.00    +0.000 C 
ATOM      2  C   UNL     1      -0.124  10.701  20.724  0.00  0.00    +0.000 A 
ATOM      3  N   UNL     1       0.639   9.540  20.805  0.00  0.00    +0.000 NA
ATOM      4  C   UNL     1       1.048   9.178  19.616  0.00  0.00    +0.000 A 
ATOM      5  N   UNL     1       1.813   8.054  19.443  0.00  0.00    +0.000 N 
ATOM      6  C   UNL     1       2.570   7.769  18.339  0.00  0.00    +0.000 C 
ATOM      7  O   UNL     1       2.682   8.466  17.328  0.00  0.00    +0.000 OA
ATOM      8  S   UNL     1       0.471  10.114  18.323  0.00  0.00    +0.000 S 
ATOM      9  C   UNL     1      -0.323  11.173  19.428  0.00  0.00    +0.000 A 
ATOM     10  H   UNL     1       1.926   7.530  20.299  0.00  0.00    +0.000 HD
ENDROOT
BRANCH   6  11
ATOM     11  C   UNL     1       3.373   6.515  18.393  0.00  0.00    +0.000 A 
ATOM     12  C   UNL     1       4.578   6.365  17.685  0.00  0.00    +0.000 A 
ATOM     13  C   UNL     1       5.373   5.218  17.832  0.00  0.00    +0.000 A 
ATOM     14  C   UNL     1       4.900   4.241  18.711  0.00  0.00    +0.000 A 
ATOM     15  N   UNL     1       5.392   3.038  19.136  0.00  0.00    +0.000 N 
ATOM     16  N   UNL     1       4.569   2.439  20.011  0.00  0.00    +0.000 NA
ATOM     17  N   UNL     1       3.528   3.239  20.190  0.00  0.00    +0.000 NA
ATOM     18  C   UNL     1       3.707   4.351  19.411  0.00  0.00    +0.000 A 
ATOM     19  C   UNL     1       2.923   5.498  19.257  0.00  0.00    +0.000 A 
ATOM     20  H   UNL     1       6.258   2.575  18.890  0.00  0.00    +0.000 HD
ENDBRANCH   6  11
BRANCH   9  21
ATOM     21  C   UNL     1      -1.101  12.333  18.884  0.00  0.00    +0.000 C 
BRANCH  21  22
ATOM     22  C   UNL     1      -2.515  12.018  18.450  0.00  0.00    +0.000 A 
ATOM     23  C   UNL     1      -2.788  11.425  17.207  0.00  0.00    +0.000 A 
ATOM     24  C   UNL     1      -4.073  10.956  16.913  0.00  0.00    +0.000 A 
ATOM     25  C   UNL     1      -5.095  11.074  17.856  0.00  0.00    +0.000 A 
ATOM     26  C   UNL     1      -4.849  11.720  19.065  0.00  0.00    +0.000 A 
ATOM     27  C   UNL     1      -3.574  12.204  19.342  0.00  0.00    +0.000 A 
ATOM     28  F   UNL     1      -3.352  12.801  20.522  0.00  0.00    +0.000 F 
ENDBRANCH  21  22
ENDBRANCH   9  21
TORSDOF 3
ENDMDL
MODEL 8
REMARK VINA RESULT:      -8.3      4.415      9.239
REMARK  Name = 
REMARK  4 active torsions:
REMARK  status: ('A' for Active; 'I' for Inactive)
REMARK    1  A    between atoms: C_1  and  C_2
REMARK    2  A    between atoms: C_6  and  C_8
REMARK    3  A    between atoms: C_18  and  C_19
REMARK    4  A    between atoms: C_19  and  C_20
REMARK                            x       y       z     vdW  Elec       q    Type
REMARK                         _______ _______ _______ _____ _____    ______ ____
ROOT
ATOM      1  C   UNL     1       2.482   3.673  21.023  0.00  0.00    +0.000 C 
ATOM      2  C   UNL     1       2.851   4.840  20.176  0.00  0.00    +0.000 A 
ATOM      3  N   UNL     1       1.998   5.937  20.241  0.00  0.00    +0.000 NA
ATOM      4  C   UNL     1       2.391   6.871  19.414  0.00  0.00    +0.000 A 
ATOM      5  N   UNL     1       1.709   8.055  19.308  0.00  0.00    +0.000 N 
ATOM      6  C   UNL     1       1.808   8.941  18.268  0.00  0.00    +0.000 C 
ATOM      7  O   UNL     1       2.525   8.822  17.272  0.00  0.00    +0.000 OA
ATOM      8  S   UNL     1       3.845   6.564  18.594  0.00  0.00    +0.000 S 
ATOM      9  C   UNL     1       3.933   4.999  19.313  0.00  0.00    +0.000 A 
ATOM     10  H   UNL     1       0.963   8.132  19.985  0.00  0.00    +0.000 HD
ENDROOT
BRANCH   6  11
ATOM     11  C   UNL     1       0.923  10.138  18.333  0.00  0.00    +0.000 A 
ATOM     12  C   UNL     1      -0.477  10.039  18.265  0.00  0.00    +0.000 A 
ATOM     13  C   UNL     1      -1.297  11.166  18.433  0.00  0.00    +0.000 A 
ATOM     14  C   UNL     1      -0.647  12.380  18.666  0.00  0.00    +0.000 A 
ATOM     15  N   UNL     1      -1.086  13.652  18.908  0.00  0.00    +0.000 N 
ATOM     16  N   UNL     1      -0.068  14.511  19.080  0.00  0.00    +0.000 NA
ATOM     17  N   UNL     1       1.058  13.820  18.969  0.00  0.00    +0.000 NA
ATOM     18  C   UNL     1       0.733  12.513  18.722  0.00  0.00    +0.000 A 
ATOM     19  C   UNL     1       1.540  11.384  18.552  0.00  0.00    +0.000 A 
ATOM     20  H   UNL     1      -2.033  14.004  18.976  0.00  0.00    +0.000 HD
ENDBRANCH   6  11
BRANCH   9  21
ATOM     21  C   UNL     1       5.096   4.115  18.978  0.00  0.00    +0.000 C 
BRANCH  21  22
ATOM     22  C   UNL     1       5.602   4.220  17.557  0.00  0.00    +0.000 A 
ATOM     23  C   UNL     1       4.744   4.060  16.457  0.00  0.00    +0.000 A 
ATOM     24  C   UNL     1       5.186   4.364  15.164  0.00  0.00    +0.000 A 
ATOM     25  C   UNL     1       6.485   4.829  14.959  0.00  0.00    +0.000 A 
ATOM     26  C   UNL     1       7.363   4.926  16.036  0.00  0.00    +0.000 A 
ATOM     27  C   UNL     1       6.924   4.602  17.316  0.00  0.00    +0.000 A 
ATOM     28  F   UNL     1       7.778   4.726  18.343  0.00  0.00    +0.000 F 
ENDBRANCH  21  22
ENDBRANCH   9  21
TORSDOF 3
ENDMDL
MODEL 9
REMARK VINA RESULT:      -8.3      4.136      9.278
REMARK  Name = 
REMARK  4 active torsions:
REMARK  status: ('A' for Active; 'I' for Inactive)
REMARK    1  A    between atoms: C_1  and  C_2
REMARK    2  A    between atoms: C_6  and  C_8
REMARK    3  A    between atoms: C_18  and  C_19
REMARK    4  A    between atoms: C_19  and  C_20
REMARK                            x       y       z     vdW  Elec       q    Type
REMARK                         _______ _______ _______ _____ _____    ______ ____
ROOT
ATOM      1  C   UNL     1       2.018   3.730  21.395  0.00  0.00    +0.000 C 
ATOM      2  C   UNL     1       2.444   4.836  20.495  0.00  0.00    +0.000 A 
ATOM      3  N   UNL     1       1.789   6.052  20.668  0.00  0.00    +0.000 NA
ATOM      4  C   UNL     1       2.205   6.924  19.787  0.00  0.00    +0.000 A 
ATOM      5  N   UNL     1       1.707   8.201  19.765  0.00  0.00    +0.000 N 
ATOM      6  C   UNL     1       1.799   9.074  18.715  0.00  0.00    +0.000 C 
ATOM      7  O   UNL     1       2.343   8.858  17.630  0.00  0.00    +0.000 OA
ATOM      8  S   UNL     1       3.466   6.405  18.776  0.00  0.00    +0.000 S 
ATOM      9  C   UNL     1       3.407   4.836  19.489  0.00  0.00    +0.000 A 
ATOM     10  H   UNL     1       1.083   8.384  20.539  0.00  0.00    +0.000 HD
ENDROOT
BRANCH   6  11
ATOM     11  C   UNL     1       1.128  10.393  18.891  0.00  0.00    +0.000 A 
ATOM     12  C   UNL     1       1.710  11.594  18.448  0.00  0.00    +0.000 A 
ATOM     13  C   UNL     1       1.018  12.813  18.528  0.00  0.00    +0.000 A 
ATOM     14  C   UNL     1      -0.268  12.764  19.069  0.00  0.00    +0.000 A 
ATOM     15  N   UNL     1      -1.240  13.704  19.274  0.00  0.00    +0.000 N 
ATOM     16  N   UNL     1      -2.341  13.175  19.833  0.00  0.00    +0.000 NA
ATOM     17  N   UNL     1      -2.121  11.878  19.993  0.00  0.00    +0.000 NA
ATOM     18  C   UNL     1      -0.864  11.598  19.530  0.00  0.00    +0.000 A 
ATOM     19  C   UNL     1      -0.165  10.390  19.447  0.00  0.00    +0.000 A 
ATOM     20  H   UNL     1      -1.233  14.694  19.060  0.00  0.00    +0.000 HD
ENDBRANCH   6  11
BRANCH   9  21
ATOM     21  C   UNL     1       4.362   3.787  19.005  0.00  0.00    +0.000 C 
BRANCH  21  22
ATOM     22  C   UNL     1       5.215   4.184  17.821  0.00  0.00    +0.000 A 
ATOM     23  C   UNL     1       6.541   4.616  17.983  0.00  0.00    +0.000 A 
ATOM     24  C   UNL     1       7.373   4.780  16.869  0.00  0.00    +0.000 A 
ATOM     25  C   UNL     1       6.890   4.513  15.588  0.00  0.00    +0.000 A 
ATOM     26  C   UNL     1       5.557   4.147  15.414  0.00  0.00    +0.000 A 
ATOM     27  C   UNL     1       4.729   4.008  16.524  0.00  0.00    +0.000 A 
ATOM     28  F   UNL     1       3.455   3.632  16.336  0.00  0.00    +0.000 F 
ENDBRANCH  21  22
ENDBRANCH   9  21
TORSDOF 3
ENDMDL
