MODEL 1
REMARK VINA RESULT:      -8.9      0.000      0.000
REMARK  Name = 
REMARK  5 active torsions:
REMARK  status: ('A' for Active; 'I' for Inactive)
REMARK    1  A    between atoms: C_2  and  C_23
REMARK    2  A    between atoms: N_3  and  C_4
REMARK    3  A    between atoms: C_8  and  S_9
REMARK    4  A    between atoms: S_9  and  N_12
REMARK    5  A    between atoms: C_20  and  O_21
REMARK                            x       y       z     vdW  Elec       q    Type
REMARK                         _______ _______ _______ _____ _____    ______ ____
ROOT
ATOM      1  C   UNL     1       1.918   5.241  20.662  0.00  0.00    +0.000 A 
ATOM      2  C   UNL     1       2.190   4.241  21.604  0.00  0.00    +0.000 A 
ATOM      3  C   UNL     1       2.503   2.947  21.207  0.00  0.00    +0.000 A 
ATOM      4  C   UNL     1       2.672   2.666  19.865  0.00  0.00    +0.000 A 
ATOM      5  C   UNL     1       2.648   3.709  18.936  0.00  0.00    +0.000 A 
ATOM      6  C   UNL     1       2.154   4.970  19.307  0.00  0.00    +0.000 A 
ENDROOT
BRANCH   1   9
ATOM      7  O   UNL     1       2.331   7.788  19.295  0.00  0.00    +0.000 OA
ATOM      8  C   UNL     1       1.671   7.696  20.330  0.00  0.00    +0.000 C 
ATOM      9  N   UNL     1       1.475   6.524  21.050  0.00  0.00    +0.000 N 
ATOM     10  H   UNL     1       1.062   6.633  21.972  0.00  0.00    +0.000 HD
BRANCH   8  11
ATOM     11  C   UNL     1       1.037   8.865  20.892  0.00  0.00    +0.000 A 
ATOM     12  C   UNL     1       0.351   9.004  22.085  0.00  0.00    +0.000 A 
ATOM     13  C   UNL     1      -0.050  10.362  22.165  0.00  0.00    +0.000 A 
ATOM     14  C   UNL     1       0.399  10.953  21.011  0.00  0.00    +0.000 A 
ATOM     15  O   UNL     1       1.068  10.062  20.233  0.00  0.00    +0.000 OA
ENDBRANCH   8  11
ENDBRANCH   1   9
BRANCH   5  16
ATOM     16  S   UNL     1       3.351   3.407  17.322  0.00  0.00    +0.000 S 
ATOM     17  O   UNL     1       4.262   2.291  17.500  0.00  0.00    +0.000 OA
ATOM     18  O   UNL     1       2.282   3.328  16.346  0.00  0.00    +0.000 OA
BRANCH  16  19
ATOM     19  N   UNL     1       4.303   4.758  16.957  0.00  0.00    +0.000 NA
ATOM     20  C   UNL     1       4.914   4.941  15.639  0.00  0.00    +0.000 C 
ATOM     21  C   UNL     1       6.282   5.524  15.954  0.00  0.00    +0.000 C 
ATOM     22  C   UNL     1       7.269   4.545  16.638  0.00  0.00    +0.000 C 
ATOM     23  C   UNL     1       7.342   5.052  18.099  0.00  0.00    +0.000 C 
ATOM     24  C   UNL     1       7.309   6.555  17.852  0.00  0.00    +0.000 C 
ATOM     25  C   UNL     1       5.977   6.499  17.096  0.00  0.00    +0.000 C 
ATOM     26  C   UNL     1       5.000   5.616  17.954  0.00  0.00    +0.000 C 
ATOM     27  C   UNL     1       6.019   4.931  18.877  0.00  0.00    +0.000 C 
BRANCH  27  28
ATOM     28  O   UNL     1       5.724   3.641  19.314  0.00  0.00    +0.000 OA
ATOM     29  H   UNL     1       5.733   3.046  18.547  0.00  0.00    +0.000 HD
ENDBRANCH  27  28
ENDBRANCH  16  19
ENDBRANCH   5  16
TORSDOF 5
ENDMDL
MODEL 2
REMARK VINA RESULT:      -8.8      3.828      6.532
REMARK  Name = 
REMARK  5 active torsions:
REMARK  status: ('A' for Active; 'I' for Inactive)
REMARK    1  A    between atoms: C_2  and  C_23
REMARK    2  A    between atoms: N_3  and  C_4
REMARK    3  A    between atoms: C_8  and  S_9
REMARK    4  A    between atoms: S_9  and  N_12
REMARK    5  A    between atoms: C_20  and  O_21
REMARK                            x       y       z     vdW  Elec       q    Type
REMARK                         _______ _______ _______ _____ _____    ______ ____
ROOT
ATOM      1  C   UNL     1       7.914   7.920  18.029  0.00  0.00    +0.000 A 
ATOM      2  C   UNL     1       8.481   7.084  18.999  0.00  0.00    +0.000 A 
ATOM      3  C   UNL     1       7.886   5.876  19.342  0.00  0.00    +0.000 A 
ATOM      4  C   UNL     1       6.788   5.430  18.632  0.00  0.00    +0.000 A 
ATOM      5  C   UNL     1       6.366   6.135  17.503  0.00  0.00    +0.000 A 
ATOM      6  C   UNL     1       6.841   7.436  17.269  0.00  0.00    +0.000 A 
ENDROOT
BRANCH   1   9
ATOM      7  O   UNL     1       8.998   9.862  19.921  0.00  0.00    +0.000 OA
ATOM      8  C   UNL     1       8.975  10.067  18.708  0.00  0.00    +0.000 C 
ATOM      9  N   UNL     1       8.434   9.205  17.762  0.00  0.00    +0.000 N 
ATOM     10  H   UNL     1       8.324   9.585  16.826  0.00  0.00    +0.000 HD
BRANCH   8  11
ATOM     11  C   UNL     1       9.527  11.288  18.169  0.00  0.00    +0.000 A 
ATOM     12  C   UNL     1      10.823  11.565  17.771  0.00  0.00    +0.000 A 
ATOM     13  C   UNL     1      10.824  12.902  17.300  0.00  0.00    +0.000 A 
ATOM     14  C   UNL     1       9.538  13.357  17.461  0.00  0.00    +0.000 A 
ATOM     15  O   UNL     1       8.738  12.387  17.977  0.00  0.00    +0.000 OA
ENDBRANCH   8  11
ENDBRANCH   1   9
BRANCH   5  16
ATOM     16  S   UNL     1       5.299   5.295  16.343  0.00  0.00    +0.000 S 
ATOM     17  O   UNL     1       5.248   6.154  15.173  0.00  0.00    +0.000 OA
ATOM     18  O   UNL     1       5.727   3.916  16.219  0.00  0.00    +0.000 OA
BRANCH  16  19
ATOM     19  N   UNL     1       3.749   5.310  17.024  0.00  0.00    +0.000 NA
ATOM     20  C   UNL     1       3.234   6.473  17.748  0.00  0.00    +0.000 C 
ATOM     21  C   UNL     1       2.462   5.863  18.907  0.00  0.00    +0.000 C 
ATOM     22  C   UNL     1       3.335   5.170  19.982  0.00  0.00    +0.000 C 
ATOM     23  C   UNL     1       3.077   3.661  19.754  0.00  0.00    +0.000 C 
ATOM     24  C   UNL     1       1.589   3.701  19.434  0.00  0.00    +0.000 C 
ATOM     25  C   UNL     1       1.769   4.662  18.254  0.00  0.00    +0.000 C 
ATOM     26  C   UNL     1       2.954   4.105  17.385  0.00  0.00    +0.000 C 
ATOM     27  C   UNL     1       3.578   3.132  18.398  0.00  0.00    +0.000 C 
BRANCH  27  28
ATOM     28  O   UNL     1       4.955   2.931  18.331  0.00  0.00    +0.000 OA
ATOM     29  H   UNL     1       5.243   2.498  19.151  0.00  0.00    +0.000 HD
ENDBRANCH  27  28
ENDBRANCH  16  19
ENDBRANCH   5  16
TORSDOF 5
ENDMDL
MODEL 3
REMARK VINA RESULT:      -8.3      3.153      8.198
REMARK  Name = 
REMARK  5 active torsions:
REMARK  status: ('A' for Active; 'I' for Inactive)
REMARK    1  A    between atoms: C_2  and  C_23
REMARK    2  A    between atoms: N_3  and  C_4
REMARK    3  A    between atoms: C_8  and  S_9
REMARK    4  A    between atoms: S_9  and  N_12
REMARK    5  A    between atoms: C_20  and  O_21
REMARK                            x       y       z     vdW  Elec       q    Type
REMARK                         _______ _______ _______ _____ _____    ______ ____
ROOT
ATOM      1  C   UNL     1       6.058   4.598  15.385  0.00  0.00    +0.000 A 
ATOM      2  C   UNL     1       7.246   5.161  15.870  0.00  0.00    +0.000 A 
ATOM      3  C   UNL     1       7.229   6.114  16.881  0.00  0.00    +0.000 A 
ATOM      4  C   UNL     1       6.036   6.424  17.506  0.00  0.00    +0.000 A 
ATOM      5  C   UNL     1       4.888   5.689  17.202  0.00  0.00    +0.000 A 
ATOM      6  C   UNL     1       4.862   4.866  16.065  0.00  0.00    +0.000 A 
ENDROOT
BRANCH   1   9
ATOM      7  O   UNL     1       7.260   5.007  12.756  0.00  0.00    +0.000 OA
ATOM      8  C   UNL     1       6.679   3.965  13.059  0.00  0.00    +0.000 C 
ATOM      9  N   UNL     1       6.050   3.726  14.275  0.00  0.00    +0.000 N 
ATOM     10  H   UNL     1       5.462   2.899  14.316  0.00  0.00    +0.000 HD
BRANCH   8  11
ATOM     11  C   UNL     1       6.602   2.876  12.114  0.00  0.00    +0.000 A 
ATOM     12  C   UNL     1       7.597   2.326  11.326  0.00  0.00    +0.000 A 
ATOM     13  C   UNL     1       6.996   1.269  10.596  0.00  0.00    +0.000 A 
ATOM     14  C   UNL     1       5.675   1.259  10.970  0.00  0.00    +0.000 A 
ATOM     15  O   UNL     1       5.423   2.221  11.897  0.00  0.00    +0.000 OA
ENDBRANCH   8  11
ENDBRANCH   1   9
BRANCH   5  16
ATOM     16  S   UNL     1       3.521   5.761  18.349  0.00  0.00    +0.000 S 
ATOM     17  O   UNL     1       3.904   6.747  19.344  0.00  0.00    +0.000 OA
ATOM     18  O   UNL     1       2.286   5.915  17.606  0.00  0.00    +0.000 OA
BRANCH  16  19
ATOM     19  N   UNL     1       3.482   4.265  19.138  0.00  0.00    +0.000 NA
ATOM     20  C   UNL     1       3.273   3.011  18.411  0.00  0.00    +0.000 C 
ATOM     21  C   UNL     1       2.379   2.202  19.337  0.00  0.00    +0.000 C 
ATOM     22  C   UNL     1       0.934   2.740  19.485  0.00  0.00    +0.000 C 
ATOM     23  C   UNL     1       0.906   3.343  20.910  0.00  0.00    +0.000 C 
ATOM     24  C   UNL     1       1.755   2.313  21.642  0.00  0.00    +0.000 C 
ATOM     25  C   UNL     1       2.963   2.509  20.720  0.00  0.00    +0.000 C 
ATOM     26  C   UNL     1       3.188   4.058  20.583  0.00  0.00    +0.000 C 
ATOM     27  C   UNL     1       1.830   4.560  21.099  0.00  0.00    +0.000 C 
BRANCH  27  28
ATOM     28  O   UNL     1       1.338   5.747  20.561  0.00  0.00    +0.000 OA
ATOM     29  H   UNL     1       1.892   5.996  19.803  0.00  0.00    +0.000 HD
ENDBRANCH  27  28
ENDBRANCH  16  19
ENDBRANCH   5  16
TORSDOF 5
ENDMDL
MODEL 4
REMARK VINA RESULT:      -8.1      1.176      1.566
REMARK  Name = 
REMARK  5 active torsions:
REMARK  status: ('A' for Active; 'I' for Inactive)
REMARK    1  A    between atoms: C_2  and  C_23
REMARK    2  A    between atoms: N_3  and  C_4
REMARK    3  A    between atoms: C_8  and  S_9
REMARK    4  A    between atoms: S_9  and  N_12
REMARK    5  A    between atoms: C_20  and  O_21
REMARK                            x       y       z     vdW  Elec       q    Type
REMARK                         _______ _______ _______ _____ _____    ______ ____
ROOT
ATOM      1  C   UNL     1       1.971   6.730  19.866  0.00  0.00    +0.000 A 
ATOM      2  C   UNL     1       1.869   6.031  21.076  0.00  0.00    +0.000 A 
ATOM      3  C   UNL     1       1.945   4.645  21.113  0.00  0.00    +0.000 A 
ATOM      4  C   UNL     1       2.250   3.947  19.960  0.00  0.00    +0.000 A 
ATOM      5  C   UNL     1       2.598   4.648  18.803  0.00  0.00    +0.000 A 
ATOM      6  C   UNL     1       2.344   6.026  18.713  0.00  0.00    +0.000 A 
ENDROOT
BRANCH   1   9
ATOM      7  O   UNL     1       0.033   8.352  21.328  0.00  0.00    +0.000 OA
ATOM      8  C   UNL     1       0.851   8.844  20.553  0.00  0.00    +0.000 C 
ATOM      9  N   UNL     1       1.768   8.126  19.796  0.00  0.00    +0.000 N 
ATOM     10  H   UNL     1       2.254   8.648  19.073  0.00  0.00    +0.000 HD
BRANCH   8  11
ATOM     11  C   UNL     1       0.902  10.275  20.365  0.00  0.00    +0.000 A 
ATOM     12  C   UNL     1       0.906  11.008  19.191  0.00  0.00    +0.000 A 
ATOM     13  C   UNL     1       0.945  12.375  19.568  0.00  0.00    +0.000 A 
ATOM     14  C   UNL     1       0.983  12.384  20.940  0.00  0.00    +0.000 A 
ATOM     15  O   UNL     1       0.948  11.119  21.439  0.00  0.00    +0.000 OA
ENDBRANCH   8  11
ENDBRANCH   1   9
BRANCH   5  16
ATOM     16  S   UNL     1       3.454   3.758  17.512  0.00  0.00    +0.000 S 
ATOM     17  O   UNL     1       4.252   2.756  18.197  0.00  0.00    +0.000 OA
ATOM     18  O   UNL     1       2.499   3.361  16.496  0.00  0.00    +0.000 OA
BRANCH  16  19
ATOM     19  N   UNL     1       4.542   4.854  16.819  0.00  0.00    +0.000 NA
ATOM     20  C   UNL     1       5.296   4.534  15.606  0.00  0.00    +0.000 C 
ATOM     21  C   UNL     1       6.666   5.138  15.863  0.00  0.00    +0.000 C 
ATOM     22  C   UNL     1       7.499   4.429  16.960  0.00  0.00    +0.000 C 
ATOM     23  C   UNL     1       7.463   5.419  18.150  0.00  0.00    +0.000 C 
ATOM     24  C   UNL     1       7.574   6.735  17.393  0.00  0.00    +0.000 C 
ATOM     25  C   UNL     1       6.325   6.466  16.547  0.00  0.00    +0.000 C 
ATOM     26  C   UNL     1       5.200   5.983  17.532  0.00  0.00    +0.000 C 
ATOM     27  C   UNL     1       6.063   5.632  18.754  0.00  0.00    +0.000 C 
BRANCH  27  28
ATOM     28  O   UNL     1       5.625   4.594  19.573  0.00  0.00    +0.000 OA
ATOM     29  H   UNL     1       6.004   4.719  20.458  0.00  0.00    +0.000 HD
ENDBRANCH  27  28
ENDBRANCH  16  19
ENDBRANCH   5  16
TORSDOF 5
ENDMDL
MODEL 5
REMARK VINA RESULT:      -8.0      3.044      6.456
REMARK  Name = 
REMARK  5 active torsions:
REMARK  status: ('A' for Active; 'I' for Inactive)
REMARK    1  A    between atoms: C_2  and  C_23
REMARK    2  A    between atoms: N_3  and  C_4
REMARK    3  A    between atoms: C_8  and  S_9
REMARK    4  A    between atoms: S_9  and  N_12
REMARK    5  A    between atoms: C_20  and  O_21
REMARK                            x       y       z     vdW  Elec       q    Type
REMARK                         _______ _______ _______ _____ _____    ______ ____
ROOT
ATOM      1  C   UNL     1       6.847   6.870  16.931  0.00  0.00    +0.000 A 
ATOM      2  C   UNL     1       7.439   6.069  15.947  0.00  0.00    +0.000 A 
ATOM      3  C   UNL     1       6.971   4.787  15.685  0.00  0.00    +0.000 A 
ATOM      4  C   UNL     1       5.827   4.337  16.316  0.00  0.00    +0.000 A 
ATOM      5  C   UNL     1       5.089   5.215  17.111  0.00  0.00    +0.000 A 
ATOM      6  C   UNL     1       5.651   6.435  17.520  0.00  0.00    +0.000 A 
ENDROOT
BRANCH   1   9
ATOM      7  O   UNL     1       8.670   7.479  19.129  0.00  0.00    +0.000 OA
ATOM      8  C   UNL     1       8.288   8.336  18.334  0.00  0.00    +0.000 C 
ATOM      9  N   UNL     1       7.390   8.121  17.296  0.00  0.00    +0.000 N 
ATOM     10  H   UNL     1       7.033   8.954  16.837  0.00  0.00    +0.000 HD
BRANCH   8  11
ATOM     11  C   UNL     1       8.769   9.694  18.445  0.00  0.00    +0.000 A 
ATOM     12  C   UNL     1       8.500  10.789  17.643  0.00  0.00    +0.000 A 
ATOM     13  C   UNL     1       9.209  11.883  18.203  0.00  0.00    +0.000 A 
ATOM     14  C   UNL     1       9.877  11.378  19.292  0.00  0.00    +0.000 A 
ATOM     15  O   UNL     1       9.613  10.055  19.457  0.00  0.00    +0.000 OA
ENDBRANCH   8  11
ENDBRANCH   1   9
BRANCH   5  16
ATOM     16  S   UNL     1       3.399   4.778  17.493  0.00  0.00    +0.000 S 
ATOM     17  O   UNL     1       2.656   6.024  17.439  0.00  0.00    +0.000 OA
ATOM     18  O   UNL     1       3.002   3.655  16.668  0.00  0.00    +0.000 OA
BRANCH  16  19
ATOM     19  N   UNL     1       3.391   4.278  19.110  0.00  0.00    +0.000 NA
ATOM     20  C   UNL     1       4.344   3.290  19.620  0.00  0.00    +0.000 C 
ATOM     21  C   UNL     1       3.515   2.450  20.578  0.00  0.00    +0.000 C 
ATOM     22  C   UNL     1       2.445   1.555  19.905  0.00  0.00    +0.000 C 
ATOM     23  C   UNL     1       1.107   2.251  20.250  0.00  0.00    +0.000 C 
ATOM     24  C   UNL     1       1.406   2.688  21.678  0.00  0.00    +0.000 C 
ATOM     25  C   UNL     1       2.642   3.499  21.275  0.00  0.00    +0.000 C 
ATOM     26  C   UNL     1       2.231   4.376  20.038  0.00  0.00    +0.000 C 
ATOM     27  C   UNL     1       0.942   3.649  19.626  0.00  0.00    +0.000 C 
BRANCH  27  28
ATOM     28  O   UNL     1       0.614   3.639  18.272  0.00  0.00    +0.000 OA
ATOM     29  H   UNL     1       1.091   2.909  17.844  0.00  0.00    +0.000 HD
ENDBRANCH  27  28
ENDBRANCH  16  19
ENDBRANCH   5  16
TORSDOF 5
ENDMDL
MODEL 6
REMARK VINA RESULT:      -8.0      3.758      6.601
REMARK  Name = 
REMARK  5 active torsions:
REMARK  status: ('A' for Active; 'I' for Inactive)
REMARK    1  A    between atoms: C_2  and  C_23
REMARK    2  A    between atoms: N_3  and  C_4
REMARK    3  A    between atoms: C_8  and  S_9
REMARK    4  A    between atoms: S_9  and  N_12
REMARK    5  A    between atoms: C_20  and  O_21
REMARK                            x       y       z     vdW  Elec       q    Type
REMARK                         _______ _______ _______ _____ _____    ______ ____
ROOT
ATOM      1  C   UNL     1       7.763   7.915  18.108  0.00  0.00    +0.000 A 
ATOM      2  C   UNL     1       8.494   6.982  18.855  0.00  0.00    +0.000 A 
ATOM      3  C   UNL     1       7.928   5.775  19.248  0.00  0.00    +0.000 A 
ATOM      4  C   UNL     1       6.669   5.432  18.795  0.00  0.00    +0.000 A 
ATOM      5  C   UNL     1       6.033   6.242  17.851  0.00  0.00    +0.000 A 
ATOM      6  C   UNL     1       6.514   7.536  17.598  0.00  0.00    +0.000 A 
ENDROOT
BRANCH   1   9
ATOM      7  O   UNL     1       9.093   9.791  19.908  0.00  0.00    +0.000 OA
ATOM      8  C   UNL     1       8.940  10.024  18.709  0.00  0.00    +0.000 C 
ATOM      9  N   UNL     1       8.279   9.195  17.812  0.00  0.00    +0.000 N 
ATOM     10  H   UNL     1       8.075   9.598  16.902  0.00  0.00    +0.000 HD
BRANCH   8  11
ATOM     11  C   UNL     1       9.457  11.246  18.137  0.00  0.00    +0.000 A 
ATOM     12  C   UNL     1      10.739  11.541  17.710  0.00  0.00    +0.000 A 
ATOM     13  C   UNL     1      10.703  12.870  17.214  0.00  0.00    +0.000 A 
ATOM     14  C   UNL     1       9.411  13.301  17.391  0.00  0.00    +0.000 A 
ATOM     15  O   UNL     1       8.641  12.324  17.940  0.00  0.00    +0.000 OA
ENDBRANCH   8  11
ENDBRANCH   1   9
BRANCH   5  16
ATOM     16  S   UNL     1       4.674   5.540  16.927  0.00  0.00    +0.000 S 
ATOM     17  O   UNL     1       3.609   6.524  17.000  0.00  0.00    +0.000 OA
ATOM     18  O   UNL     1       5.161   5.084  15.641  0.00  0.00    +0.000 OA
BRANCH  16  19
ATOM     19  N   UNL     1       4.150   4.190  17.804  0.00  0.00    +0.000 NA
ATOM     20  C   UNL     1       3.349   3.131  17.188  0.00  0.00    +0.000 C 
ATOM     21  C   UNL     1       2.350   2.759  18.271  0.00  0.00    +0.000 C 
ATOM     22  C   UNL     1       1.282   3.840  18.575  0.00  0.00    +0.000 C 
ATOM     23  C   UNL     1       1.707   4.404  19.951  0.00  0.00    +0.000 C 
ATOM     24  C   UNL     1       2.164   3.119  20.627  0.00  0.00    +0.000 C 
ATOM     25  C   UNL     1       3.201   2.803  19.545  0.00  0.00    +0.000 C 
ATOM     26  C   UNL     1       4.009   4.125  19.285  0.00  0.00    +0.000 C 
ATOM     27  C   UNL     1       3.060   5.139  19.943  0.00  0.00    +0.000 C 
BRANCH  27  28
ATOM     28  O   UNL     1       3.017   6.422  19.403  0.00  0.00    +0.000 OA
ATOM     29  H   UNL     1       3.875   6.613  18.992  0.00  0.00    +0.000 HD
ENDBRANCH  27  28
ENDBRANCH  16  19
ENDBRANCH   5  16
TORSDOF 5
ENDMDL
MODEL 7
REMARK VINA RESULT:      -7.9      3.103      6.270
REMARK  Name = 
REMARK  5 active torsions:
REMARK  status: ('A' for Active; 'I' for Inactive)
REMARK    1  A    between atoms: C_2  and  C_23
REMARK    2  A    between atoms: N_3  and  C_4
REMARK    3  A    between atoms: C_8  and  S_9
REMARK    4  A    between atoms: S_9  and  N_12
REMARK    5  A    between atoms: C_20  and  O_21
REMARK                            x       y       z     vdW  Elec       q    Type
REMARK                         _______ _______ _______ _____ _____    ______ ____
ROOT
ATOM      1  C   UNL     1       6.638   5.936  16.254  0.00  0.00    +0.000 A 
ATOM      2  C   UNL     1       7.009   5.479  14.983  0.00  0.00    +0.000 A 
ATOM      3  C   UNL     1       6.639   4.216  14.536  0.00  0.00    +0.000 A 
ATOM      4  C   UNL     1       5.789   3.444  15.304  0.00  0.00    +0.000 A 
ATOM      5  C   UNL     1       5.215   3.988  16.455  0.00  0.00    +0.000 A 
ATOM      6  C   UNL     1       5.725   5.178  16.999  0.00  0.00    +0.000 A 
ENDROOT
BRANCH   1   9
ATOM      7  O   UNL     1       8.075   6.412  18.751  0.00  0.00    +0.000 OA
ATOM      8  C   UNL     1       7.829   7.314  17.950  0.00  0.00    +0.000 C 
ATOM      9  N   UNL     1       7.113   7.161  16.769  0.00  0.00    +0.000 N 
ATOM     10  H   UNL     1       6.836   8.020  16.304  0.00  0.00    +0.000 HD
BRANCH   8  11
ATOM     11  C   UNL     1       8.285   8.659  18.211  0.00  0.00    +0.000 A 
ATOM     12  C   UNL     1       8.062   9.818  17.488  0.00  0.00    +0.000 A 
ATOM     13  C   UNL     1       8.715  10.863  18.190  0.00  0.00    +0.000 A 
ATOM     14  C   UNL     1       9.307  10.271  19.278  0.00  0.00    +0.000 A 
ATOM     15  O   UNL     1       9.047   8.938  19.311  0.00  0.00    +0.000 OA
ENDBRANCH   8  11
ENDBRANCH   1   9
BRANCH   5  16
ATOM     16  S   UNL     1       3.773   3.180  17.132  0.00  0.00    +0.000 S 
ATOM     17  O   UNL     1       2.768   3.243  16.086  0.00  0.00    +0.000 OA
ATOM     18  O   UNL     1       4.164   1.903  17.693  0.00  0.00    +0.000 OA
BRANCH  16  19
ATOM     19  N   UNL     1       3.222   4.167  18.392  0.00  0.00    +0.000 NA
ATOM     20  C   UNL     1       4.047   4.453  19.568  0.00  0.00    +0.000 C 
ATOM     21  C   UNL     1       3.053   4.432  20.718  0.00  0.00    +0.000 C 
ATOM     22  C   UNL     1       2.474   3.036  21.057  0.00  0.00    +0.000 C 
ATOM     23  C   UNL     1       1.016   3.105  20.543  0.00  0.00    +0.000 C 
ATOM     24  C   UNL     1       0.674   4.537  20.929  0.00  0.00    +0.000 C 
ATOM     25  C   UNL     1       1.830   5.134  20.119  0.00  0.00    +0.000 C 
ATOM     26  C   UNL     1       1.795   4.456  18.702  0.00  0.00    +0.000 C 
ATOM     27  C   UNL     1       0.890   3.254  19.016  0.00  0.00    +0.000 C 
BRANCH  27  28
ATOM     28  O   UNL     1       1.112   2.079  18.302  0.00  0.00    +0.000 OA
ATOM     29  H   UNL     1       1.325   1.371  18.931  0.00  0.00    +0.000 HD
ENDBRANCH  27  28
ENDBRANCH  16  19
ENDBRANCH   5  16
TORSDOF 5
ENDMDL
MODEL 8
REMARK VINA RESULT:      -7.8      1.833      2.413
REMARK  Name = 
REMARK  5 active torsions:
REMARK  status: ('A' for Active; 'I' for Inactive)
REMARK    1  A    between atoms: C_2  and  C_23
REMARK    2  A    between atoms: N_3  and  C_4
REMARK    3  A    between atoms: C_8  and  S_9
REMARK    4  A    between atoms: S_9  and  N_12
REMARK    5  A    between atoms: C_20  and  O_21
REMARK                            x       y       z     vdW  Elec       q    Type
REMARK                         _______ _______ _______ _____ _____    ______ ____
ROOT
ATOM      1  C   UNL     1       2.040   7.598  19.378  0.00  0.00    +0.000 A 
ATOM      2  C   UNL     1       1.640   7.112  20.629  0.00  0.00    +0.000 A 
ATOM      3  C   UNL     1       1.473   5.751  20.852  0.00  0.00    +0.000 A 
ATOM      4  C   UNL     1       1.824   4.850  19.865  0.00  0.00    +0.000 A 
ATOM      5  C   UNL     1       2.455   5.309  18.707  0.00  0.00    +0.000 A 
ATOM      6  C   UNL     1       2.456   6.680  18.404  0.00  0.00    +0.000 A 
ENDROOT
BRANCH   1   9
ATOM      7  O   UNL     1      -0.113   9.336  18.446  0.00  0.00    +0.000 OA
ATOM      8  C   UNL     1       1.014   9.761  18.697  0.00  0.00    +0.000 C 
ATOM      9  N   UNL     1       2.090   8.981  19.101  0.00  0.00    +0.000 N 
ATOM     10  H   UNL     1       2.997   9.439  19.097  0.00  0.00    +0.000 HD
BRANCH   8  11
ATOM     11  C   UNL     1       1.302  11.170  18.569  0.00  0.00    +0.000 A 
ATOM     12  C   UNL     1       0.511  12.261  18.886  0.00  0.00    +0.000 A 
ATOM     13  C   UNL     1       1.277  13.416  18.585  0.00  0.00    +0.000 A 
ATOM     14  C   UNL     1       2.471  12.955  18.088  0.00  0.00    +0.000 A 
ATOM     15  O   UNL     1       2.505  11.596  18.080  0.00  0.00    +0.000 OA
ENDBRANCH   8  11
ENDBRANCH   1   9
BRANCH   5  16
ATOM     16  S   UNL     1       3.331   4.118  17.704  0.00  0.00    +0.000 S 
ATOM     17  O   UNL     1       4.016   3.251  18.645  0.00  0.00    +0.000 OA
ATOM     18  O   UNL     1       2.418   3.560  16.727  0.00  0.00    +0.000 OA
BRANCH  16  19
ATOM     19  N   UNL     1       4.530   4.981  16.878  0.00  0.00    +0.000 NA
ATOM     20  C   UNL     1       5.329   4.370  15.814  0.00  0.00    +0.000 C 
ATOM     21  C   UNL     1       6.720   4.940  16.037  0.00  0.00    +0.000 C 
ATOM     22  C   UNL     1       7.437   4.436  17.315  0.00  0.00    +0.000 C 
ATOM     23  C   UNL     1       7.400   5.655  18.267  0.00  0.00    +0.000 C 
ATOM     24  C   UNL     1       7.645   6.773  17.263  0.00  0.00    +0.000 C 
ATOM     25  C   UNL     1       6.432   6.400  16.405  0.00  0.00    +0.000 C 
ATOM     26  C   UNL     1       5.221   6.199  17.385  0.00  0.00    +0.000 C 
ATOM     27  C   UNL     1       5.985   6.068  18.712  0.00  0.00    +0.000 C 
BRANCH  27  28
ATOM     28  O   UNL     1       5.429   5.253  19.695  0.00  0.00    +0.000 OA
ATOM     29  H   UNL     1       5.891   5.421  20.533  0.00  0.00    +0.000 HD
ENDBRANCH  27  28
ENDBRANCH  16  19
ENDBRANCH   5  16
TORSDOF 5
ENDMDL
MODEL 9
REMARK VINA RESULT:      -7.6      2.894      6.223
REMARK  Name = 
REMARK  5 active torsions:
REMARK  status: ('A' for Active; 'I' for Inactive)
REMARK    1  A    between atoms: C_2  and  C_23
REMARK    2  A    between atoms: N_3  and  C_4
REMARK    3  A    between atoms: C_8  and  S_9
REMARK    4  A    between atoms: S_9  and  N_12
REMARK    5  A    between atoms: C_20  and  O_21
REMARK                            x       y       z     vdW  Elec       q    Type
REMARK                         _______ _______ _______ _____ _____    ______ ____
ROOT
ATOM      1  C   UNL     1       6.480   6.164  16.692  0.00  0.00    +0.000 A 
ATOM      2  C   UNL     1       7.111   5.364  15.731  0.00  0.00    +0.000 A 
ATOM      3  C   UNL     1       6.641   4.091  15.435  0.00  0.00    +0.000 A 
ATOM      4  C   UNL     1       5.461   3.650  16.004  0.00  0.00    +0.000 A 
ATOM      5  C   UNL     1       4.694   4.532  16.769  0.00  0.00    +0.000 A 
ATOM      6  C   UNL     1       5.251   5.740  17.216  0.00  0.00    +0.000 A 
ENDROOT
BRANCH   1   9
ATOM      7  O   UNL     1       8.284   6.714  18.921  0.00  0.00    +0.000 OA
ATOM      8  C   UNL     1       7.909   7.593  18.145  0.00  0.00    +0.000 C 
ATOM      9  N   UNL     1       7.020   7.405  17.094  0.00  0.00    +0.000 N 
ATOM     10  H   UNL     1       6.667   8.250  16.655  0.00  0.00    +0.000 HD
BRANCH   8  11
ATOM     11  C   UNL     1       8.390   8.946  18.296  0.00  0.00    +0.000 A 
ATOM     12  C   UNL     1       8.159  10.054  17.500  0.00  0.00    +0.000 A 
ATOM     13  C   UNL     1       8.846  11.137  18.106  0.00  0.00    +0.000 A 
ATOM     14  C   UNL     1       9.464  10.615  19.215  0.00  0.00    +0.000 A 
ATOM     15  O   UNL     1       9.189   9.290  19.349  0.00  0.00    +0.000 OA
ENDBRANCH   8  11
ENDBRANCH   1   9
BRANCH   5  16
ATOM     16  S   UNL     1       2.982   4.113  17.062  0.00  0.00    +0.000 S 
ATOM     17  O   UNL     1       2.322   5.372  17.357  0.00  0.00    +0.000 OA
ATOM     18  O   UNL     1       2.507   3.275  15.979  0.00  0.00    +0.000 OA
BRANCH  16  19
ATOM     19  N   UNL     1       2.953   3.204  18.489  0.00  0.00    +0.000 NA
ATOM     20  C   UNL     1       2.037   2.075  18.669  0.00  0.00    +0.000 C 
ATOM     21  C   UNL     1       1.600   2.194  20.119  0.00  0.00    +0.000 C 
ATOM     22  C   UNL     1       0.687   3.407  20.430  0.00  0.00    +0.000 C 
ATOM     23  C   UNL     1       1.607   4.370  21.218  0.00  0.00    +0.000 C 
ATOM     24  C   UNL     1       2.381   3.360  22.055  0.00  0.00    +0.000 C 
ATOM     25  C   UNL     1       2.896   2.596  20.830  0.00  0.00    +0.000 C 
ATOM     26  C   UNL     1       3.441   3.667  19.817  0.00  0.00    +0.000 C 
ATOM     27  C   UNL     1       2.787   4.928  20.402  0.00  0.00    +0.000 C 
BRANCH  27  28
ATOM     28  O   UNL     1       2.443   5.945  19.514  0.00  0.00    +0.000 OA
ATOM     29  H   UNL     1       1.656   6.400  19.855  0.00  0.00    +0.000 HD
ENDBRANCH  27  28
ENDBRANCH  16  19
ENDBRANCH   5  16
TORSDOF 5
ENDMDL
