MODEL 1
REMARK VINA RESULT:      -9.2      0.000      0.000
REMARK  Name = 
REMARK  6 active torsions:
REMARK  status: ('A' for Active; 'I' for Inactive)
REMARK    1  A    between atoms: C_2  and  C_19
REMARK    2  A    between atoms: N_3  and  C_4
REMARK    3  A    between atoms: C_8  and  S_9
REMARK    4  A    between atoms: S_9  and  N_12
REMARK    5  A    between atoms: N_26  and  C_27
REMARK    6  A    between atoms: C_27  and  C_28
REMARK                            x       y       z     vdW  Elec       q    Type
REMARK                         _______ _______ _______ _____ _____    ______ ____
ROOT
ATOM      1  O   UNL     1      -0.714  10.661  23.449  0.00  0.00    +0.000 OA
ATOM      2  C   UNL     1      -0.828  10.926  22.257  0.00  0.00    +0.000 C 
ATOM      3  N   UNL     1      -1.639  11.915  21.711  0.00  0.00    +0.000 N 
ATOM      4  H   UNL     1      -1.811  11.910  20.713  0.00  0.00    +0.000 HD
ENDROOT
BRANCH   2   5
ATOM      5  C   UNL     1      -0.071  10.059  21.341  0.00  0.00    +0.000 A 
ATOM      6  C   UNL     1       0.603   8.975  21.912  0.00  0.00    +0.000 A 
ATOM      7  N   UNL     1       1.412   8.101  21.262  0.00  0.00    +0.000 NA
ATOM      8  C   UNL     1       1.547   8.403  19.954  0.00  0.00    +0.000 A 
ATOM      9  C   UNL     1       0.961   9.472  19.280  0.00  0.00    +0.000 A 
ATOM     10  C   UNL     1       1.471   9.372  17.968  0.00  0.00    +0.000 A 
ATOM     11  N   UNL     1       2.290   8.330  17.800  0.00  0.00    +0.000 NA
ATOM     12  N   UNL     1       2.288   7.722  19.017  0.00  0.00    +0.000 N 
ATOM     13  C   UNL     1       0.103  10.335  19.985  0.00  0.00    +0.000 A 
BRANCH  12  14
ATOM     14  C   UNL     1       3.115   6.541  19.237  0.00  0.00    +0.000 C 
BRANCH  14  15
ATOM     15  C   UNL     1       2.313   5.259  19.251  0.00  0.00    +0.000 A 
ATOM     16  C   UNL     1       1.750   4.777  20.444  0.00  0.00    +0.000 A 
ATOM     17  C   UNL     1       1.041   3.573  20.465  0.00  0.00    +0.000 A 
ATOM     18  C   UNL     1       0.869   2.844  19.290  0.00  0.00    +0.000 A 
ATOM     19  C   UNL     1       1.394   3.326  18.092  0.00  0.00    +0.000 A 
ATOM     20  C   UNL     1       2.117   4.522  18.073  0.00  0.00    +0.000 A 
ENDBRANCH  14  15
ENDBRANCH  12  14
ENDBRANCH   2   5
BRANCH   3  21
ATOM     21  C   UNL     1      -2.400  12.818  22.498  0.00  0.00    +0.000 A 
ATOM     22  C   UNL     1      -1.803  13.920  23.128  0.00  0.00    +0.000 A 
ATOM     23  C   UNL     1      -2.533  14.789  23.930  0.00  0.00    +0.000 A 
ATOM     24  C   UNL     1      -3.896  14.589  24.096  0.00  0.00    +0.000 A 
ATOM     25  C   UNL     1      -4.521  13.511  23.454  0.00  0.00    +0.000 A 
ATOM     26  C   UNL     1      -3.780  12.633  22.640  0.00  0.00    +0.000 A 
BRANCH  25  27
ATOM     27  S   UNL     1      -6.304  13.374  23.509  0.00  0.00    +0.000 S 
ATOM     28  O   UNL     1      -6.612  12.079  24.107  0.00  0.00    +0.000 OA
ATOM     29  O   UNL     1      -6.802  14.593  24.111  0.00  0.00    +0.000 OA
BRANCH  27  30
ATOM     30  N   UNL     1      -6.815  13.337  21.876  0.00  0.00    +0.000 NA
ATOM     31  C   UNL     1      -6.312  14.444  21.028  0.00  0.00    +0.000 C 
ATOM     32  C   UNL     1      -6.915  14.424  19.627  0.00  0.00    +0.000 C 
ATOM     33  C   UNL     1      -6.793  13.054  18.981  0.00  0.00    +0.000 C 
ATOM     34  C   UNL     1      -7.485  12.025  19.859  0.00  0.00    +0.000 C 
ATOM     35  C   UNL     1      -6.879  11.989  21.257  0.00  0.00    +0.000 C 
ENDBRANCH  27  30
ENDBRANCH  25  27
ENDBRANCH   3  21
TORSDOF 6
ENDMDL
MODEL 2
REMARK VINA RESULT:      -9.2      0.638      1.326
REMARK  Name = 
REMARK  6 active torsions:
REMARK  status: ('A' for Active; 'I' for Inactive)
REMARK    1  A    between atoms: C_2  and  C_19
REMARK    2  A    between atoms: N_3  and  C_4
REMARK    3  A    between atoms: C_8  and  S_9
REMARK    4  A    between atoms: S_9  and  N_12
REMARK    5  A    between atoms: N_26  and  C_27
REMARK    6  A    between atoms: C_27  and  C_28
REMARK                            x       y       z     vdW  Elec       q    Type
REMARK                         _______ _______ _______ _____ _____    ______ ____
ROOT
ATOM      1  O   UNL     1      -0.716  10.002  23.305  0.00  0.00    +0.000 OA
ATOM      2  C   UNL     1      -0.553  10.495  22.194  0.00  0.00    +0.000 C 
ATOM      3  N   UNL     1      -1.073  11.706  21.750  0.00  0.00    +0.000 N 
ATOM      4  H   UNL     1      -1.048  11.914  20.759  0.00  0.00    +0.000 HD
ENDROOT
BRANCH   2   5
ATOM      5  C   UNL     1       0.215   9.675  21.245  0.00  0.00    +0.000 A 
ATOM      6  C   UNL     1       0.830   8.528  21.756  0.00  0.00    +0.000 A 
ATOM      7  N   UNL     1       1.639   7.679  21.074  0.00  0.00    +0.000 NA
ATOM      8  C   UNL     1       1.840   8.076  19.800  0.00  0.00    +0.000 A 
ATOM      9  C   UNL     1       1.317   9.212  19.188  0.00  0.00    +0.000 A 
ATOM     10  C   UNL     1       1.881   9.196  17.895  0.00  0.00    +0.000 A 
ATOM     11  N   UNL     1       2.673   8.143  17.679  0.00  0.00    +0.000 NA
ATOM     12  N   UNL     1       2.600   7.444  18.844  0.00  0.00    +0.000 N 
ATOM     13  C   UNL     1       0.456  10.048  19.923  0.00  0.00    +0.000 A 
BRANCH  12  14
ATOM     14  C   UNL     1       3.380   6.222  19.005  0.00  0.00    +0.000 C 
BRANCH  14  15
ATOM     15  C   UNL     1       2.514   4.993  19.170  0.00  0.00    +0.000 A 
ATOM     16  C   UNL     1       1.993   4.326  18.049  0.00  0.00    +0.000 A 
ATOM     17  C   UNL     1       1.163   3.212  18.203  0.00  0.00    +0.000 A 
ATOM     18  C   UNL     1       0.857   2.740  19.477  0.00  0.00    +0.000 A 
ATOM     19  C   UNL     1       1.392   3.372  20.598  0.00  0.00    +0.000 A 
ATOM     20  C   UNL     1       2.211   4.495  20.447  0.00  0.00    +0.000 A 
ENDBRANCH  14  15
ENDBRANCH  12  14
ENDBRANCH   2   5
BRANCH   3  21
ATOM     21  C   UNL     1      -1.816  12.584  22.582  0.00  0.00    +0.000 A 
ATOM     22  C   UNL     1      -1.193  13.628  23.280  0.00  0.00    +0.000 A 
ATOM     23  C   UNL     1      -1.906  14.471  24.125  0.00  0.00    +0.000 A 
ATOM     24  C   UNL     1      -3.276  14.303  24.267  0.00  0.00    +0.000 A 
ATOM     25  C   UNL     1      -3.925  13.284  23.557  0.00  0.00    +0.000 A 
ATOM     26  C   UNL     1      -3.203  12.432  22.700  0.00  0.00    +0.000 A 
BRANCH  25  27
ATOM     27  S   UNL     1      -5.712  13.198  23.588  0.00  0.00    +0.000 S 
ATOM     28  O   UNL     1      -6.070  12.160  24.549  0.00  0.00    +0.000 OA
ATOM     29  O   UNL     1      -6.197  14.551  23.761  0.00  0.00    +0.000 OA
BRANCH  27  30
ATOM     30  N   UNL     1      -6.176  12.659  22.031  0.00  0.00    +0.000 NA
ATOM     31  C   UNL     1      -7.402  11.827  21.985  0.00  0.00    +0.000 C 
ATOM     32  C   UNL     1      -7.676  11.270  20.592  0.00  0.00    +0.000 C 
ATOM     33  C   UNL     1      -7.636  12.360  19.534  0.00  0.00    +0.000 C 
ATOM     34  C   UNL     1      -6.276  13.036  19.564  0.00  0.00    +0.000 C 
ATOM     35  C   UNL     1      -5.986  13.640  20.933  0.00  0.00    +0.000 C 
ENDBRANCH  27  30
ENDBRANCH  25  27
ENDBRANCH   3  21
TORSDOF 6
ENDMDL
MODEL 3
REMARK VINA RESULT:      -9.2      5.362     12.101
REMARK  Name = 
REMARK  6 active torsions:
REMARK  status: ('A' for Active; 'I' for Inactive)
REMARK    1  A    between atoms: C_2  and  C_19
REMARK    2  A    between atoms: N_3  and  C_4
REMARK    3  A    between atoms: C_8  and  S_9
REMARK    4  A    between atoms: S_9  and  N_12
REMARK    5  A    between atoms: N_26  and  C_27
REMARK    6  A    between atoms: C_27  and  C_28
REMARK                            x       y       z     vdW  Elec       q    Type
REMARK                         _______ _______ _______ _____ _____    ______ ____
ROOT
ATOM      1  O   UNL     1       2.051   8.074  17.419  0.00  0.00    +0.000 OA
ATOM      2  C   UNL     1       2.102   7.743  18.598  0.00  0.00    +0.000 C 
ATOM      3  N   UNL     1       2.674   6.578  19.098  0.00  0.00    +0.000 N 
ATOM      4  H   UNL     1       2.479   6.310  20.055  0.00  0.00    +0.000 HD
ENDROOT
BRANCH   2   5
ATOM      5  C   UNL     1       1.432   8.652  19.540  0.00  0.00    +0.000 A 
ATOM      6  C   UNL     1       1.257   9.975  19.122  0.00  0.00    +0.000 A 
ATOM      7  N   UNL     1       0.733  10.986  19.860  0.00  0.00    +0.000 NA
ATOM      8  C   UNL     1       0.410  10.595  21.110  0.00  0.00    +0.000 A 
ATOM      9  C   UNL     1       0.570   9.323  21.653  0.00  0.00    +0.000 A 
ATOM     10  C   UNL     1       0.146   9.464  22.991  0.00  0.00    +0.000 A 
ATOM     11  N   UNL     1      -0.270  10.699  23.283  0.00  0.00    +0.000 NA
ATOM     12  N   UNL     1      -0.143  11.367  22.105  0.00  0.00    +0.000 N 
ATOM     13  C   UNL     1       1.087   8.295  20.843  0.00  0.00    +0.000 A 
BRANCH  12  14
ATOM     14  C   UNL     1      -0.474  12.785  22.037  0.00  0.00    +0.000 C 
BRANCH  14  15
ATOM     15  C   UNL     1      -1.813  13.105  22.664  0.00  0.00    +0.000 A 
ATOM     16  C   UNL     1      -1.896  13.942  23.789  0.00  0.00    +0.000 A 
ATOM     17  C   UNL     1      -3.129  14.207  24.392  0.00  0.00    +0.000 A 
ATOM     18  C   UNL     1      -4.296  13.656  23.867  0.00  0.00    +0.000 A 
ATOM     19  C   UNL     1      -4.232  12.849  22.732  0.00  0.00    +0.000 A 
ATOM     20  C   UNL     1      -2.999  12.571  22.137  0.00  0.00    +0.000 A 
ENDBRANCH  14  15
ENDBRANCH  12  14
ENDBRANCH   2   5
BRANCH   3  21
ATOM     21  C   UNL     1       3.359   5.637  18.285  0.00  0.00    +0.000 A 
ATOM     22  C   UNL     1       2.765   4.422  17.917  0.00  0.00    +0.000 A 
ATOM     23  C   UNL     1       3.441   3.479  17.151  0.00  0.00    +0.000 A 
ATOM     24  C   UNL     1       4.727   3.749  16.707  0.00  0.00    +0.000 A 
ATOM     25  C   UNL     1       5.332   4.969  17.039  0.00  0.00    +0.000 A 
ATOM     26  C   UNL     1       4.646   5.924  17.813  0.00  0.00    +0.000 A 
BRANCH  25  27
ATOM     27  S   UNL     1       6.906   5.394  16.302  0.00  0.00    +0.000 S 
ATOM     28  O   UNL     1       7.073   6.835  16.459  0.00  0.00    +0.000 OA
ATOM     29  O   UNL     1       7.888   4.482  16.850  0.00  0.00    +0.000 OA
BRANCH  27  30
ATOM     30  N   UNL     1       6.739   5.060  14.632  0.00  0.00    +0.000 NA
ATOM     31  C   UNL     1       7.882   5.476  13.783  0.00  0.00    +0.000 C 
ATOM     32  C   UNL     1       7.607   5.273  12.297  0.00  0.00    +0.000 C 
ATOM     33  C   UNL     1       7.106   3.869  12.004  0.00  0.00    +0.000 C 
ATOM     34  C   UNL     1       5.841   3.612  12.805  0.00  0.00    +0.000 C 
ATOM     35  C   UNL     1       6.090   3.766  14.301  0.00  0.00    +0.000 C 
ENDBRANCH  27  30
ENDBRANCH  25  27
ENDBRANCH   3  21
TORSDOF 6
ENDMDL
MODEL 4
REMARK VINA RESULT:      -8.9      2.316      3.562
REMARK  Name = 
REMARK  6 active torsions:
REMARK  status: ('A' for Active; 'I' for Inactive)
REMARK    1  A    between atoms: C_2  and  C_19
REMARK    2  A    between atoms: N_3  and  C_4
REMARK    3  A    between atoms: C_8  and  S_9
REMARK    4  A    between atoms: S_9  and  N_12
REMARK    5  A    between atoms: N_26  and  C_27
REMARK    6  A    between atoms: C_27  and  C_28
REMARK                            x       y       z     vdW  Elec       q    Type
REMARK                         _______ _______ _______ _____ _____    ______ ____
ROOT
ATOM      1  O   UNL     1      -0.617  10.486  19.552  0.00  0.00    +0.000 OA
ATOM      2  C   UNL     1       0.154  10.168  20.450  0.00  0.00    +0.000 C 
ATOM      3  N   UNL     1       0.359  10.860  21.639  0.00  0.00    +0.000 N 
ATOM      4  H   UNL     1       1.160  10.623  22.211  0.00  0.00    +0.000 HD
ENDROOT
BRANCH   2   5
ATOM      5  C   UNL     1       0.971   8.973  20.189  0.00  0.00    +0.000 A 
ATOM      6  C   UNL     1       1.691   8.951  18.991  0.00  0.00    +0.000 A 
ATOM      7  N   UNL     1       2.443   7.922  18.525  0.00  0.00    +0.000 NA
ATOM      8  C   UNL     1       2.406   6.849  19.343  0.00  0.00    +0.000 A 
ATOM      9  C   UNL     1       1.699   6.735  20.538  0.00  0.00    +0.000 A 
ATOM     10  C   UNL     1       1.943   5.410  20.956  0.00  0.00    +0.000 A 
ATOM     11  N   UNL     1       2.746   4.736  20.128  0.00  0.00    +0.000 NA
ATOM     12  N   UNL     1       3.056   5.650  19.168  0.00  0.00    +0.000 N 
ATOM     13  C   UNL     1       0.959   7.839  21.000  0.00  0.00    +0.000 A 
BRANCH  12  14
ATOM     14  C   UNL     1       3.903   5.263  18.047  0.00  0.00    +0.000 C 
BRANCH  14  15
ATOM     15  C   UNL     1       5.310   5.807  18.161  0.00  0.00    +0.000 A 
ATOM     16  C   UNL     1       5.753   6.833  17.310  0.00  0.00    +0.000 A 
ATOM     17  C   UNL     1       7.065   7.310  17.389  0.00  0.00    +0.000 A 
ATOM     18  C   UNL     1       7.944   6.782  18.332  0.00  0.00    +0.000 A 
ATOM     19  C   UNL     1       7.508   5.786  19.204  0.00  0.00    +0.000 A 
ATOM     20  C   UNL     1       6.202   5.297  19.116  0.00  0.00    +0.000 A 
ENDBRANCH  14  15
ENDBRANCH  12  14
ENDBRANCH   2   5
BRANCH   3  21
ATOM     21  C   UNL     1      -0.382  12.016  22.002  0.00  0.00    +0.000 A 
ATOM     22  C   UNL     1       0.136  13.304  21.810  0.00  0.00    +0.000 A 
ATOM     23  C   UNL     1      -0.566  14.441  22.196  0.00  0.00    +0.000 A 
ATOM     24  C   UNL     1      -1.828  14.310  22.759  0.00  0.00    +0.000 A 
ATOM     25  C   UNL     1      -2.378  13.034  22.935  0.00  0.00    +0.000 A 
ATOM     26  C   UNL     1      -1.667  11.884  22.542  0.00  0.00    +0.000 A 
BRANCH  25  27
ATOM     27  S   UNL     1      -4.077  12.880  23.474  0.00  0.00    +0.000 S 
ATOM     28  O   UNL     1      -4.132  11.741  24.385  0.00  0.00    +0.000 OA
ATOM     29  O   UNL     1      -4.498  14.192  23.920  0.00  0.00    +0.000 OA
BRANCH  27  30
ATOM     30  N   UNL     1      -4.973  12.479  22.072  0.00  0.00    +0.000 NA
ATOM     31  C   UNL     1      -6.446  12.550  22.217  0.00  0.00    +0.000 C 
ATOM     32  C   UNL     1      -7.178  12.049  20.976  0.00  0.00    +0.000 C 
ATOM     33  C   UNL     1      -6.656  12.708  19.711  0.00  0.00    +0.000 C 
ATOM     34  C   UNL     1      -5.168  12.433  19.582  0.00  0.00    +0.000 C 
ATOM     35  C   UNL     1      -4.399  12.958  20.789  0.00  0.00    +0.000 C 
ENDBRANCH  27  30
ENDBRANCH  25  27
ENDBRANCH   3  21
TORSDOF 6
ENDMDL
MODEL 5
REMARK VINA RESULT:      -8.8      5.350     12.109
REMARK  Name = 
REMARK  6 active torsions:
REMARK  status: ('A' for Active; 'I' for Inactive)
REMARK    1  A    between atoms: C_2  and  C_19
REMARK    2  A    between atoms: N_3  and  C_4
REMARK    3  A    between atoms: C_8  and  S_9
REMARK    4  A    between atoms: S_9  and  N_12
REMARK    5  A    between atoms: N_26  and  C_27
REMARK    6  A    between atoms: C_27  and  C_28
REMARK                            x       y       z     vdW  Elec       q    Type
REMARK                         _______ _______ _______ _____ _____    ______ ____
ROOT
ATOM      1  O   UNL     1       2.855   8.413  17.269  0.00  0.00    +0.000 OA
ATOM      2  C   UNL     1       2.356   7.942  18.285  0.00  0.00    +0.000 C 
ATOM      3  N   UNL     1       2.446   6.620  18.706  0.00  0.00    +0.000 N 
ATOM      4  H   UNL     1       1.830   6.299  19.444  0.00  0.00    +0.000 HD
ENDROOT
BRANCH   2   5
ATOM      5  C   UNL     1       1.541   8.875  19.080  0.00  0.00    +0.000 A 
ATOM      6  C   UNL     1       1.485   8.646  20.458  0.00  0.00    +0.000 A 
ATOM      7  N   UNL     1       0.738   9.337  21.355  0.00  0.00    +0.000 NA
ATOM      8  C   UNL     1      -0.012  10.293  20.770  0.00  0.00    +0.000 A 
ATOM      9  C   UNL     1      -0.071  10.592  19.411  0.00  0.00    +0.000 A 
ATOM     10  C   UNL     1      -1.043  11.611  19.325  0.00  0.00    +0.000 A 
ATOM     11  N   UNL     1      -1.549  11.957  20.512  0.00  0.00    +0.000 NA
ATOM     12  N   UNL     1      -0.872  11.169  21.391  0.00  0.00    +0.000 N 
ATOM     13  C   UNL     1       0.744   9.871  18.519  0.00  0.00    +0.000 A 
BRANCH  12  14
ATOM     14  C   UNL     1      -1.184  11.238  22.813  0.00  0.00    +0.000 C 
BRANCH  14  15
ATOM     15  C   UNL     1      -1.963  12.480  23.183  0.00  0.00    +0.000 A 
ATOM     16  C   UNL     1      -3.362  12.439  23.310  0.00  0.00    +0.000 A 
ATOM     17  C   UNL     1      -4.085  13.595  23.615  0.00  0.00    +0.000 A 
ATOM     18  C   UNL     1      -3.421  14.803  23.814  0.00  0.00    +0.000 A 
ATOM     19  C   UNL     1      -2.031  14.852  23.723  0.00  0.00    +0.000 A 
ATOM     20  C   UNL     1      -1.306  13.700  23.403  0.00  0.00    +0.000 A 
ENDBRANCH  14  15
ENDBRANCH  12  14
ENDBRANCH   2   5
BRANCH   3  21
ATOM     21  C   UNL     1       3.215   5.639  18.027  0.00  0.00    +0.000 A 
ATOM     22  C   UNL     1       2.704   4.359  17.771  0.00  0.00    +0.000 A 
ATOM     23  C   UNL     1       3.462   3.380  17.139  0.00  0.00    +0.000 A 
ATOM     24  C   UNL     1       4.751   3.676  16.718  0.00  0.00    +0.000 A 
ATOM     25  C   UNL     1       5.274   4.957  16.938  0.00  0.00    +0.000 A 
ATOM     26  C   UNL     1       4.504   5.948  17.577  0.00  0.00    +0.000 A 
BRANCH  25  27
ATOM     27  S   UNL     1       6.855   5.392  16.220  0.00  0.00    +0.000 S 
ATOM     28  O   UNL     1       7.013   6.833  16.384  0.00  0.00    +0.000 OA
ATOM     29  O   UNL     1       7.834   4.481  16.775  0.00  0.00    +0.000 OA
BRANCH  27  30
ATOM     30  N   UNL     1       6.708   5.063  14.546  0.00  0.00    +0.000 NA
ATOM     31  C   UNL     1       7.864   5.473  13.715  0.00  0.00    +0.000 C 
ATOM     32  C   UNL     1       7.608   5.276  12.224  0.00  0.00    +0.000 C 
ATOM     33  C   UNL     1       7.101   3.877  11.920  0.00  0.00    +0.000 C 
ATOM     34  C   UNL     1       5.823   3.627  12.704  0.00  0.00    +0.000 C 
ATOM     35  C   UNL     1       6.053   3.776  14.204  0.00  0.00    +0.000 C 
ENDBRANCH  27  30
ENDBRANCH  25  27
ENDBRANCH   3  21
TORSDOF 6
ENDMDL
MODEL 6
REMARK VINA RESULT:      -8.7      0.687      1.094
REMARK  Name = 
REMARK  6 active torsions:
REMARK  status: ('A' for Active; 'I' for Inactive)
REMARK    1  A    between atoms: C_2  and  C_19
REMARK    2  A    between atoms: N_3  and  C_4
REMARK    3  A    between atoms: C_8  and  S_9
REMARK    4  A    between atoms: S_9  and  N_12
REMARK    5  A    between atoms: N_26  and  C_27
REMARK    6  A    between atoms: C_27  and  C_28
REMARK                            x       y       z     vdW  Elec       q    Type
REMARK                         _______ _______ _______ _____ _____    ______ ____
ROOT
ATOM      1  O   UNL     1      -0.178  10.713  23.134  0.00  0.00    +0.000 OA
ATOM      2  C   UNL     1      -0.336  10.833  21.924  0.00  0.00    +0.000 C 
ATOM      3  N   UNL     1      -1.169  11.750  21.293  0.00  0.00    +0.000 N 
ATOM      4  H   UNL     1      -1.377  11.624  20.310  0.00  0.00    +0.000 HD
ENDROOT
BRANCH   2   5
ATOM      5  C   UNL     1       0.390   9.861  21.092  0.00  0.00    +0.000 A 
ATOM      6  C   UNL     1       0.924   8.746  21.746  0.00  0.00    +0.000 A 
ATOM      7  N   UNL     1       1.685   7.775  21.183  0.00  0.00    +0.000 NA
ATOM      8  C   UNL     1       1.927   8.005  19.876  0.00  0.00    +0.000 A 
ATOM      9  C   UNL     1       1.485   9.092  19.125  0.00  0.00    +0.000 A 
ATOM     10  C   UNL     1       2.062   8.889  17.854  0.00  0.00    +0.000 A 
ATOM     11  N   UNL     1       2.788   7.771  17.778  0.00  0.00    +0.000 NA
ATOM     12  N   UNL     1       2.656   7.219  19.015  0.00  0.00    +0.000 N 
ATOM     13  C   UNL     1       0.671  10.060  19.741  0.00  0.00    +0.000 A 
BRANCH  12  14
ATOM     14  C   UNL     1       3.354   5.979  19.333  0.00  0.00    +0.000 C 
BRANCH  14  15
ATOM     15  C   UNL     1       2.433   4.779  19.358  0.00  0.00    +0.000 A 
ATOM     16  C   UNL     1       2.057   4.189  20.577  0.00  0.00    +0.000 A 
ATOM     17  C   UNL     1       1.237   3.057  20.599  0.00  0.00    +0.000 A 
ATOM     18  C   UNL     1       0.767   2.512  19.406  0.00  0.00    +0.000 A 
ATOM     19  C   UNL     1       1.105   3.106  18.192  0.00  0.00    +0.000 A 
ATOM     20  C   UNL     1       1.937   4.229  18.166  0.00  0.00    +0.000 A 
ENDBRANCH  14  15
ENDBRANCH  12  14
ENDBRANCH   2   5
BRANCH   3  21
ATOM     21  C   UNL     1      -1.905  12.742  21.994  0.00  0.00    +0.000 A 
ATOM     22  C   UNL     1      -1.270  13.857  22.559  0.00  0.00    +0.000 A 
ATOM     23  C   UNL     1      -1.977  14.815  23.278  0.00  0.00    +0.000 A 
ATOM     24  C   UNL     1      -3.351  14.691  23.420  0.00  0.00    +0.000 A 
ATOM     25  C   UNL     1      -4.012  13.600  22.839  0.00  0.00    +0.000 A 
ATOM     26  C   UNL     1      -3.296  12.631  22.110  0.00  0.00    +0.000 A 
BRANCH  25  27
ATOM     27  S   UNL     1      -5.800  13.550  22.855  0.00  0.00    +0.000 S 
ATOM     28  O   UNL     1      -6.184  12.295  23.492  0.00  0.00    +0.000 OA
ATOM     29  O   UNL     1      -6.252  14.813  23.400  0.00  0.00    +0.000 OA
BRANCH  27  30
ATOM     30  N   UNL     1      -6.275  13.477  21.212  0.00  0.00    +0.000 NA
ATOM     31  C   UNL     1      -6.931  12.214  20.796  0.00  0.00    +0.000 C 
ATOM     32  C   UNL     1      -7.200  12.165  19.296  0.00  0.00    +0.000 C 
ATOM     33  C   UNL     1      -7.917  13.414  18.812  0.00  0.00    +0.000 C 
ATOM     34  C   UNL     1      -7.076  14.634  19.148  0.00  0.00    +0.000 C 
ATOM     35  C   UNL     1      -6.820  14.737  20.648  0.00  0.00    +0.000 C 
ENDBRANCH  27  30
ENDBRANCH  25  27
ENDBRANCH   3  21
TORSDOF 6
ENDMDL
MODEL 7
REMARK VINA RESULT:      -8.7      1.771      2.444
REMARK  Name = 
REMARK  6 active torsions:
REMARK  status: ('A' for Active; 'I' for Inactive)
REMARK    1  A    between atoms: C_2  and  C_19
REMARK    2  A    between atoms: N_3  and  C_4
REMARK    3  A    between atoms: C_8  and  S_9
REMARK    4  A    between atoms: S_9  and  N_12
REMARK    5  A    between atoms: N_26  and  C_27
REMARK    6  A    between atoms: C_27  and  C_28
REMARK                            x       y       z     vdW  Elec       q    Type
REMARK                         _______ _______ _______ _____ _____    ______ ____
ROOT
ATOM      1  O   UNL     1       0.182  10.053  23.213  0.00  0.00    +0.000 OA
ATOM      2  C   UNL     1       0.024  10.297  22.022  0.00  0.00    +0.000 C 
ATOM      3  N   UNL     1      -0.741  11.331  21.492  0.00  0.00    +0.000 N 
ATOM      4  H   UNL     1      -0.967  11.314  20.505  0.00  0.00    +0.000 HD
ENDROOT
BRANCH   2   5
ATOM      5  C   UNL     1       0.663   9.353  21.092  0.00  0.00    +0.000 A 
ATOM      6  C   UNL     1       0.963   8.082  21.591  0.00  0.00    +0.000 A 
ATOM      7  N   UNL     1       1.614   7.094  20.928  0.00  0.00    +0.000 NA
ATOM      8  C   UNL     1       2.000   7.472  19.692  0.00  0.00    +0.000 A 
ATOM      9  C   UNL     1       1.795   8.716  19.099  0.00  0.00    +0.000 A 
ATOM     10  C   UNL     1       2.442   8.612  17.850  0.00  0.00    +0.000 A 
ATOM     11  N   UNL     1       2.994   7.413  17.642  0.00  0.00    +0.000 NA
ATOM     12  N   UNL     1       2.673   6.714  18.764  0.00  0.00    +0.000 N 
ATOM     13  C   UNL     1       1.086   9.702  19.810  0.00  0.00    +0.000 A 
BRANCH  12  14
ATOM     14  C   UNL     1       3.144   5.343  18.922  0.00  0.00    +0.000 C 
BRANCH  14  15
ATOM     15  C   UNL     1       4.522   5.126  18.338  0.00  0.00    +0.000 A 
ATOM     16  C   UNL     1       5.672   5.495  19.056  0.00  0.00    +0.000 A 
ATOM     17  C   UNL     1       6.944   5.329  18.501  0.00  0.00    +0.000 A 
ATOM     18  C   UNL     1       7.085   4.777  17.231  0.00  0.00    +0.000 A 
ATOM     19  C   UNL     1       5.955   4.377  16.519  0.00  0.00    +0.000 A 
ATOM     20  C   UNL     1       4.682   4.555  17.066  0.00  0.00    +0.000 A 
ENDBRANCH  14  15
ENDBRANCH  12  14
ENDBRANCH   2   5
BRANCH   3  21
ATOM     21  C   UNL     1      -1.389  12.307  22.293  0.00  0.00    +0.000 A 
ATOM     22  C   UNL     1      -0.693  13.413  22.801  0.00  0.00    +0.000 A 
ATOM     23  C   UNL     1      -1.311  14.355  23.616  0.00  0.00    +0.000 A 
ATOM     24  C   UNL     1      -2.659  14.225  23.916  0.00  0.00    +0.000 A 
ATOM     25  C   UNL     1      -3.383  13.144  23.396  0.00  0.00    +0.000 A 
ATOM     26  C   UNL     1      -2.757  12.191  22.570  0.00  0.00    +0.000 A 
BRANCH  25  27
ATOM     27  S   UNL     1      -5.157  13.089  23.621  0.00  0.00    +0.000 S 
ATOM     28  O   UNL     1      -5.429  12.040  24.598  0.00  0.00    +0.000 OA
ATOM     29  O   UNL     1      -5.593  14.447  23.868  0.00  0.00    +0.000 OA
BRANCH  27  30
ATOM     30  N   UNL     1      -5.798  12.588  22.115  0.00  0.00    +0.000 NA
ATOM     31  C   UNL     1      -7.150  11.982  22.170  0.00  0.00    +0.000 C 
ATOM     32  C   UNL     1      -7.598  11.436  20.818  0.00  0.00    +0.000 C 
ATOM     33  C   UNL     1      -7.434  12.466  19.713  0.00  0.00    +0.000 C 
ATOM     34  C   UNL     1      -5.978  12.895  19.642  0.00  0.00    +0.000 C 
ATOM     35  C   UNL     1      -5.508  13.484  20.968  0.00  0.00    +0.000 C 
ENDBRANCH  27  30
ENDBRANCH  25  27
ENDBRANCH   3  21
TORSDOF 6
ENDMDL
MODEL 8
REMARK VINA RESULT:      -8.6      5.429     11.867
REMARK  Name = 
REMARK  6 active torsions:
REMARK  status: ('A' for Active; 'I' for Inactive)
REMARK    1  A    between atoms: C_2  and  C_19
REMARK    2  A    between atoms: N_3  and  C_4
REMARK    3  A    between atoms: C_8  and  S_9
REMARK    4  A    between atoms: S_9  and  N_12
REMARK    5  A    between atoms: N_26  and  C_27
REMARK    6  A    between atoms: C_27  and  C_28
REMARK                            x       y       z     vdW  Elec       q    Type
REMARK                         _______ _______ _______ _____ _____    ______ ____
ROOT
ATOM      1  O   UNL     1       1.924   7.157  20.187  0.00  0.00    +0.000 OA
ATOM      2  C   UNL     1       2.032   7.960  19.267  0.00  0.00    +0.000 C 
ATOM      3  N   UNL     1       2.765   7.776  18.099  0.00  0.00    +0.000 N 
ATOM      4  H   UNL     1       2.952   8.577  17.508  0.00  0.00    +0.000 HD
ENDROOT
BRANCH   2   5
ATOM      5  C   UNL     1       1.366   9.255  19.476  0.00  0.00    +0.000 A 
ATOM      6  C   UNL     1       0.444   9.327  20.525  0.00  0.00    +0.000 A 
ATOM      7  N   UNL     1      -0.329  10.396  20.841  0.00  0.00    +0.000 NA
ATOM      8  C   UNL     1      -0.149  11.429  19.991  0.00  0.00    +0.000 A 
ATOM      9  C   UNL     1       0.707  11.465  18.893  0.00  0.00    +0.000 A 
ATOM     10  C   UNL     1       0.468  12.729  18.313  0.00  0.00    +0.000 A 
ATOM     11  N   UNL     1      -0.437  13.451  18.980  0.00  0.00    +0.000 NA
ATOM     12  N   UNL     1      -0.771  12.655  20.031  0.00  0.00    +0.000 N 
ATOM     13  C   UNL     1       1.515  10.346  18.621  0.00  0.00    +0.000 A 
BRANCH  12  14
ATOM     14  C   UNL     1      -1.782  13.098  20.983  0.00  0.00    +0.000 C 
BRANCH  14  15
ATOM     15  C   UNL     1      -3.183  12.698  20.578  0.00  0.00    +0.000 A 
ATOM     16  C   UNL     1      -3.442  12.195  19.292  0.00  0.00    +0.000 A 
ATOM     17  C   UNL     1      -4.743  11.860  18.904  0.00  0.00    +0.000 A 
ATOM     18  C   UNL     1      -5.798  12.008  19.801  0.00  0.00    +0.000 A 
ATOM     19  C   UNL     1      -5.552  12.476  21.090  0.00  0.00    +0.000 A 
ATOM     20  C   UNL     1      -4.255  12.825  21.475  0.00  0.00    +0.000 A 
ENDBRANCH  14  15
ENDBRANCH  12  14
ENDBRANCH   2   5
BRANCH   3  21
ATOM     21  C   UNL     1       3.435   6.565  17.786  0.00  0.00    +0.000 A 
ATOM     22  C   UNL     1       2.796   5.323  17.912  0.00  0.00    +0.000 A 
ATOM     23  C   UNL     1       3.455   4.129  17.642  0.00  0.00    +0.000 A 
ATOM     24  C   UNL     1       4.772   4.155  17.205  0.00  0.00    +0.000 A 
ATOM     25  C   UNL     1       5.423   5.386  17.045  0.00  0.00    +0.000 A 
ATOM     26  C   UNL     1       4.754   6.594  17.317  0.00  0.00    +0.000 A 
BRANCH  25  27
ATOM     27  S   UNL     1       7.048   5.424  16.296  0.00  0.00    +0.000 S 
ATOM     28  O   UNL     1       7.530   6.798  16.398  0.00  0.00    +0.000 OA
ATOM     29  O   UNL     1       7.807   4.339  16.879  0.00  0.00    +0.000 OA
BRANCH  27  30
ATOM     30  N   UNL     1       6.800   5.073  14.638  0.00  0.00    +0.000 NA
ATOM     31  C   UNL     1       7.911   5.457  13.735  0.00  0.00    +0.000 C 
ATOM     32  C   UNL     1       7.567   5.242  12.265  0.00  0.00    +0.000 C 
ATOM     33  C   UNL     1       7.028   3.844  12.012  0.00  0.00    +0.000 C 
ATOM     34  C   UNL     1       5.796   3.621  12.872  0.00  0.00    +0.000 C 
ATOM     35  C   UNL     1       6.114   3.788  14.354  0.00  0.00    +0.000 C 
ENDBRANCH  27  30
ENDBRANCH  25  27
ENDBRANCH   3  21
TORSDOF 6
ENDMDL
MODEL 9
REMARK VINA RESULT:      -8.5      5.774     12.067
REMARK  Name = 
REMARK  6 active torsions:
REMARK  status: ('A' for Active; 'I' for Inactive)
REMARK    1  A    between atoms: C_2  and  C_19
REMARK    2  A    between atoms: N_3  and  C_4
REMARK    3  A    between atoms: C_8  and  S_9
REMARK    4  A    between atoms: S_9  and  N_12
REMARK    5  A    between atoms: N_26  and  C_27
REMARK    6  A    between atoms: C_27  and  C_28
REMARK                            x       y       z     vdW  Elec       q    Type
REMARK                         _______ _______ _______ _____ _____    ______ ____
ROOT
ATOM      1  O   UNL     1       2.254   6.420  20.497  0.00  0.00    +0.000 OA
ATOM      2  C   UNL     1       2.120   7.249  19.604  0.00  0.00    +0.000 C 
ATOM      3  N   UNL     1       2.652   7.167  18.322  0.00  0.00    +0.000 N 
ATOM      4  H   UNL     1       2.652   7.996  17.739  0.00  0.00    +0.000 HD
ENDROOT
BRANCH   2   5
ATOM      5  C   UNL     1       1.375   8.462  19.975  0.00  0.00    +0.000 A 
ATOM      6  C   UNL     1       1.348   9.497  19.036  0.00  0.00    +0.000 A 
ATOM      7  N   UNL     1       0.785  10.720  19.205  0.00  0.00    +0.000 NA
ATOM      8  C   UNL     1       0.254  10.874  20.437  0.00  0.00    +0.000 A 
ATOM      9  C   UNL     1       0.251   9.936  21.466  0.00  0.00    +0.000 A 
ATOM     10  C   UNL     1      -0.358  10.611  22.544  0.00  0.00    +0.000 A 
ATOM     11  N   UNL     1      -0.735  11.856  22.240  0.00  0.00    +0.000 NA
ATOM     12  N   UNL     1      -0.391  11.983  20.930  0.00  0.00    +0.000 N 
ATOM     13  C   UNL     1       0.818   8.669  21.236  0.00  0.00    +0.000 A 
BRANCH  12  14
ATOM     14  C   UNL     1      -0.618  13.248  20.241  0.00  0.00    +0.000 C 
BRANCH  14  15
ATOM     15  C   UNL     1       0.645  14.063  20.082  0.00  0.00    +0.000 A 
ATOM     16  C   UNL     1       1.684  13.969  21.023  0.00  0.00    +0.000 A 
ATOM     17  C   UNL     1       2.836  14.751  20.897  0.00  0.00    +0.000 A 
ATOM     18  C   UNL     1       2.973  15.622  19.819  0.00  0.00    +0.000 A 
ATOM     19  C   UNL     1       1.965  15.703  18.860  0.00  0.00    +0.000 A 
ATOM     20  C   UNL     1       0.806  14.934  18.992  0.00  0.00    +0.000 A 
ENDBRANCH  14  15
ENDBRANCH  12  14
ENDBRANCH   2   5
BRANCH   3  21
ATOM     21  C   UNL     1       3.374   6.039  17.851  0.00  0.00    +0.000 A 
ATOM     22  C   UNL     1       2.792   4.764  17.813  0.00  0.00    +0.000 A 
ATOM     23  C   UNL     1       3.502   3.647  17.387  0.00  0.00    +0.000 A 
ATOM     24  C   UNL     1       4.813   3.791  16.957  0.00  0.00    +0.000 A 
ATOM     25  C   UNL     1       5.408   5.060  16.959  0.00  0.00    +0.000 A 
ATOM     26  C   UNL     1       4.687   6.190  17.389  0.00  0.00    +0.000 A 
BRANCH  25  27
ATOM     27  S   UNL     1       7.024   5.270  16.221  0.00  0.00    +0.000 S 
ATOM     28  O   UNL     1       7.391   6.672  16.396  0.00  0.00    +0.000 OA
ATOM     29  O   UNL     1       7.870   4.222  16.751  0.00  0.00    +0.000 OA
BRANCH  27  30
ATOM     30  N   UNL     1       6.807   4.986  14.547  0.00  0.00    +0.000 NA
ATOM     31  C   UNL     1       7.923   5.427  13.677  0.00  0.00    +0.000 C 
ATOM     32  C   UNL     1       7.604   5.269  12.194  0.00  0.00    +0.000 C 
ATOM     33  C   UNL     1       7.095   3.874  11.875  0.00  0.00    +0.000 C 
ATOM     34  C   UNL     1       5.855   3.592  12.705  0.00  0.00    +0.000 C 
ATOM     35  C   UNL     1       6.148   3.702  14.197  0.00  0.00    +0.000 C 
ENDBRANCH  27  30
ENDBRANCH  25  27
ENDBRANCH   3  21
TORSDOF 6
ENDMDL
