MODEL 1
REMARK VINA RESULT:      -9.5      0.000      0.000
REMARK  Name = 
REMARK  2 active torsions:
REMARK  status: ('A' for Active; 'I' for Inactive)
REMARK    1  A    between atoms: C_1  and  C_2
REMARK    2  A    between atoms: C_18  and  C_19
REMARK                            x       y       z     vdW  Elec       q    Type
REMARK                         _______ _______ _______ _____ _____    ______ ____
ROOT
ATOM      1  C   UNL     1       2.124   3.107  17.845  0.00  0.00    +0.000 C 
ATOM      2  C   UNL     1       3.228   3.736  18.720  0.00  0.00    +0.000 C 
ATOM      3  C   UNL     1       4.120   2.625  19.280  0.00  0.00    +0.000 C 
ATOM      4  C   UNL     1       3.339   2.143  20.506  0.00  0.00    +0.000 C 
ATOM      5  C   UNL     1       2.631   3.393  20.964  0.00  0.00    +0.000 C 
ATOM      6  O   UNL     1       2.126   3.506  22.068  0.00  0.00    +0.000 OA
ATOM      7  N   UNL     1       2.696   4.326  19.926  0.00  0.00    +0.000 N 
ATOM      8  C   UNL     1       2.302   5.672  19.993  0.00  0.00    +0.000 A 
ATOM      9  C   UNL     1       1.558   6.194  21.060  0.00  0.00    +0.000 A 
ATOM     10  C   UNL     1       1.189   7.544  21.100  0.00  0.00    +0.000 A 
ATOM     11  C   UNL     1       1.564   8.403  20.076  0.00  0.00    +0.000 A 
ATOM     12  C   UNL     1       2.314   7.909  19.018  0.00  0.00    +0.000 A 
ATOM     13  C   UNL     1       2.687   6.549  18.979  0.00  0.00    +0.000 A 
ATOM     14  C   UNL     1       3.553   6.080  17.882  0.00  0.00    +0.000 A 
ATOM     15  N   UNL     1       3.920   6.932  16.994  0.00  0.00    +0.000 NA
ATOM     16  C   UNL     1       4.711   6.494  15.983  0.00  0.00    +0.000 A 
ATOM     17  O   UNL     1       5.187   7.286  15.185  0.00  0.00    +0.000 OA
ATOM     18  C   UNL     1       5.061   5.022  15.817  0.00  0.00    +0.000 A 
ATOM     19  N   UNL     1       4.738   4.157  16.743  0.00  0.00    +0.000 NA
ATOM     20  N   UNL     1       3.951   4.695  17.826  0.00  0.00    +0.000 N 
ENDROOT
BRANCH  18  21
ATOM     21  C   UNL     1       5.782   4.581  14.585  0.00  0.00    +0.000 A 
ATOM     22  C   UNL     1       7.092   5.043  14.351  0.00  0.00    +0.000 A 
ATOM     23  C   UNL     1       7.745   4.698  13.168  0.00  0.00    +0.000 A 
ATOM     24  C   UNL     1       7.117   3.888  12.232  0.00  0.00    +0.000 A 
ATOM     25  F   UNL     1       7.741   3.587  11.088  0.00  0.00    +0.000 F 
ATOM     26  C   UNL     1       5.842   3.385  12.466  0.00  0.00    +0.000 A 
ATOM     27  C   UNL     1       5.181   3.718  13.650  0.00  0.00    +0.000 A 
ENDBRANCH  18  21
TORSDOF 1
ENDMDL
MODEL 2
REMARK VINA RESULT:      -8.9      3.867      7.365
REMARK  Name = 
REMARK  2 active torsions:
REMARK  status: ('A' for Active; 'I' for Inactive)
REMARK    1  A    between atoms: C_1  and  C_2
REMARK    2  A    between atoms: C_18  and  C_19
REMARK                            x       y       z     vdW  Elec       q    Type
REMARK                         _______ _______ _______ _____ _____    ______ ____
ROOT
ATOM      1  C   UNL     1       3.734   4.574  20.500  0.00  0.00    +0.000 C 
ATOM      2  C   UNL     1       2.831   4.485  19.252  0.00  0.00    +0.000 C 
ATOM      3  C   UNL     1       1.591   3.652  19.586  0.00  0.00    +0.000 C 
ATOM      4  C   UNL     1       2.085   2.214  19.405  0.00  0.00    +0.000 C 
ATOM      5  C   UNL     1       3.123   2.351  18.319  0.00  0.00    +0.000 C 
ATOM      6  O   UNL     1       3.557   1.403  17.689  0.00  0.00    +0.000 OA
ATOM      7  N   UNL     1       3.436   3.707  18.198  0.00  0.00    +0.000 N 
ATOM      8  C   UNL     1       4.236   4.288  17.200  0.00  0.00    +0.000 A 
ATOM      9  C   UNL     1       5.030   3.533  16.327  0.00  0.00    +0.000 A 
ATOM     10  C   UNL     1       5.809   4.143  15.337  0.00  0.00    +0.000 A 
ATOM     11  C   UNL     1       5.805   5.525  15.196  0.00  0.00    +0.000 A 
ATOM     12  C   UNL     1       5.014   6.290  16.040  0.00  0.00    +0.000 A 
ATOM     13  C   UNL     1       4.228   5.673  17.036  0.00  0.00    +0.000 A 
ATOM     14  C   UNL     1       3.337   6.511  17.860  0.00  0.00    +0.000 A 
ATOM     15  N   UNL     1       3.328   7.777  17.645  0.00  0.00    +0.000 NA
ATOM     16  C   UNL     1       2.513   8.545  18.410  0.00  0.00    +0.000 A 
ATOM     17  O   UNL     1       2.376   9.734  18.164  0.00  0.00    +0.000 OA
ATOM     18  C   UNL     1       1.721   7.965  19.573  0.00  0.00    +0.000 A 
ATOM     19  N   UNL     1       1.682   6.672  19.766  0.00  0.00    +0.000 NA
ATOM     20  N   UNL     1       2.521   5.902  18.879  0.00  0.00    +0.000 N 
ENDROOT
BRANCH  18  21
ATOM     21  C   UNL     1       0.987   8.892  20.488  0.00  0.00    +0.000 A 
ATOM     22  C   UNL     1       1.184   8.785  21.878  0.00  0.00    +0.000 A 
ATOM     23  C   UNL     1       0.447   9.593  22.743  0.00  0.00    +0.000 A 
ATOM     24  C   UNL     1      -0.463  10.511  22.239  0.00  0.00    +0.000 A 
ATOM     25  F   UNL     1      -1.186  11.261  23.078  0.00  0.00    +0.000 F 
ATOM     26  C   UNL     1      -0.638  10.663  20.868  0.00  0.00    +0.000 A 
ATOM     27  C   UNL     1       0.100   9.863  19.992  0.00  0.00    +0.000 A 
ENDBRANCH  18  21
TORSDOF 1
ENDMDL
MODEL 3
REMARK VINA RESULT:      -8.7      4.002      7.554
REMARK  Name = 
REMARK  2 active torsions:
REMARK  status: ('A' for Active; 'I' for Inactive)
REMARK    1  A    between atoms: C_1  and  C_2
REMARK    2  A    between atoms: C_18  and  C_19
REMARK                            x       y       z     vdW  Elec       q    Type
REMARK                         _______ _______ _______ _____ _____    ______ ____
ROOT
ATOM      1  C   UNL     1       3.330   4.646  20.736  0.00  0.00    +0.000 C 
ATOM      2  C   UNL     1       2.461   4.613  19.462  0.00  0.00    +0.000 C 
ATOM      3  C   UNL     1       1.201   3.787  19.732  0.00  0.00    +0.000 C 
ATOM      4  C   UNL     1       1.681   2.349  19.515  0.00  0.00    +0.000 C 
ATOM      5  C   UNL     1       2.750   2.508  18.464  0.00  0.00    +0.000 C 
ATOM      6  O   UNL     1       3.189   1.575  17.813  0.00  0.00    +0.000 OA
ATOM      7  N   UNL     1       3.085   3.863  18.398  0.00  0.00    +0.000 N 
ATOM      8  C   UNL     1       3.921   4.465  17.443  0.00  0.00    +0.000 A 
ATOM      9  C   UNL     1       4.729   3.728  16.567  0.00  0.00    +0.000 A 
ATOM     10  C   UNL     1       5.544   4.361  15.620  0.00  0.00    +0.000 A 
ATOM     11  C   UNL     1       5.562   5.746  15.527  0.00  0.00    +0.000 A 
ATOM     12  C   UNL     1       4.759   6.493  16.375  0.00  0.00    +0.000 A 
ATOM     13  C   UNL     1       3.936   5.855  17.327  0.00  0.00    +0.000 A 
ATOM     14  C   UNL     1       3.034   6.678  18.155  0.00  0.00    +0.000 A 
ATOM     15  N   UNL     1       3.049   7.950  17.983  0.00  0.00    +0.000 NA
ATOM     16  C   UNL     1       2.223   8.704  18.752  0.00  0.00    +0.000 A 
ATOM     17  O   UNL     1       2.109   9.901  18.543  0.00  0.00    +0.000 OA
ATOM     18  C   UNL     1       1.391   8.096  19.872  0.00  0.00    +0.000 A 
ATOM     19  N   UNL     1       1.329   6.797  20.018  0.00  0.00    +0.000 NA
ATOM     20  N   UNL     1       2.181   6.046  19.129  0.00  0.00    +0.000 N 
ENDROOT
BRANCH  18  21
ATOM     21  C   UNL     1       0.644   9.001  20.796  0.00  0.00    +0.000 A 
ATOM     22  C   UNL     1      -0.146  10.035  20.257  0.00  0.00    +0.000 A 
ATOM     23  C   UNL     1      -0.787  10.931  21.113  0.00  0.00    +0.000 A 
ATOM     24  C   UNL     1      -0.662  10.797  22.488  0.00  0.00    +0.000 A 
ATOM     25  F   UNL     1      -1.256  11.679  23.299  0.00  0.00    +0.000 F 
ATOM     26  C   UNL     1       0.076   9.755  23.039  0.00  0.00    +0.000 A 
ATOM     27  C   UNL     1       0.716   8.848  22.192  0.00  0.00    +0.000 A 
ENDBRANCH  18  21
TORSDOF 1
ENDMDL
MODEL 4
REMARK VINA RESULT:      -7.6      4.089      6.351
REMARK  Name = 
REMARK  2 active torsions:
REMARK  status: ('A' for Active; 'I' for Inactive)
REMARK    1  A    between atoms: C_1  and  C_2
REMARK    2  A    between atoms: C_18  and  C_19
REMARK                            x       y       z     vdW  Elec       q    Type
REMARK                         _______ _______ _______ _____ _____    ______ ____
ROOT
ATOM      1  C   UNL     1      -1.019   8.477  20.856  0.00  0.00    +0.000 C 
ATOM      2  C   UNL     1       0.249   9.271  21.234  0.00  0.00    +0.000 C 
ATOM      3  C   UNL     1       0.716   8.840  22.627  0.00  0.00    +0.000 C 
ATOM      4  C   UNL     1      -0.161   9.682  23.558  0.00  0.00    +0.000 C 
ATOM      5  C   UNL     1      -0.390  10.939  22.758  0.00  0.00    +0.000 C 
ATOM      6  O   UNL     1      -0.807  11.974  23.248  0.00  0.00    +0.000 OA
ATOM      7  N   UNL     1      -0.028  10.673  21.435  0.00  0.00    +0.000 N 
ATOM      8  C   UNL     1       0.065  11.614  20.395  0.00  0.00    +0.000 A 
ATOM      9  C   UNL     1      -0.436  12.918  20.503  0.00  0.00    +0.000 A 
ATOM     10  C   UNL     1      -0.319  13.833  19.450  0.00  0.00    +0.000 A 
ATOM     11  C   UNL     1       0.309  13.464  18.268  0.00  0.00    +0.000 A 
ATOM     12  C   UNL     1       0.826  12.183  18.147  0.00  0.00    +0.000 A 
ATOM     13  C   UNL     1       0.709  11.261  19.209  0.00  0.00    +0.000 A 
ATOM     14  C   UNL     1       1.343   9.937  19.076  0.00  0.00    +0.000 A 
ATOM     15  N   UNL     1       1.965   9.671  17.984  0.00  0.00    +0.000 NA
ATOM     16  C   UNL     1       2.540   8.448  17.862  0.00  0.00    +0.000 A 
ATOM     17  O   UNL     1       3.244   8.192  16.898  0.00  0.00    +0.000 OA
ATOM     18  C   UNL     1       2.361   7.368  18.919  0.00  0.00    +0.000 A 
ATOM     19  N   UNL     1       1.777   7.646  20.056  0.00  0.00    +0.000 NA
ATOM     20  N   UNL     1       1.241   8.982  20.151  0.00  0.00    +0.000 N 
ENDROOT
BRANCH  18  21
ATOM     21  C   UNL     1       2.865   5.989  18.642  0.00  0.00    +0.000 A 
ATOM     22  C   UNL     1       2.053   5.091  17.921  0.00  0.00    +0.000 A 
ATOM     23  C   UNL     1       2.483   3.779  17.722  0.00  0.00    +0.000 A 
ATOM     24  C   UNL     1       3.711   3.363  18.216  0.00  0.00    +0.000 A 
ATOM     25  F   UNL     1       4.101   2.095  18.045  0.00  0.00    +0.000 F 
ATOM     26  C   UNL     1       4.546   4.247  18.890  0.00  0.00    +0.000 A 
ATOM     27  C   UNL     1       4.130   5.565  19.088  0.00  0.00    +0.000 A 
ENDBRANCH  18  21
TORSDOF 1
ENDMDL
MODEL 5
REMARK VINA RESULT:      -7.6      4.049      7.163
REMARK  Name = 
REMARK  2 active torsions:
REMARK  status: ('A' for Active; 'I' for Inactive)
REMARK    1  A    between atoms: C_1  and  C_2
REMARK    2  A    between atoms: C_18  and  C_19
REMARK                            x       y       z     vdW  Elec       q    Type
REMARK                         _______ _______ _______ _____ _____    ______ ____
ROOT
ATOM      1  C   UNL     1       2.580   5.223  20.171  0.00  0.00    +0.000 C 
ATOM      2  C   UNL     1       2.488   5.143  18.634  0.00  0.00    +0.000 C 
ATOM      3  C   UNL     1       1.258   4.318  18.245  0.00  0.00    +0.000 C 
ATOM      4  C   UNL     1       1.765   2.877  18.350  0.00  0.00    +0.000 C 
ATOM      5  C   UNL     1       3.223   3.008  17.992  0.00  0.00    +0.000 C 
ATOM      6  O   UNL     1       3.923   2.057  17.689  0.00  0.00    +0.000 OA
ATOM      7  N   UNL     1       3.560   4.362  18.065  0.00  0.00    +0.000 N 
ATOM      8  C   UNL     1       4.774   4.938  17.656  0.00  0.00    +0.000 A 
ATOM      9  C   UNL     1       5.909   4.178  17.341  0.00  0.00    +0.000 A 
ATOM     10  C   UNL     1       7.101   4.785  16.928  0.00  0.00    +0.000 A 
ATOM     11  C   UNL     1       7.181   6.166  16.814  0.00  0.00    +0.000 A 
ATOM     12  C   UNL     1       6.064   6.936  17.106  0.00  0.00    +0.000 A 
ATOM     13  C   UNL     1       4.862   6.324  17.521  0.00  0.00    +0.000 A 
ATOM     14  C   UNL     1       3.674   7.168  17.742  0.00  0.00    +0.000 A 
ATOM     15  N   UNL     1       3.789   8.434  17.562  0.00  0.00    +0.000 NA
ATOM     16  C   UNL     1       2.694   9.207  17.774  0.00  0.00    +0.000 A 
ATOM     17  O   UNL     1       2.717  10.396  17.499  0.00  0.00    +0.000 OA
ATOM     18  C   UNL     1       1.399   8.631  18.327  0.00  0.00    +0.000 A 
ATOM     19  N   UNL     1       1.255   7.338  18.461  0.00  0.00    +0.000 NA
ATOM     20  N   UNL     1       2.434   6.562  18.160  0.00  0.00    +0.000 N 
ENDROOT
BRANCH  18  21
ATOM     21  C   UNL     1       0.293   9.561  18.709  0.00  0.00    +0.000 A 
ATOM     22  C   UNL     1      -0.712   9.857  17.768  0.00  0.00    +0.000 A 
ATOM     23  C   UNL     1      -1.706  10.782  18.088  0.00  0.00    +0.000 A 
ATOM     24  C   UNL     1      -1.716  11.396  19.333  0.00  0.00    +0.000 A 
ATOM     25  F   UNL     1      -2.657  12.303  19.619  0.00  0.00    +0.000 F 
ATOM     26  C   UNL     1      -0.758  11.082  20.290  0.00  0.00    +0.000 A 
ATOM     27  C   UNL     1       0.237  10.153  19.983  0.00  0.00    +0.000 A 
ENDBRANCH  18  21
TORSDOF 1
ENDMDL
MODEL 6
REMARK VINA RESULT:      -7.6      3.467      5.826
REMARK  Name = 
REMARK  2 active torsions:
REMARK  status: ('A' for Active; 'I' for Inactive)
REMARK    1  A    between atoms: C_1  and  C_2
REMARK    2  A    between atoms: C_18  and  C_19
REMARK                            x       y       z     vdW  Elec       q    Type
REMARK                         _______ _______ _______ _____ _____    ______ ____
ROOT
ATOM      1  C   UNL     1       1.650  10.780  18.200  0.00  0.00    +0.000 C 
ATOM      2  C   UNL     1       0.492   9.807  18.503  0.00  0.00    +0.000 C 
ATOM      3  C   UNL     1      -0.391   9.673  17.260  0.00  0.00    +0.000 C 
ATOM      4  C   UNL     1      -1.312  10.893  17.360  0.00  0.00    +0.000 C 
ATOM      5  C   UNL     1      -1.441  11.093  18.849  0.00  0.00    +0.000 C 
ATOM      6  O   UNL     1      -2.306  11.787  19.355  0.00  0.00    +0.000 OA
ATOM      7  N   UNL     1      -0.435  10.347  19.469  0.00  0.00    +0.000 N 
ATOM      8  C   UNL     1      -0.295  10.128  20.849  0.00  0.00    +0.000 A 
ATOM      9  C   UNL     1      -1.024  10.841  21.810  0.00  0.00    +0.000 A 
ATOM     10  C   UNL     1      -0.868  10.590  23.178  0.00  0.00    +0.000 A 
ATOM     11  C   UNL     1       0.018   9.614  23.614  0.00  0.00    +0.000 A 
ATOM     12  C   UNL     1       0.738   8.886  22.678  0.00  0.00    +0.000 A 
ATOM     13  C   UNL     1       0.578   9.138  21.299  0.00  0.00    +0.000 A 
ATOM     14  C   UNL     1       1.297   8.288  20.332  0.00  0.00    +0.000 A 
ATOM     15  N   UNL     1       2.057   7.359  20.791  0.00  0.00    +0.000 NA
ATOM     16  C   UNL     1       2.722   6.585  19.898  0.00  0.00    +0.000 A 
ATOM     17  O   UNL     1       3.357   5.614  20.277  0.00  0.00    +0.000 OA
ATOM     18  C   UNL     1       2.684   6.869  18.403  0.00  0.00    +0.000 A 
ATOM     19  N   UNL     1       1.873   7.776  17.924  0.00  0.00    +0.000 NA
ATOM     20  N   UNL     1       1.144   8.524  18.919  0.00  0.00    +0.000 N 
ENDROOT
BRANCH  18  21
ATOM     21  C   UNL     1       3.581   6.094  17.492  0.00  0.00    +0.000 A 
ATOM     22  C   UNL     1       3.424   4.697  17.398  0.00  0.00    +0.000 A 
ATOM     23  C   UNL     1       4.304   3.957  16.609  0.00  0.00    +0.000 A 
ATOM     24  C   UNL     1       5.318   4.592  15.906  0.00  0.00    +0.000 A 
ATOM     25  F   UNL     1       6.175   3.869  15.176  0.00  0.00    +0.000 F 
ATOM     26  C   UNL     1       5.460   5.975  15.951  0.00  0.00    +0.000 A 
ATOM     27  C   UNL     1       4.580   6.727  16.732  0.00  0.00    +0.000 A 
ENDBRANCH  18  21
TORSDOF 1
ENDMDL
MODEL 7
REMARK VINA RESULT:      -7.5      5.945      8.717
REMARK  Name = 
REMARK  2 active torsions:
REMARK  status: ('A' for Active; 'I' for Inactive)
REMARK    1  A    between atoms: C_1  and  C_2
REMARK    2  A    between atoms: C_18  and  C_19
REMARK                            x       y       z     vdW  Elec       q    Type
REMARK                         _______ _______ _______ _____ _____    ______ ____
ROOT
ATOM      1  C   UNL     1      -1.178  12.327  18.152  0.00  0.00    +0.000 C 
ATOM      2  C   UNL     1      -2.050  11.486  19.107  0.00  0.00    +0.000 C 
ATOM      3  C   UNL     1      -2.976  10.586  18.284  0.00  0.00    +0.000 C 
ATOM      4  C   UNL     1      -4.143  11.517  17.942  0.00  0.00    +0.000 C 
ATOM      5  C   UNL     1      -4.194  12.441  19.132  0.00  0.00    +0.000 C 
ATOM      6  O   UNL     1      -5.153  13.151  19.383  0.00  0.00    +0.000 OA
ATOM      7  N   UNL     1      -2.996  12.297  19.836  0.00  0.00    +0.000 N 
ATOM      8  C   UNL     1      -2.698  12.855  21.090  0.00  0.00    +0.000 A 
ATOM      9  C   UNL     1      -3.493  13.840  21.692  0.00  0.00    +0.000 A 
ATOM     10  C   UNL     1      -3.172  14.368  22.949  0.00  0.00    +0.000 A 
ATOM     11  C   UNL     1      -2.052  13.916  23.633  0.00  0.00    +0.000 A 
ATOM     12  C   UNL     1      -1.261  12.930  23.061  0.00  0.00    +0.000 A 
ATOM     13  C   UNL     1      -1.586  12.397  21.796  0.00  0.00    +0.000 A 
ATOM     14  C   UNL     1      -0.769  11.293  21.258  0.00  0.00    +0.000 A 
ATOM     15  N   UNL     1       0.219  10.873  21.962  0.00  0.00    +0.000 NA
ATOM     16  C   UNL     1       0.972   9.863  21.459  0.00  0.00    +0.000 A 
ATOM     17  O   UNL     1       1.843   9.346  22.140  0.00  0.00    +0.000 OA
ATOM     18  C   UNL     1       0.748   9.315  20.057  0.00  0.00    +0.000 A 
ATOM     19  N   UNL     1      -0.287   9.698  19.355  0.00  0.00    +0.000 NA
ATOM     20  N   UNL     1      -1.087  10.730  19.970  0.00  0.00    +0.000 N 
ENDROOT
BRANCH  18  21
ATOM     21  C   UNL     1       1.724   8.332  19.496  0.00  0.00    +0.000 A 
ATOM     22  C   UNL     1       2.347   8.608  18.263  0.00  0.00    +0.000 A 
ATOM     23  C   UNL     1       3.201   7.663  17.695  0.00  0.00    +0.000 A 
ATOM     24  C   UNL     1       3.451   6.463  18.347  0.00  0.00    +0.000 A 
ATOM     25  F   UNL     1       4.248   5.552  17.779  0.00  0.00    +0.000 F 
ATOM     26  C   UNL     1       2.880   6.192  19.585  0.00  0.00    +0.000 A 
ATOM     27  C   UNL     1       2.029   7.134  20.167  0.00  0.00    +0.000 A 
ENDBRANCH  18  21
TORSDOF 1
ENDMDL
MODEL 8
REMARK VINA RESULT:      -7.5      4.157      6.306
REMARK  Name = 
REMARK  2 active torsions:
REMARK  status: ('A' for Active; 'I' for Inactive)
REMARK    1  A    between atoms: C_1  and  C_2
REMARK    2  A    between atoms: C_18  and  C_19
REMARK                            x       y       z     vdW  Elec       q    Type
REMARK                         _______ _______ _______ _____ _____    ______ ____
ROOT
ATOM      1  C   UNL     1      -1.018   8.786  20.416  0.00  0.00    +0.000 C 
ATOM      2  C   UNL     1       0.304   9.328  20.998  0.00  0.00    +0.000 C 
ATOM      3  C   UNL     1       0.462   8.832  22.437  0.00  0.00    +0.000 C 
ATOM      4  C   UNL     1      -0.372   9.835  23.239  0.00  0.00    +0.000 C 
ATOM      5  C   UNL     1      -0.233  11.104  22.436  0.00  0.00    +0.000 C 
ATOM      6  O   UNL     1      -0.515  12.205  22.876  0.00  0.00    +0.000 OA
ATOM      7  N   UNL     1       0.271  10.760  21.179  0.00  0.00    +0.000 N 
ATOM      8  C   UNL     1       0.698  11.653  20.183  0.00  0.00    +0.000 A 
ATOM      9  C   UNL     1       0.443  13.030  20.237  0.00  0.00    +0.000 A 
ATOM     10  C   UNL     1       0.891  13.895  19.231  0.00  0.00    +0.000 A 
ATOM     11  C   UNL     1       1.612  13.400  18.152  0.00  0.00    +0.000 A 
ATOM     12  C   UNL     1       1.888  12.042  18.088  0.00  0.00    +0.000 A 
ATOM     13  C   UNL     1       1.438  11.172  19.103  0.00  0.00    +0.000 A 
ATOM     14  C   UNL     1       1.822   9.749  19.043  0.00  0.00    +0.000 A 
ATOM     15  N   UNL     1       2.541   9.358  18.054  0.00  0.00    +0.000 NA
ATOM     16  C   UNL     1       2.886   8.047  18.000  0.00  0.00    +0.000 A 
ATOM     17  O   UNL     1       3.668   7.650  17.150  0.00  0.00    +0.000 OA
ATOM     18  C   UNL     1       2.346   7.032  18.997  0.00  0.00    +0.000 A 
ATOM     19  N   UNL     1       1.658   7.429  20.036  0.00  0.00    +0.000 NA
ATOM     20  N   UNL     1       1.377   8.844  20.073  0.00  0.00    +0.000 N 
ENDROOT
BRANCH  18  21
ATOM     21  C   UNL     1       2.616   5.579  18.775  0.00  0.00    +0.000 A 
ATOM     22  C   UNL     1       3.701   4.973  19.437  0.00  0.00    +0.000 A 
ATOM     23  C   UNL     1       4.007   3.636  19.179  0.00  0.00    +0.000 A 
ATOM     24  C   UNL     1       3.238   2.902  18.287  0.00  0.00    +0.000 A 
ATOM     25  F   UNL     1       3.558   1.630  18.024  0.00  0.00    +0.000 F 
ATOM     26  C   UNL     1       2.136   3.471  17.659  0.00  0.00    +0.000 A 
ATOM     27  C   UNL     1       1.816   4.806  17.915  0.00  0.00    +0.000 A 
ENDBRANCH  18  21
TORSDOF 1
ENDMDL
MODEL 9
REMARK VINA RESULT:      -7.4     10.077     12.804
REMARK  Name = 
REMARK  2 active torsions:
REMARK  status: ('A' for Active; 'I' for Inactive)
REMARK    1  A    between atoms: C_1  and  C_2
REMARK    2  A    between atoms: C_18  and  C_19
REMARK                            x       y       z     vdW  Elec       q    Type
REMARK                         _______ _______ _______ _____ _____    ______ ____
ROOT
ATOM      1  C   UNL     1      11.423  12.915  20.351  0.00  0.00    +0.000 C 
ATOM      2  C   UNL     1      10.167  13.069  19.469  0.00  0.00    +0.000 C 
ATOM      3  C   UNL     1       9.785  11.703  18.893  0.00  0.00    +0.000 C 
ATOM      4  C   UNL     1      10.701  11.579  17.671  0.00  0.00    +0.000 C 
ATOM      5  C   UNL     1      10.865  13.010  17.229  0.00  0.00    +0.000 C 
ATOM      6  O   UNL     1      11.292  13.324  16.131  0.00  0.00    +0.000 OA
ATOM      7  N   UNL     1      10.432  13.832  18.273  0.00  0.00    +0.000 N 
ATOM      8  C   UNL     1      10.267  15.226  18.219  0.00  0.00    +0.000 A 
ATOM      9  C   UNL     1      10.754  16.008  17.163  0.00  0.00    +0.000 A 
ATOM     10  C   UNL     1      10.564  17.395  17.136  0.00  0.00    +0.000 A 
ATOM     11  C   UNL     1       9.875  18.028  18.162  0.00  0.00    +0.000 A 
ATOM     12  C   UNL     1       9.372  17.269  19.209  0.00  0.00    +0.000 A 
ATOM     13  C   UNL     1       9.563  15.871  19.235  0.00  0.00    +0.000 A 
ATOM     14  C   UNL     1       8.942  15.088  20.320  0.00  0.00    +0.000 A 
ATOM     15  N   UNL     1       8.265  15.719  21.210  0.00  0.00    +0.000 NA
ATOM     16  C   UNL     1       7.702  14.996  22.210  0.00  0.00    +0.000 A 
ATOM     17  O   UNL     1       6.949  15.530  23.008  0.00  0.00    +0.000 OA
ATOM     18  C   UNL     1       7.957  13.503  22.363  0.00  0.00    +0.000 A 
ATOM     19  N   UNL     1       8.599  12.844  21.434  0.00  0.00    +0.000 NA
ATOM     20  N   UNL     1       9.119  13.658  20.362  0.00  0.00    +0.000 N 
ENDROOT
BRANCH  18  21
ATOM     21  C   UNL     1       7.458  12.802  23.585  0.00  0.00    +0.000 A 
ATOM     22  C   UNL     1       8.151  12.963  24.801  0.00  0.00    +0.000 A 
ATOM     23  C   UNL     1       7.738  12.253  25.928  0.00  0.00    +0.000 A 
ATOM     24  C   UNL     1       6.641  11.406  25.860  0.00  0.00    +0.000 A 
ATOM     25  F   UNL     1       6.272  10.708  26.940  0.00  0.00    +0.000 F 
ATOM     26  C   UNL     1       5.918  11.270  24.681  0.00  0.00    +0.000 A 
ATOM     27  C   UNL     1       6.318  11.980  23.547  0.00  0.00    +0.000 A 
ENDBRANCH  18  21
TORSDOF 1
ENDMDL
