MODEL 1
REMARK VINA RESULT:      -8.9      0.000      0.000
REMARK  Name = 
REMARK  7 active torsions:
REMARK  status: ('A' for Active; 'I' for Inactive)
REMARK    1  A    between atoms: C_2  and  C_3
REMARK    2  A    between atoms: C_3  and  C_4
REMARK    3  A    between atoms: C_4  and  C_5
REMARK    4  A    between atoms: C_7  and  C_8
REMARK    5  A    between atoms: N_17  and  C_18
REMARK    6  A    between atoms: C_22  and  C_23
REMARK    7  A    between atoms: N_25  and  C_26
REMARK                            x       y       z     vdW  Elec       q    Type
REMARK                         _______ _______ _______ _____ _____    ______ ____
ROOT
ATOM      1  O   UNL     1       8.296   7.279  18.770  0.00  0.00    +0.000 OA
ATOM      2  C   UNL     1       7.900   7.994  17.854  0.00  0.00    +0.000 C 
ATOM      3  N   UNL     1       7.028   7.627  16.841  0.00  0.00    +0.000 N 
ATOM      4  H   UNL     1       6.964   8.249  16.043  0.00  0.00    +0.000 HD
ENDROOT
BRANCH   3   5
ATOM      5  C   UNL     1       6.344   6.395  16.725  0.00  0.00    +0.000 A 
ATOM      6  C   UNL     1       6.903   5.266  16.123  0.00  0.00    +0.000 A 
ATOM      7  C   UNL     1       6.183   4.072  16.028  0.00  0.00    +0.000 A 
ATOM      8  C   UNL     1       4.892   3.986  16.542  0.00  0.00    +0.000 A 
ATOM      9  C   UNL     1       4.317   5.101  17.163  0.00  0.00    +0.000 A 
ATOM     10  C   UNL     1       5.052   6.296  17.264  0.00  0.00    +0.000 A 
BRANCH   9  11
ATOM     11  C   UNL     1       2.961   5.032  17.787  0.00  0.00    +0.000 C 
ATOM     12  O   UNL     1       2.372   6.072  18.068  0.00  0.00    +0.000 OA
ATOM     13  N   UNL     1       2.443   3.767  18.010  0.00  0.00    +0.000 N 
ATOM     14  H   UNL     1       2.907   2.960  17.619  0.00  0.00    +0.000 HD
BRANCH  13  15
ATOM     15  C   UNL     1       1.181   3.557  18.657  0.00  0.00    +0.000 C 
ATOM     16  C   UNL     1       1.115   3.053  20.075  0.00  0.00    +0.000 C 
ATOM     17  C   UNL     1       0.690   2.166  18.942  0.00  0.00    +0.000 C 
ENDBRANCH  13  15
ENDBRANCH   9  11
ENDBRANCH   3   5
BRANCH   2  18
ATOM     18  C   UNL     1       8.380   9.433  17.761  0.00  0.00    +0.000 C 
BRANCH  18  19
ATOM     19  C   UNL     1       9.104   9.847  19.042  0.00  0.00    +0.000 C 
BRANCH  19  20
ATOM     20  C   UNL     1       9.824  11.125  18.851  0.00  0.00    +0.000 A 
ATOM     21  N   UNL     1       9.338  12.308  18.563  0.00  0.00    +0.000 NA
ATOM     22  C   UNL     1      10.476  13.079  18.448  0.00  0.00    +0.000 A 
ATOM     23  N   UNL     1      11.614  12.406  18.688  0.00  0.00    +0.000 NA
ATOM     24  O   UNL     1      11.183  11.107  18.955  0.00  0.00    +0.000 OA
BRANCH  22  25
ATOM     25  C   UNL     1      10.404  14.486  18.074  0.00  0.00    +0.000 A 
ATOM     26  C   UNL     1       9.257  15.234  18.390  0.00  0.00    +0.000 A 
ATOM     27  C   UNL     1       9.161  16.579  18.026  0.00  0.00    +0.000 A 
ATOM     28  C   UNL     1      10.216  17.177  17.347  0.00  0.00    +0.000 A 
ATOM     29  F   UNL     1      10.125  18.466  16.997  0.00  0.00    +0.000 F 
ATOM     30  C   UNL     1      11.361  16.457  17.025  0.00  0.00    +0.000 A 
ATOM     31  C   UNL     1      11.457  15.112  17.388  0.00  0.00    +0.000 A 
ENDBRANCH  22  25
ENDBRANCH  19  20
ENDBRANCH  18  19
ENDBRANCH   2  18
TORSDOF 7
ENDMDL
MODEL 2
REMARK VINA RESULT:      -8.5      6.704      8.941
REMARK  Name = 
REMARK  7 active torsions:
REMARK  status: ('A' for Active; 'I' for Inactive)
REMARK    1  A    between atoms: C_2  and  C_3
REMARK    2  A    between atoms: C_3  and  C_4
REMARK    3  A    between atoms: C_4  and  C_5
REMARK    4  A    between atoms: C_7  and  C_8
REMARK    5  A    between atoms: N_17  and  C_18
REMARK    6  A    between atoms: C_22  and  C_23
REMARK    7  A    between atoms: N_25  and  C_26
REMARK                            x       y       z     vdW  Elec       q    Type
REMARK                         _______ _______ _______ _____ _____    ______ ____
ROOT
ATOM      1  O   UNL     1       3.160   2.741  16.933  0.00  0.00    +0.000 OA
ATOM      2  C   UNL     1       3.608   2.555  18.061  0.00  0.00    +0.000 C 
ATOM      3  N   UNL     1       4.756   3.119  18.595  0.00  0.00    +0.000 N 
ATOM      4  H   UNL     1       5.114   2.709  19.450  0.00  0.00    +0.000 HD
ENDROOT
BRANCH   3   5
ATOM      5  C   UNL     1       5.573   4.099  17.986  0.00  0.00    +0.000 A 
ATOM      6  C   UNL     1       6.165   5.147  18.695  0.00  0.00    +0.000 A 
ATOM      7  C   UNL     1       6.961   6.093  18.046  0.00  0.00    +0.000 A 
ATOM      8  C   UNL     1       7.185   6.003  16.675  0.00  0.00    +0.000 A 
ATOM      9  C   UNL     1       6.615   4.954  15.946  0.00  0.00    +0.000 A 
ATOM     10  C   UNL     1       5.823   3.998  16.608  0.00  0.00    +0.000 A 
BRANCH   9  11
ATOM     11  C   UNL     1       6.885   4.781  14.487  0.00  0.00    +0.000 C 
ATOM     12  O   UNL     1       7.669   5.540  13.923  0.00  0.00    +0.000 OA
ATOM     13  N   UNL     1       6.218   3.749  13.849  0.00  0.00    +0.000 N 
ATOM     14  H   UNL     1       5.708   3.069  14.397  0.00  0.00    +0.000 HD
BRANCH  13  15
ATOM     15  C   UNL     1       6.337   3.511  12.441  0.00  0.00    +0.000 C 
ATOM     16  C   UNL     1       5.116   3.281  11.590  0.00  0.00    +0.000 C 
ATOM     17  C   UNL     1       6.059   2.148  11.869  0.00  0.00    +0.000 C 
ENDBRANCH  13  15
ENDBRANCH   9  11
ENDBRANCH   3   5
BRANCH   2  18
ATOM     18  C   UNL     1       2.882   1.618  19.013  0.00  0.00    +0.000 C 
BRANCH  18  19
ATOM     19  C   UNL     1       1.565   2.235  19.481  0.00  0.00    +0.000 C 
BRANCH  19  20
ATOM     20  C   UNL     1       1.769   3.624  19.946  0.00  0.00    +0.000 A 
ATOM     21  N   UNL     1       1.344   4.742  19.410  0.00  0.00    +0.000 NA
ATOM     22  C   UNL     1       1.892   5.699  20.238  0.00  0.00    +0.000 A 
ATOM     23  N   UNL     1       2.597   5.191  21.263  0.00  0.00    +0.000 NA
ATOM     24  O   UNL     1       2.517   3.811  21.070  0.00  0.00    +0.000 OA
BRANCH  22  25
ATOM     25  C   UNL     1       1.716   7.122  19.974  0.00  0.00    +0.000 A 
ATOM     26  C   UNL     1       1.151   7.949  20.960  0.00  0.00    +0.000 A 
ATOM     27  C   UNL     1       0.958   9.311  20.722  0.00  0.00    +0.000 A 
ATOM     28  C   UNL     1       1.334   9.847  19.497  0.00  0.00    +0.000 A 
ATOM     29  F   UNL     1       1.150  11.154  19.267  0.00  0.00    +0.000 F 
ATOM     30  C   UNL     1       1.896   9.049  18.507  0.00  0.00    +0.000 A 
ATOM     31  C   UNL     1       2.088   7.686  18.744  0.00  0.00    +0.000 A 
ENDBRANCH  22  25
ENDBRANCH  19  20
ENDBRANCH  18  19
ENDBRANCH   2  18
TORSDOF 7
ENDMDL
MODEL 3
REMARK VINA RESULT:      -8.5      4.565     10.823
REMARK  Name = 
REMARK  7 active torsions:
REMARK  status: ('A' for Active; 'I' for Inactive)
REMARK    1  A    between atoms: C_2  and  C_3
REMARK    2  A    between atoms: C_3  and  C_4
REMARK    3  A    between atoms: C_4  and  C_5
REMARK    4  A    between atoms: C_7  and  C_8
REMARK    5  A    between atoms: N_17  and  C_18
REMARK    6  A    between atoms: C_22  and  C_23
REMARK    7  A    between atoms: N_25  and  C_26
REMARK                            x       y       z     vdW  Elec       q    Type
REMARK                         _______ _______ _______ _____ _____    ______ ____
ROOT
ATOM      1  O   UNL     1       8.743   7.712  19.027  0.00  0.00    +0.000 OA
ATOM      2  C   UNL     1       8.217   8.433  18.183  0.00  0.00    +0.000 C 
ATOM      3  N   UNL     1       8.423   9.794  18.018  0.00  0.00    +0.000 N 
ATOM      4  H   UNL     1       7.765  10.289  17.427  0.00  0.00    +0.000 HD
ENDROOT
BRANCH   3   5
ATOM      5  C   UNL     1       9.355  10.594  18.718  0.00  0.00    +0.000 A 
ATOM      6  C   UNL     1      10.619  10.909  18.214  0.00  0.00    +0.000 A 
ATOM      7  C   UNL     1      11.507  11.701  18.947  0.00  0.00    +0.000 A 
ATOM      8  C   UNL     1      11.141  12.198  20.195  0.00  0.00    +0.000 A 
ATOM      9  C   UNL     1       9.874  11.908  20.713  0.00  0.00    +0.000 A 
ATOM     10  C   UNL     1       8.981  11.118  19.965  0.00  0.00    +0.000 A 
BRANCH   9  11
ATOM     11  C   UNL     1       9.416  12.476  22.017  0.00  0.00    +0.000 C 
ATOM     12  O   UNL     1       9.659  13.650  22.283  0.00  0.00    +0.000 OA
ATOM     13  N   UNL     1       8.726  11.620  22.859  0.00  0.00    +0.000 N 
ATOM     14  H   UNL     1       8.426  10.718  22.519  0.00  0.00    +0.000 HD
BRANCH  13  15
ATOM     15  C   UNL     1       8.284  12.018  24.164  0.00  0.00    +0.000 C 
ATOM     16  C   UNL     1       7.009  11.470  24.747  0.00  0.00    +0.000 C 
ATOM     17  C   UNL     1       7.084  12.908  24.327  0.00  0.00    +0.000 C 
ENDBRANCH  13  15
ENDBRANCH   9  11
ENDBRANCH   3   5
BRANCH   2  18
ATOM     18  C   UNL     1       7.229   7.836  17.194  0.00  0.00    +0.000 C 
BRANCH  18  19
ATOM     19  C   UNL     1       7.268   6.309  17.243  0.00  0.00    +0.000 C 
BRANCH  19  20
ATOM     20  C   UNL     1       5.934   5.757  17.561  0.00  0.00    +0.000 A 
ATOM     21  N   UNL     1       5.459   5.369  18.720  0.00  0.00    +0.000 NA
ATOM     22  C   UNL     1       4.207   4.896  18.387  0.00  0.00    +0.000 A 
ATOM     23  N   UNL     1       3.909   5.017  17.083  0.00  0.00    +0.000 NA
ATOM     24  O   UNL     1       5.056   5.589  16.531  0.00  0.00    +0.000 OA
BRANCH  22  25
ATOM     25  C   UNL     1       3.329   4.302  19.389  0.00  0.00    +0.000 A 
ATOM     26  C   UNL     1       3.744   3.155  20.086  0.00  0.00    +0.000 A 
ATOM     27  C   UNL     1       2.911   2.560  21.037  0.00  0.00    +0.000 A 
ATOM     28  C   UNL     1       1.664   3.117  21.292  0.00  0.00    +0.000 A 
ATOM     29  F   UNL     1       0.865   2.548  22.204  0.00  0.00    +0.000 F 
ATOM     30  C   UNL     1       1.234   4.252  20.615  0.00  0.00    +0.000 A 
ATOM     31  C   UNL     1       2.066   4.847  19.664  0.00  0.00    +0.000 A 
ENDBRANCH  22  25
ENDBRANCH  19  20
ENDBRANCH  18  19
ENDBRANCH   2  18
TORSDOF 7
ENDMDL
MODEL 4
REMARK VINA RESULT:      -8.5      6.170      9.013
REMARK  Name = 
REMARK  7 active torsions:
REMARK  status: ('A' for Active; 'I' for Inactive)
REMARK    1  A    between atoms: C_2  and  C_3
REMARK    2  A    between atoms: C_3  and  C_4
REMARK    3  A    between atoms: C_4  and  C_5
REMARK    4  A    between atoms: C_7  and  C_8
REMARK    5  A    between atoms: N_17  and  C_18
REMARK    6  A    between atoms: C_22  and  C_23
REMARK    7  A    between atoms: N_25  and  C_26
REMARK                            x       y       z     vdW  Elec       q    Type
REMARK                         _______ _______ _______ _____ _____    ______ ____
ROOT
ATOM      1  O   UNL     1       0.497   4.407  20.384  0.00  0.00    +0.000 OA
ATOM      2  C   UNL     1       1.618   4.562  20.860  0.00  0.00    +0.000 C 
ATOM      3  N   UNL     1       2.384   5.715  20.802  0.00  0.00    +0.000 N 
ATOM      4  H   UNL     1       3.364   5.627  21.048  0.00  0.00    +0.000 HD
ENDROOT
BRANCH   3   5
ATOM      5  C   UNL     1       1.985   6.966  20.278  0.00  0.00    +0.000 A 
ATOM      6  C   UNL     1       2.274   7.374  18.974  0.00  0.00    +0.000 A 
ATOM      7  C   UNL     1       1.860   8.623  18.504  0.00  0.00    +0.000 A 
ATOM      8  C   UNL     1       1.143   9.484  19.331  0.00  0.00    +0.000 A 
ATOM      9  C   UNL     1       0.829   9.091  20.637  0.00  0.00    +0.000 A 
ATOM     10  C   UNL     1       1.240   7.827  21.099  0.00  0.00    +0.000 A 
BRANCH   9  11
ATOM     11  C   UNL     1       0.004   9.954  21.534  0.00  0.00    +0.000 C 
ATOM     12  O   UNL     1      -0.067   9.688  22.731  0.00  0.00    +0.000 OA
ATOM     13  N   UNL     1      -0.639  11.029  20.943  0.00  0.00    +0.000 N 
ATOM     14  H   UNL     1      -0.417  11.282  19.991  0.00  0.00    +0.000 HD
BRANCH  13  15
ATOM     15  C   UNL     1      -1.509  11.901  21.676  0.00  0.00    +0.000 C 
ATOM     16  C   UNL     1      -1.654  13.349  21.291  0.00  0.00    +0.000 C 
ATOM     17  C   UNL     1      -0.946  12.978  22.561  0.00  0.00    +0.000 C 
ENDBRANCH  13  15
ENDBRANCH   9  11
ENDBRANCH   3   5
BRANCH   2  18
ATOM     18  C   UNL     1       2.289   3.413  21.595  0.00  0.00    +0.000 C 
BRANCH  18  19
ATOM     19  C   UNL     1       2.879   2.408  20.606  0.00  0.00    +0.000 C 
BRANCH  19  20
ATOM     20  C   UNL     1       3.745   3.087  19.618  0.00  0.00    +0.000 A 
ATOM     21  N   UNL     1       4.561   4.098  19.796  0.00  0.00    +0.000 NA
ATOM     22  C   UNL     1       5.035   4.329  18.522  0.00  0.00    +0.000 A 
ATOM     23  N   UNL     1       4.558   3.474  17.602  0.00  0.00    +0.000 NA
ATOM     24  O   UNL     1       3.699   2.648  18.328  0.00  0.00    +0.000 OA
BRANCH  22  25
ATOM     25  C   UNL     1       5.952   5.427  18.240  0.00  0.00    +0.000 A 
ATOM     26  C   UNL     1       5.683   6.302  17.174  0.00  0.00    +0.000 A 
ATOM     27  C   UNL     1       6.556   7.350  16.876  0.00  0.00    +0.000 A 
ATOM     28  C   UNL     1       7.699   7.524  17.648  0.00  0.00    +0.000 A 
ATOM     29  F   UNL     1       8.538   8.528  17.363  0.00  0.00    +0.000 F 
ATOM     30  C   UNL     1       7.985   6.671  18.708  0.00  0.00    +0.000 A 
ATOM     31  C   UNL     1       7.111   5.622  19.006  0.00  0.00    +0.000 A 
ENDBRANCH  22  25
ENDBRANCH  19  20
ENDBRANCH  18  19
ENDBRANCH   2  18
TORSDOF 7
ENDMDL
MODEL 5
REMARK VINA RESULT:      -8.5      7.389     10.070
REMARK  Name = 
REMARK  7 active torsions:
REMARK  status: ('A' for Active; 'I' for Inactive)
REMARK    1  A    between atoms: C_2  and  C_3
REMARK    2  A    between atoms: C_3  and  C_4
REMARK    3  A    between atoms: C_4  and  C_5
REMARK    4  A    between atoms: C_7  and  C_8
REMARK    5  A    between atoms: N_17  and  C_18
REMARK    6  A    between atoms: C_22  and  C_23
REMARK    7  A    between atoms: N_25  and  C_26
REMARK                            x       y       z     vdW  Elec       q    Type
REMARK                         _______ _______ _______ _____ _____    ______ ____
ROOT
ATOM      1  O   UNL     1       0.600   4.903  20.587  0.00  0.00    +0.000 OA
ATOM      2  C   UNL     1       1.805   5.076  20.751  0.00  0.00    +0.000 C 
ATOM      3  N   UNL     1       2.496   6.266  20.584  0.00  0.00    +0.000 N 
ATOM      4  H   UNL     1       3.508   6.207  20.545  0.00  0.00    +0.000 HD
ENDROOT
BRANCH   3   5
ATOM      5  C   UNL     1       1.935   7.532  20.297  0.00  0.00    +0.000 A 
ATOM      6  C   UNL     1       1.902   8.077  19.012  0.00  0.00    +0.000 A 
ATOM      7  C   UNL     1       1.340   9.335  18.780  0.00  0.00    +0.000 A 
ATOM      8  C   UNL     1       0.796  10.067  19.832  0.00  0.00    +0.000 A 
ATOM      9  C   UNL     1       0.804   9.535  21.126  0.00  0.00    +0.000 A 
ATOM     10  C   UNL     1       1.363   8.262  21.350  0.00  0.00    +0.000 A 
BRANCH   9  11
ATOM     11  C   UNL     1       0.171  10.256  22.271  0.00  0.00    +0.000 C 
ATOM     12  O   UNL     1       0.358   9.854  23.416  0.00  0.00    +0.000 OA
ATOM     13  N   UNL     1      -0.602  11.361  21.957  0.00  0.00    +0.000 N 
ATOM     14  H   UNL     1      -0.591  11.729  21.017  0.00  0.00    +0.000 HD
BRANCH  13  15
ATOM     15  C   UNL     1      -1.315  12.107  22.952  0.00  0.00    +0.000 C 
ATOM     16  C   UNL     1      -2.820  12.149  22.954  0.00  0.00    +0.000 C 
ATOM     17  C   UNL     1      -2.036  13.375  22.588  0.00  0.00    +0.000 C 
ENDBRANCH  13  15
ENDBRANCH   9  11
ENDBRANCH   3   5
BRANCH   2  18
ATOM     18  C   UNL     1       2.682   3.909  21.174  0.00  0.00    +0.000 C 
BRANCH  18  19
ATOM     19  C   UNL     1       2.473   2.711  20.250  0.00  0.00    +0.000 C 
BRANCH  19  20
ATOM     20  C   UNL     1       2.917   3.022  18.874  0.00  0.00    +0.000 A 
ATOM     21  N   UNL     1       4.115   3.341  18.449  0.00  0.00    +0.000 NA
ATOM     22  C   UNL     1       3.904   3.578  17.107  0.00  0.00    +0.000 A 
ATOM     23  N   UNL     1       2.634   3.380  16.714  0.00  0.00    +0.000 NA
ATOM     24  O   UNL     1       1.976   3.011  17.888  0.00  0.00    +0.000 OA
BRANCH  22  25
ATOM     25  C   UNL     1       4.984   4.024  16.235  0.00  0.00    +0.000 A 
ATOM     26  C   UNL     1       6.067   4.738  16.777  0.00  0.00    +0.000 A 
ATOM     27  C   UNL     1       7.104   5.190  15.958  0.00  0.00    +0.000 A 
ATOM     28  C   UNL     1       7.058   4.924  14.595  0.00  0.00    +0.000 A 
ATOM     29  F   UNL     1       8.051   5.357  13.807  0.00  0.00    +0.000 F 
ATOM     30  C   UNL     1       5.998   4.219  14.037  0.00  0.00    +0.000 A 
ATOM     31  C   UNL     1       4.960   3.768  14.856  0.00  0.00    +0.000 A 
ENDBRANCH  22  25
ENDBRANCH  19  20
ENDBRANCH  18  19
ENDBRANCH   2  18
TORSDOF 7
ENDMDL
MODEL 6
REMARK VINA RESULT:      -8.4      0.965      1.073
REMARK  Name = 
REMARK  7 active torsions:
REMARK  status: ('A' for Active; 'I' for Inactive)
REMARK    1  A    between atoms: C_2  and  C_3
REMARK    2  A    between atoms: C_3  and  C_4
REMARK    3  A    between atoms: C_4  and  C_5
REMARK    4  A    between atoms: C_7  and  C_8
REMARK    5  A    between atoms: N_17  and  C_18
REMARK    6  A    between atoms: C_22  and  C_23
REMARK    7  A    between atoms: N_25  and  C_26
REMARK                            x       y       z     vdW  Elec       q    Type
REMARK                         _______ _______ _______ _____ _____    ______ ____
ROOT
ATOM      1  O   UNL     1       8.294   7.125  18.766  0.00  0.00    +0.000 OA
ATOM      2  C   UNL     1       7.865   7.955  17.969  0.00  0.00    +0.000 C 
ATOM      3  N   UNL     1       6.925   7.732  16.975  0.00  0.00    +0.000 N 
ATOM      4  H   UNL     1       6.832   8.449  16.263  0.00  0.00    +0.000 HD
ENDROOT
BRANCH   3   5
ATOM      5  C   UNL     1       6.200   6.539  16.754  0.00  0.00    +0.000 A 
ATOM      6  C   UNL     1       6.682   5.488  15.971  0.00  0.00    +0.000 A 
ATOM      7  C   UNL     1       5.924   4.329  15.779  0.00  0.00    +0.000 A 
ATOM      8  C   UNL     1       4.672   4.201  16.375  0.00  0.00    +0.000 A 
ATOM      9  C   UNL     1       4.175   5.235  17.176  0.00  0.00    +0.000 A 
ATOM     10  C   UNL     1       4.949   6.394  17.373  0.00  0.00    +0.000 A 
BRANCH   9  11
ATOM     11  C   UNL     1       2.868   5.111  17.887  0.00  0.00    +0.000 C 
ATOM     12  O   UNL     1       2.118   6.081  17.948  0.00  0.00    +0.000 OA
ATOM     13  N   UNL     1       2.578   3.876  18.443  0.00  0.00    +0.000 N 
ATOM     14  H   UNL     1       3.162   3.081  18.228  0.00  0.00    +0.000 HD
BRANCH  13  15
ATOM     15  C   UNL     1       1.387   3.637  19.205  0.00  0.00    +0.000 C 
ATOM     16  C   UNL     1       1.230   4.205  20.590  0.00  0.00    +0.000 C 
ATOM     17  C   UNL     1       1.415   2.728  20.402  0.00  0.00    +0.000 C 
ENDBRANCH  13  15
ENDBRANCH   9  11
ENDBRANCH   3   5
BRANCH   2  18
ATOM     18  C   UNL     1       8.380   9.384  18.021  0.00  0.00    +0.000 C 
BRANCH  18  19
ATOM     19  C   UNL     1       9.097   9.654  19.343  0.00  0.00    +0.000 C 
BRANCH  19  20
ATOM     20  C   UNL     1       9.394  11.095  19.496  0.00  0.00    +0.000 A 
ATOM     21  N   UNL     1       9.702  11.974  18.574  0.00  0.00    +0.000 NA
ATOM     22  C   UNL     1       9.930  13.116  19.312  0.00  0.00    +0.000 A 
ATOM     23  N   UNL     1       9.737  12.956  20.633  0.00  0.00    +0.000 NA
ATOM     24  O   UNL     1       9.382  11.613  20.757  0.00  0.00    +0.000 OA
BRANCH  22  25
ATOM     25  C   UNL     1      10.362  14.356  18.679  0.00  0.00    +0.000 A 
ATOM     26  C   UNL     1      10.340  15.556  19.411  0.00  0.00    +0.000 A 
ATOM     27  C   UNL     1      10.734  16.758  18.819  0.00  0.00    +0.000 A 
ATOM     28  C   UNL     1      11.153  16.759  17.494  0.00  0.00    +0.000 A 
ATOM     29  F   UNL     1      11.531  17.911  16.925  0.00  0.00    +0.000 F 
ATOM     30  C   UNL     1      11.184  15.584  16.752  0.00  0.00    +0.000 A 
ATOM     31  C   UNL     1      10.790  14.381  17.343  0.00  0.00    +0.000 A 
ENDBRANCH  22  25
ENDBRANCH  19  20
ENDBRANCH  18  19
ENDBRANCH   2  18
TORSDOF 7
ENDMDL
MODEL 7
REMARK VINA RESULT:      -8.4      1.529      1.638
REMARK  Name = 
REMARK  7 active torsions:
REMARK  status: ('A' for Active; 'I' for Inactive)
REMARK    1  A    between atoms: C_2  and  C_3
REMARK    2  A    between atoms: C_3  and  C_4
REMARK    3  A    between atoms: C_4  and  C_5
REMARK    4  A    between atoms: C_7  and  C_8
REMARK    5  A    between atoms: N_17  and  C_18
REMARK    6  A    between atoms: C_22  and  C_23
REMARK    7  A    between atoms: N_25  and  C_26
REMARK                            x       y       z     vdW  Elec       q    Type
REMARK                         _______ _______ _______ _____ _____    ______ ____
ROOT
ATOM      1  O   UNL     1       8.250   7.097  18.714  0.00  0.00    +0.000 OA
ATOM      2  C   UNL     1       7.784   7.814  17.832  0.00  0.00    +0.000 C 
ATOM      3  N   UNL     1       6.993   7.404  16.770  0.00  0.00    +0.000 N 
ATOM      4  H   UNL     1       6.865   8.064  16.012  0.00  0.00    +0.000 HD
ENDROOT
BRANCH   3   5
ATOM      5  C   UNL     1       6.482   6.103  16.555  0.00  0.00    +0.000 A 
ATOM      6  C   UNL     1       6.715   5.376  15.385  0.00  0.00    +0.000 A 
ATOM      7  C   UNL     1       6.184   4.095  15.218  0.00  0.00    +0.000 A 
ATOM      8  C   UNL     1       5.414   3.516  16.224  0.00  0.00    +0.000 A 
ATOM      9  C   UNL     1       5.179   4.219  17.410  0.00  0.00    +0.000 A 
ATOM     10  C   UNL     1       5.726   5.505  17.575  0.00  0.00    +0.000 A 
BRANCH   9  11
ATOM     11  C   UNL     1       4.416   3.610  18.540  0.00  0.00    +0.000 C 
ATOM     12  O   UNL     1       5.001   3.325  19.581  0.00  0.00    +0.000 OA
ATOM     13  N   UNL     1       3.061   3.404  18.336  0.00  0.00    +0.000 N 
ATOM     14  H   UNL     1       2.613   3.799  17.522  0.00  0.00    +0.000 HD
BRANCH  13  15
ATOM     15  C   UNL     1       2.224   2.772  19.313  0.00  0.00    +0.000 C 
ATOM     16  C   UNL     1       0.765   2.528  19.038  0.00  0.00    +0.000 C 
ATOM     17  C   UNL     1       1.175   3.560  20.047  0.00  0.00    +0.000 C 
ENDBRANCH  13  15
ENDBRANCH   9  11
ENDBRANCH   3   5
BRANCH   2  18
ATOM     18  C   UNL     1       8.070   9.306  17.846  0.00  0.00    +0.000 C 
BRANCH  18  19
ATOM     19  C   UNL     1       9.008   9.668  18.997  0.00  0.00    +0.000 C 
BRANCH  19  20
ATOM     20  C   UNL     1       9.650  10.979  18.761  0.00  0.00    +0.000 A 
ATOM     21  N   UNL     1       9.583  12.070  19.484  0.00  0.00    +0.000 NA
ATOM     22  C   UNL     1      10.321  12.968  18.741  0.00  0.00    +0.000 A 
ATOM     23  N   UNL     1      10.849  12.443  17.623  0.00  0.00    +0.000 NA
ATOM     24  O   UNL     1      10.404  11.121  17.633  0.00  0.00    +0.000 OA
BRANCH  22  25
ATOM     25  C   UNL     1      10.468  14.358  19.157  0.00  0.00    +0.000 A 
ATOM     26  C   UNL     1       9.507  15.307  18.767  0.00  0.00    +0.000 A 
ATOM     27  C   UNL     1       9.638  16.646  19.140  0.00  0.00    +0.000 A 
ATOM     28  C   UNL     1      10.729  17.036  19.906  0.00  0.00    +0.000 A 
ATOM     29  F   UNL     1      10.856  18.320  20.264  0.00  0.00    +0.000 F 
ATOM     30  C   UNL     1      11.691  16.114  20.305  0.00  0.00    +0.000 A 
ATOM     31  C   UNL     1      11.561  14.775  19.931  0.00  0.00    +0.000 A 
ENDBRANCH  22  25
ENDBRANCH  19  20
ENDBRANCH  18  19
ENDBRANCH   2  18
TORSDOF 7
ENDMDL
MODEL 8
REMARK VINA RESULT:      -8.4      7.175      9.157
REMARK  Name = 
REMARK  7 active torsions:
REMARK  status: ('A' for Active; 'I' for Inactive)
REMARK    1  A    between atoms: C_2  and  C_3
REMARK    2  A    between atoms: C_3  and  C_4
REMARK    3  A    between atoms: C_4  and  C_5
REMARK    4  A    between atoms: C_7  and  C_8
REMARK    5  A    between atoms: N_17  and  C_18
REMARK    6  A    between atoms: C_22  and  C_23
REMARK    7  A    between atoms: N_25  and  C_26
REMARK                            x       y       z     vdW  Elec       q    Type
REMARK                         _______ _______ _______ _____ _____    ______ ____
ROOT
ATOM      1  O   UNL     1       2.617   4.756  18.006  0.00  0.00    +0.000 OA
ATOM      2  C   UNL     1       2.864   5.959  17.989  0.00  0.00    +0.000 C 
ATOM      3  N   UNL     1       4.097   6.543  17.744  0.00  0.00    +0.000 N 
ATOM      4  H   UNL     1       4.193   7.526  17.974  0.00  0.00    +0.000 HD
ENDROOT
BRANCH   3   5
ATOM      5  C   UNL     1       5.283   5.875  17.362  0.00  0.00    +0.000 A 
ATOM      6  C   UNL     1       6.234   5.425  18.281  0.00  0.00    +0.000 A 
ATOM      7  C   UNL     1       7.393   4.774  17.853  0.00  0.00    +0.000 A 
ATOM      8  C   UNL     1       7.619   4.556  16.496  0.00  0.00    +0.000 A 
ATOM      9  C   UNL     1       6.673   4.986  15.558  0.00  0.00    +0.000 A 
ATOM     10  C   UNL     1       5.503   5.632  15.997  0.00  0.00    +0.000 A 
BRANCH   9  11
ATOM     11  C   UNL     1       6.843   4.714  14.099  0.00  0.00    +0.000 C 
ATOM     12  O   UNL     1       7.640   5.383  13.448  0.00  0.00    +0.000 OA
ATOM     13  N   UNL     1       6.072   3.696  13.563  0.00  0.00    +0.000 N 
ATOM     14  H   UNL     1       5.553   3.085  14.178  0.00  0.00    +0.000 HD
BRANCH  13  15
ATOM     15  C   UNL     1       6.091   3.371  12.167  0.00  0.00    +0.000 C 
ATOM     16  C   UNL     1       4.815   3.072  11.426  0.00  0.00    +0.000 C 
ATOM     17  C   UNL     1       5.798   1.972  11.702  0.00  0.00    +0.000 C 
ENDBRANCH  13  15
ENDBRANCH   9  11
ENDBRANCH   3   5
BRANCH   2  18
ATOM     18  C   UNL     1       1.752   6.959  18.260  0.00  0.00    +0.000 C 
BRANCH  18  19
ATOM     19  C   UNL     1       2.327   8.349  18.532  0.00  0.00    +0.000 C 
BRANCH  19  20
ATOM     20  C   UNL     1       1.254   9.305  18.879  0.00  0.00    +0.000 A 
ATOM     21  N   UNL     1       0.898   9.751  20.059  0.00  0.00    +0.000 NA
ATOM     22  C   UNL     1      -0.185  10.550  19.764  0.00  0.00    +0.000 A 
ATOM     23  N   UNL     1      -0.467  10.622  18.452  0.00  0.00    +0.000 NA
ATOM     24  O   UNL     1       0.488   9.793  17.861  0.00  0.00    +0.000 OA
BRANCH  22  25
ATOM     25  C   UNL     1      -0.944  11.220  20.814  0.00  0.00    +0.000 A 
ATOM     26  C   UNL     1      -0.732  10.868  22.158  0.00  0.00    +0.000 A 
ATOM     27  C   UNL     1      -1.459  11.485  23.178  0.00  0.00    +0.000 A 
ATOM     28  C   UNL     1      -2.398  12.456  22.853  0.00  0.00    +0.000 A 
ATOM     29  F   UNL     1      -3.097  13.048  23.830  0.00  0.00    +0.000 F 
ATOM     30  C   UNL     1      -2.624  12.821  21.531  0.00  0.00    +0.000 A 
ATOM     31  C   UNL     1      -1.897  12.204  20.510  0.00  0.00    +0.000 A 
ENDBRANCH  22  25
ENDBRANCH  19  20
ENDBRANCH  18  19
ENDBRANCH   2  18
TORSDOF 7
ENDMDL
MODEL 9
REMARK VINA RESULT:      -8.3      7.073      9.357
REMARK  Name = 
REMARK  7 active torsions:
REMARK  status: ('A' for Active; 'I' for Inactive)
REMARK    1  A    between atoms: C_2  and  C_3
REMARK    2  A    between atoms: C_3  and  C_4
REMARK    3  A    between atoms: C_4  and  C_5
REMARK    4  A    between atoms: C_7  and  C_8
REMARK    5  A    between atoms: N_17  and  C_18
REMARK    6  A    between atoms: C_22  and  C_23
REMARK    7  A    between atoms: N_25  and  C_26
REMARK                            x       y       z     vdW  Elec       q    Type
REMARK                         _______ _______ _______ _____ _____    ______ ____
ROOT
ATOM      1  O   UNL     1       0.997   4.218  19.428  0.00  0.00    +0.000 OA
ATOM      2  C   UNL     1       1.914   4.456  20.209  0.00  0.00    +0.000 C 
ATOM      3  N   UNL     1       2.649   5.629  20.285  0.00  0.00    +0.000 N 
ATOM      4  H   UNL     1       3.506   5.599  20.826  0.00  0.00    +0.000 HD
ENDROOT
BRANCH   3   5
ATOM      5  C   UNL     1       2.417   6.816  19.552  0.00  0.00    +0.000 A 
ATOM      6  C   UNL     1       2.910   7.024  18.262  0.00  0.00    +0.000 A 
ATOM      7  C   UNL     1       2.658   8.217  17.581  0.00  0.00    +0.000 A 
ATOM      8  C   UNL     1       1.899   9.221  18.178  0.00  0.00    +0.000 A 
ATOM      9  C   UNL     1       1.382   9.029  19.464  0.00  0.00    +0.000 A 
ATOM     10  C   UNL     1       1.632   7.820  20.139  0.00  0.00    +0.000 A 
BRANCH   9  11
ATOM     11  C   UNL     1       0.508  10.051  20.113  0.00  0.00    +0.000 C 
ATOM     12  O   UNL     1      -0.189   9.729  21.072  0.00  0.00    +0.000 OA
ATOM     13  N   UNL     1       0.544  11.329  19.581  0.00  0.00    +0.000 N 
ATOM     14  H   UNL     1       1.248  11.565  18.896  0.00  0.00    +0.000 HD
BRANCH  13  15
ATOM     15  C   UNL     1      -0.288  12.389  20.068  0.00  0.00    +0.000 C 
ATOM     16  C   UNL     1      -1.672  12.601  19.514  0.00  0.00    +0.000 C 
ATOM     17  C   UNL     1      -0.583  13.587  19.210  0.00  0.00    +0.000 C 
ENDBRANCH  13  15
ENDBRANCH   9  11
ENDBRANCH   3   5
BRANCH   2  18
ATOM     18  C   UNL     1       2.338   3.398  21.216  0.00  0.00    +0.000 C 
BRANCH  18  19
ATOM     19  C   UNL     1       3.398   2.474  20.617  0.00  0.00    +0.000 C 
BRANCH  19  20
ATOM     20  C   UNL     1       4.308   3.224  19.725  0.00  0.00    +0.000 A 
ATOM     21  N   UNL     1       4.347   3.239  18.415  0.00  0.00    +0.000 NA
ATOM     22  C   UNL     1       5.429   4.055  18.157  0.00  0.00    +0.000 A 
ATOM     23  N   UNL     1       6.011   4.550  19.262  0.00  0.00    +0.000 NA
ATOM     24  O   UNL     1       5.268   3.998  20.306  0.00  0.00    +0.000 OA
BRANCH  22  25
ATOM     25  C   UNL     1       5.879   4.310  16.794  0.00  0.00    +0.000 A 
ATOM     26  C   UNL     1       4.983   4.152  15.722  0.00  0.00    +0.000 A 
ATOM     27  C   UNL     1       5.398   4.375  14.408  0.00  0.00    +0.000 A 
ATOM     28  C   UNL     1       6.711   4.759  14.165  0.00  0.00    +0.000 A 
ATOM     29  F   UNL     1       7.111   4.973  12.905  0.00  0.00    +0.000 F 
ATOM     30  C   UNL     1       7.615   4.923  15.209  0.00  0.00    +0.000 A 
ATOM     31  C   UNL     1       7.200   4.700  16.524  0.00  0.00    +0.000 A 
ENDBRANCH  22  25
ENDBRANCH  19  20
ENDBRANCH  18  19
ENDBRANCH   2  18
TORSDOF 7
ENDMDL
