MODEL 1
REMARK VINA RESULT:      -8.6      0.000      0.000
REMARK  Name = 
REMARK  4 active torsions:
REMARK  status: ('A' for Active; 'I' for Inactive)
REMARK    1  A    between atoms: C_2  and  C_10
REMARK    2  A    between atoms: N_3  and  C_4
REMARK    3  A    between atoms: C_15  and  C_16
REMARK    4  A    between atoms: C_19  and  C_20
REMARK                            x       y       z     vdW  Elec       q    Type
REMARK                         _______ _______ _______ _____ _____    ______ ____
ROOT
ATOM      1  C   UNL     1      -0.348  10.441  20.689  0.00  0.00    +0.000 A 
ATOM      2  C   UNL     1      -0.829  10.938  21.914  0.00  0.00    +0.000 A 
ATOM      3  C   UNL     1      -0.444  10.356  23.120  0.00  0.00    +0.000 A 
ATOM      4  C   UNL     1       0.403   9.252  23.113  0.00  0.00    +0.000 A 
ATOM      5  C   UNL     1       0.921   8.775  21.904  0.00  0.00    +0.000 A 
ATOM      6  C   UNL     1       0.593   9.391  20.680  0.00  0.00    +0.000 A 
ENDROOT
BRANCH   6   7
ATOM      7  C   UNL     1       1.327   9.035  19.470  0.00  0.00    +0.000 A 
ATOM      8  N   UNL     1       1.486   9.757  18.382  0.00  0.00    +0.000 NA
ATOM      9  C   UNL     1       2.282   8.991  17.579  0.00  0.00    +0.000 A 
ATOM     10  C   UNL     1       2.582   7.802  18.204  0.00  0.00    +0.000 A 
ATOM     11  O   UNL     1       1.954   7.815  19.428  0.00  0.00    +0.000 OA
BRANCH  10  12
ATOM     12  C   UNL     1       3.395   6.646  17.860  0.00  0.00    +0.000 A 
ATOM     13  C   UNL     1       4.733   6.778  17.467  0.00  0.00    +0.000 A 
ATOM     14  C   UNL     1       5.486   5.655  17.104  0.00  0.00    +0.000 A 
ATOM     15  C   UNL     1       4.911   4.385  17.132  0.00  0.00    +0.000 A 
ATOM     16  C   UNL     1       3.588   4.233  17.534  0.00  0.00    +0.000 A 
ATOM     17  C   UNL     1       2.845   5.355  17.894  0.00  0.00    +0.000 A 
ATOM     18  F   UNL     1       1.572   5.162  18.271  0.00  0.00    +0.000 F 
ENDBRANCH  10  12
ENDBRANCH   6   7
BRANCH   1  20
ATOM     19  O   UNL     1      -0.721  12.267  19.241  0.00  0.00    +0.000 OA
ATOM     20  C   UNL     1      -0.931  11.078  19.468  0.00  0.00    +0.000 C 
ATOM     21  N   UNL     1      -1.789  10.304  18.709  0.00  0.00    +0.000 N 
ATOM     22  H   UNL     1      -1.769   9.301  18.830  0.00  0.00    +0.000 HD
BRANCH  21  23
ATOM     23  C   UNL     1      -2.394  10.802  17.484  0.00  0.00    +0.000 C 
ATOM     24  C   UNL     1      -3.889  11.046  17.689  0.00  0.00    +0.000 C 
ATOM     25  C   UNL     1      -4.512  11.532  16.391  0.00  0.00    +0.000 C 
ATOM     26  O   UNL     1      -4.290  10.591  15.342  0.00  0.00    +0.000 OA
ATOM     27  C   UNL     1      -2.899  10.393  15.076  0.00  0.00    +0.000 C 
ATOM     28  C   UNL     1      -2.186   9.847  16.306  0.00  0.00    +0.000 C 
ENDBRANCH  21  23
ENDBRANCH   1  20
TORSDOF 4
ENDMDL
MODEL 2
REMARK VINA RESULT:      -8.5      0.892      1.294
REMARK  Name = 
REMARK  4 active torsions:
REMARK  status: ('A' for Active; 'I' for Inactive)
REMARK    1  A    between atoms: C_2  and  C_10
REMARK    2  A    between atoms: N_3  and  C_4
REMARK    3  A    between atoms: C_15  and  C_16
REMARK    4  A    between atoms: C_19  and  C_20
REMARK                            x       y       z     vdW  Elec       q    Type
REMARK                         _______ _______ _______ _____ _____    ______ ____
ROOT
ATOM      1  C   UNL     1      -0.285  10.463  20.632  0.00  0.00    +0.000 A 
ATOM      2  C   UNL     1      -0.775  11.042  21.818  0.00  0.00    +0.000 A 
ATOM      3  C   UNL     1      -0.442  10.509  23.062  0.00  0.00    +0.000 A 
ATOM      4  C   UNL     1       0.361   9.376  23.133  0.00  0.00    +0.000 A 
ATOM      5  C   UNL     1       0.888   8.816  21.963  0.00  0.00    +0.000 A 
ATOM      6  C   UNL     1       0.613   9.379  20.701  0.00  0.00    +0.000 A 
ENDROOT
BRANCH   6   7
ATOM      7  C   UNL     1       1.360   8.931  19.531  0.00  0.00    +0.000 A 
ATOM      8  N   UNL     1       1.778   9.656  18.516  0.00  0.00    +0.000 NA
ATOM      9  C   UNL     1       2.457   8.775  17.724  0.00  0.00    +0.000 A 
ATOM     10  C   UNL     1       2.424   7.516  18.280  0.00  0.00    +0.000 A 
ATOM     11  O   UNL     1       1.702   7.605  19.447  0.00  0.00    +0.000 OA
BRANCH  10  12
ATOM     12  C   UNL     1       2.989   6.225  17.917  0.00  0.00    +0.000 A 
ATOM     13  C   UNL     1       2.227   5.051  17.956  0.00  0.00    +0.000 A 
ATOM     14  C   UNL     1       2.802   3.815  17.637  0.00  0.00    +0.000 A 
ATOM     15  C   UNL     1       4.146   3.738  17.274  0.00  0.00    +0.000 A 
ATOM     16  C   UNL     1       4.914   4.896  17.215  0.00  0.00    +0.000 A 
ATOM     17  C   UNL     1       4.336   6.123  17.533  0.00  0.00    +0.000 A 
ATOM     18  F   UNL     1       5.114   7.213  17.467  0.00  0.00    +0.000 F 
ENDBRANCH  10  12
ENDBRANCH   6   7
BRANCH   1  20
ATOM     19  O   UNL     1      -0.367  12.126  18.960  0.00  0.00    +0.000 OA
ATOM     20  C   UNL     1      -0.814  11.056  19.366  0.00  0.00    +0.000 C 
ATOM     21  N   UNL     1      -1.882  10.411  18.772  0.00  0.00    +0.000 N 
ATOM     22  H   UNL     1      -2.073   9.454  19.033  0.00  0.00    +0.000 HD
BRANCH  21  23
ATOM     23  C   UNL     1      -2.463  10.875  17.521  0.00  0.00    +0.000 C 
ATOM     24  C   UNL     1      -3.972  11.060  17.672  0.00  0.00    +0.000 C 
ATOM     25  C   UNL     1      -4.569  11.510  16.348  0.00  0.00    +0.000 C 
ATOM     26  O   UNL     1      -4.271  10.571  15.317  0.00  0.00    +0.000 OA
ATOM     27  C   UNL     1      -2.866  10.428  15.101  0.00  0.00    +0.000 C 
ATOM     28  C   UNL     1      -2.175   9.921  16.360  0.00  0.00    +0.000 C 
ENDBRANCH  21  23
ENDBRANCH   1  20
TORSDOF 4
ENDMDL
MODEL 3
REMARK VINA RESULT:      -8.2      3.532      7.954
REMARK  Name = 
REMARK  4 active torsions:
REMARK  status: ('A' for Active; 'I' for Inactive)
REMARK    1  A    between atoms: C_2  and  C_10
REMARK    2  A    between atoms: N_3  and  C_4
REMARK    3  A    between atoms: C_15  and  C_16
REMARK    4  A    between atoms: C_19  and  C_20
REMARK                            x       y       z     vdW  Elec       q    Type
REMARK                         _______ _______ _______ _____ _____    ______ ____
ROOT
ATOM      1  C   UNL     1       2.398   3.583  19.256  0.00  0.00    +0.000 A 
ATOM      2  C   UNL     1       2.209   2.212  19.506  0.00  0.00    +0.000 A 
ATOM      3  C   UNL     1       1.945   1.751  20.795  0.00  0.00    +0.000 A 
ATOM      4  C   UNL     1       1.895   2.654  21.852  0.00  0.00    +0.000 A 
ATOM      5  C   UNL     1       2.040   4.025  21.609  0.00  0.00    +0.000 A 
ATOM      6  C   UNL     1       2.245   4.514  20.304  0.00  0.00    +0.000 A 
ENDROOT
BRANCH   6   7
ATOM      7  C   UNL     1       2.151   5.946  20.045  0.00  0.00    +0.000 A 
ATOM      8  N   UNL     1       2.720   6.629  19.074  0.00  0.00    +0.000 NA
ATOM      9  C   UNL     1       2.281   7.909  19.255  0.00  0.00    +0.000 A 
ATOM     10  C   UNL     1       1.454   7.975  20.354  0.00  0.00    +0.000 A 
ATOM     11  O   UNL     1       1.375   6.708  20.881  0.00  0.00    +0.000 OA
BRANCH  10  12
ATOM     12  C   UNL     1       0.685   9.035  20.989  0.00  0.00    +0.000 A 
ATOM     13  C   UNL     1       0.521   9.094  22.378  0.00  0.00    +0.000 A 
ATOM     14  C   UNL     1      -0.254  10.102  22.964  0.00  0.00    +0.000 A 
ATOM     15  C   UNL     1      -0.873  11.065  22.168  0.00  0.00    +0.000 A 
ATOM     16  C   UNL     1      -0.709  11.030  20.788  0.00  0.00    +0.000 A 
ATOM     17  C   UNL     1       0.064  10.025  20.210  0.00  0.00    +0.000 A 
ATOM     18  F   UNL     1       0.191  10.028  18.875  0.00  0.00    +0.000 F 
ENDBRANCH  10  12
ENDBRANCH   6   7
BRANCH   1  20
ATOM     19  O   UNL     1       1.961   3.866  16.955  0.00  0.00    +0.000 OA
ATOM     20  C   UNL     1       2.793   3.930  17.856  0.00  0.00    +0.000 C 
ATOM     21  N   UNL     1       4.131   4.195  17.632  0.00  0.00    +0.000 N 
ATOM     22  H   UNL     1       4.717   4.422  18.422  0.00  0.00    +0.000 HD
BRANCH  21  23
ATOM     23  C   UNL     1       4.630   4.573  16.319  0.00  0.00    +0.000 C 
ATOM     24  C   UNL     1       5.811   3.687  15.923  0.00  0.00    +0.000 C 
ATOM     25  C   UNL     1       6.344   4.118  14.566  0.00  0.00    +0.000 C 
ATOM     26  O   UNL     1       6.724   5.492  14.588  0.00  0.00    +0.000 OA
ATOM     27  C   UNL     1       5.624   6.356  14.885  0.00  0.00    +0.000 C 
ATOM     28  C   UNL     1       5.049   6.044  16.260  0.00  0.00    +0.000 C 
ENDBRANCH  21  23
ENDBRANCH   1  20
TORSDOF 4
ENDMDL
MODEL 4
REMARK VINA RESULT:      -8.0      3.444      6.247
REMARK  Name = 
REMARK  4 active torsions:
REMARK  status: ('A' for Active; 'I' for Inactive)
REMARK    1  A    between atoms: C_2  and  C_10
REMARK    2  A    between atoms: N_3  and  C_4
REMARK    3  A    between atoms: C_15  and  C_16
REMARK    4  A    between atoms: C_19  and  C_20
REMARK                            x       y       z     vdW  Elec       q    Type
REMARK                         _______ _______ _______ _____ _____    ______ ____
ROOT
ATOM      1  C   UNL     1       2.366   4.674  19.022  0.00  0.00    +0.000 A 
ATOM      2  C   UNL     1       1.314   4.291  19.875  0.00  0.00    +0.000 A 
ATOM      3  C   UNL     1       0.977   2.948  20.033  0.00  0.00    +0.000 A 
ATOM      4  C   UNL     1       1.670   1.976  19.319  0.00  0.00    +0.000 A 
ATOM      5  C   UNL     1       2.744   2.341  18.500  0.00  0.00    +0.000 A 
ATOM      6  C   UNL     1       3.139   3.687  18.377  0.00  0.00    +0.000 A 
ENDROOT
BRANCH   6   7
ATOM      7  C   UNL     1       4.399   4.015  17.718  0.00  0.00    +0.000 A 
ATOM      8  N   UNL     1       5.540   4.350  18.282  0.00  0.00    +0.000 NA
ATOM      9  C   UNL     1       6.403   4.507  17.236  0.00  0.00    +0.000 A 
ATOM     10  C   UNL     1       5.753   4.271  16.046  0.00  0.00    +0.000 A 
ATOM     11  O   UNL     1       4.448   3.964  16.348  0.00  0.00    +0.000 OA
BRANCH  10  12
ATOM     12  C   UNL     1       6.159   4.252  14.648  0.00  0.00    +0.000 A 
ATOM     13  C   UNL     1       5.518   3.438  13.706  0.00  0.00    +0.000 A 
ATOM     14  C   UNL     1       5.949   3.408  12.375  0.00  0.00    +0.000 A 
ATOM     15  C   UNL     1       7.027   4.194  11.969  0.00  0.00    +0.000 A 
ATOM     16  C   UNL     1       7.667   5.019  12.887  0.00  0.00    +0.000 A 
ATOM     17  C   UNL     1       7.232   5.045  14.210  0.00  0.00    +0.000 A 
ATOM     18  F   UNL     1       7.881   5.852  15.063  0.00  0.00    +0.000 F 
ENDBRANCH  10  12
ENDBRANCH   6   7
BRANCH   1  20
ATOM     19  O   UNL     1       3.380   6.572  18.055  0.00  0.00    +0.000 OA
ATOM     20  C   UNL     1       2.545   6.148  18.850  0.00  0.00    +0.000 C 
ATOM     21  N   UNL     1       1.827   6.969  19.701  0.00  0.00    +0.000 N 
ATOM     22  H   UNL     1       1.030   6.581  20.186  0.00  0.00    +0.000 HD
BRANCH  21  23
ATOM     23  C   UNL     1       1.895   8.419  19.610  0.00  0.00    +0.000 C 
ATOM     24  C   UNL     1       0.914   9.060  20.590  0.00  0.00    +0.000 C 
ATOM     25  C   UNL     1       0.971  10.573  20.457  0.00  0.00    +0.000 C 
ATOM     26  O   UNL     1       0.686  10.972  19.118  0.00  0.00    +0.000 OA
ATOM     27  C   UNL     1       1.629  10.446  18.182  0.00  0.00    +0.000 C 
ATOM     28  C   UNL     1       1.611   8.923  18.193  0.00  0.00    +0.000 C 
ENDBRANCH  21  23
ENDBRANCH   1  20
TORSDOF 4
ENDMDL
MODEL 5
REMARK VINA RESULT:      -7.9      3.282      7.997
REMARK  Name = 
REMARK  4 active torsions:
REMARK  status: ('A' for Active; 'I' for Inactive)
REMARK    1  A    between atoms: C_2  and  C_10
REMARK    2  A    between atoms: N_3  and  C_4
REMARK    3  A    between atoms: C_15  and  C_16
REMARK    4  A    between atoms: C_19  and  C_20
REMARK                            x       y       z     vdW  Elec       q    Type
REMARK                         _______ _______ _______ _____ _____    ______ ____
ROOT
ATOM      1  C   UNL     1       3.604   3.867  19.852  0.00  0.00    +0.000 A 
ATOM      2  C   UNL     1       3.517   2.526  20.268  0.00  0.00    +0.000 A 
ATOM      3  C   UNL     1       2.503   2.111  21.129  0.00  0.00    +0.000 A 
ATOM      4  C   UNL     1       1.582   3.038  21.606  0.00  0.00    +0.000 A 
ATOM      5  C   UNL     1       1.634   4.365  21.167  0.00  0.00    +0.000 A 
ATOM      6  C   UNL     1       2.614   4.789  20.247  0.00  0.00    +0.000 A 
ENDROOT
BRANCH   6   7
ATOM      7  C   UNL     1       2.501   6.103  19.624  0.00  0.00    +0.000 A 
ATOM      8  N   UNL     1       3.033   6.504  18.489  0.00  0.00    +0.000 NA
ATOM      9  C   UNL     1       2.591   7.788  18.341  0.00  0.00    +0.000 A 
ATOM     10  C   UNL     1       1.798   8.142  19.409  0.00  0.00    +0.000 A 
ATOM     11  O   UNL     1       1.745   7.058  20.254  0.00  0.00    +0.000 OA
BRANCH  10  12
ATOM     12  C   UNL     1       1.042   9.332  19.768  0.00  0.00    +0.000 A 
ATOM     13  C   UNL     1       1.020   9.824  21.079  0.00  0.00    +0.000 A 
ATOM     14  C   UNL     1       0.256  10.949  21.408  0.00  0.00    +0.000 A 
ATOM     15  C   UNL     1      -0.495  11.599  20.429  0.00  0.00    +0.000 A 
ATOM     16  C   UNL     1      -0.474  11.133  19.119  0.00  0.00    +0.000 A 
ATOM     17  C   UNL     1       0.289  10.013  18.798  0.00  0.00    +0.000 A 
ATOM     18  F   UNL     1       0.276   9.596  17.523  0.00  0.00    +0.000 F 
ENDBRANCH  10  12
ENDBRANCH   6   7
BRANCH   1  20
ATOM     19  O   UNL     1       5.810   4.657  19.571  0.00  0.00    +0.000 OA
ATOM     20  C   UNL     1       4.805   4.204  19.028  0.00  0.00    +0.000 C 
ATOM     21  N   UNL     1       4.672   4.096  17.656  0.00  0.00    +0.000 N 
ATOM     22  H   UNL     1       3.911   3.545  17.287  0.00  0.00    +0.000 HD
BRANCH  21  23
ATOM     23  C   UNL     1       5.779   4.367  16.752  0.00  0.00    +0.000 C 
ATOM     24  C   UNL     1       6.077   5.866  16.710  0.00  0.00    +0.000 C 
ATOM     25  C   UNL     1       7.211   6.137  15.735  0.00  0.00    +0.000 C 
ATOM     26  O   UNL     1       6.886   5.646  14.436  0.00  0.00    +0.000 OA
ATOM     27  C   UNL     1       6.671   4.233  14.426  0.00  0.00    +0.000 C 
ATOM     28  C   UNL     1       5.507   3.858  15.335  0.00  0.00    +0.000 C 
ENDBRANCH  21  23
ENDBRANCH   1  20
TORSDOF 4
ENDMDL
MODEL 6
REMARK VINA RESULT:      -7.9      3.523      7.942
REMARK  Name = 
REMARK  4 active torsions:
REMARK  status: ('A' for Active; 'I' for Inactive)
REMARK    1  A    between atoms: C_2  and  C_10
REMARK    2  A    between atoms: N_3  and  C_4
REMARK    3  A    between atoms: C_15  and  C_16
REMARK    4  A    between atoms: C_19  and  C_20
REMARK                            x       y       z     vdW  Elec       q    Type
REMARK                         _______ _______ _______ _____ _____    ______ ____
ROOT
ATOM      1  C   UNL     1       3.575   3.936  19.701  0.00  0.00    +0.000 A 
ATOM      2  C   UNL     1       3.429   2.637  20.219  0.00  0.00    +0.000 A 
ATOM      3  C   UNL     1       2.398   2.334  21.107  0.00  0.00    +0.000 A 
ATOM      4  C   UNL     1       1.518   3.335  21.507  0.00  0.00    +0.000 A 
ATOM      5  C   UNL     1       1.628   4.621  20.966  0.00  0.00    +0.000 A 
ATOM      6  C   UNL     1       2.625   4.928  20.020  0.00  0.00    +0.000 A 
ENDROOT
BRANCH   6   7
ATOM      7  C   UNL     1       2.570   6.193  19.295  0.00  0.00    +0.000 A 
ATOM      8  N   UNL     1       3.072   6.465  18.110  0.00  0.00    +0.000 NA
ATOM      9  C   UNL     1       2.709   7.761  17.875  0.00  0.00    +0.000 A 
ATOM     10  C   UNL     1       1.995   8.253  18.945  0.00  0.00    +0.000 A 
ATOM     11  O   UNL     1       1.912   7.247  19.877  0.00  0.00    +0.000 OA
BRANCH  10  12
ATOM     12  C   UNL     1       1.338   9.519  19.236  0.00  0.00    +0.000 A 
ATOM     13  C   UNL     1       1.618  10.679  18.503  0.00  0.00    +0.000 A 
ATOM     14  C   UNL     1       1.002  11.894  18.825  0.00  0.00    +0.000 A 
ATOM     15  C   UNL     1       0.096  11.963  19.883  0.00  0.00    +0.000 A 
ATOM     16  C   UNL     1      -0.204  10.818  20.612  0.00  0.00    +0.000 A 
ATOM     17  C   UNL     1       0.412   9.612  20.286  0.00  0.00    +0.000 A 
ATOM     18  F   UNL     1       0.096   8.534  21.020  0.00  0.00    +0.000 F 
ENDBRANCH  10  12
ENDBRANCH   6   7
BRANCH   1  20
ATOM     19  O   UNL     1       5.844   4.502  19.384  0.00  0.00    +0.000 OA
ATOM     20  C   UNL     1       4.789   4.156  18.857  0.00  0.00    +0.000 C 
ATOM     21  N   UNL     1       4.623   4.068  17.487  0.00  0.00    +0.000 N 
ATOM     22  H   UNL     1       3.803   3.598  17.130  0.00  0.00    +0.000 HD
BRANCH  21  23
ATOM     23  C   UNL     1       5.736   4.232  16.565  0.00  0.00    +0.000 C 
ATOM     24  C   UNL     1       6.244   5.673  16.595  0.00  0.00    +0.000 C 
ATOM     25  C   UNL     1       7.383   5.837  15.601  0.00  0.00    +0.000 C 
ATOM     26  O   UNL     1       6.960   5.473  14.288  0.00  0.00    +0.000 OA
ATOM     27  C   UNL     1       6.544   4.108  14.209  0.00  0.00    +0.000 C 
ATOM     28  C   UNL     1       5.361   3.849  15.131  0.00  0.00    +0.000 C 
ENDBRANCH  21  23
ENDBRANCH   1  20
TORSDOF 4
ENDMDL
MODEL 7
REMARK VINA RESULT:      -7.9      0.558      1.089
REMARK  Name = 
REMARK  4 active torsions:
REMARK  status: ('A' for Active; 'I' for Inactive)
REMARK    1  A    between atoms: C_2  and  C_10
REMARK    2  A    between atoms: N_3  and  C_4
REMARK    3  A    between atoms: C_15  and  C_16
REMARK    4  A    between atoms: C_19  and  C_20
REMARK                            x       y       z     vdW  Elec       q    Type
REMARK                         _______ _______ _______ _____ _____    ______ ____
ROOT
ATOM      1  C   UNL     1      -0.434  10.127  20.511  0.00  0.00    +0.000 A 
ATOM      2  C   UNL     1      -0.954  10.741  21.665  0.00  0.00    +0.000 A 
ATOM      3  C   UNL     1      -0.462  10.417  22.928  0.00  0.00    +0.000 A 
ATOM      4  C   UNL     1       0.537   9.457  23.053  0.00  0.00    +0.000 A 
ATOM      5  C   UNL     1       1.091   8.871  21.910  0.00  0.00    +0.000 A 
ATOM      6  C   UNL     1       0.649   9.231  20.621  0.00  0.00    +0.000 A 
ENDROOT
BRANCH   6   7
ATOM      7  C   UNL     1       1.400   8.793  19.450  0.00  0.00    +0.000 A 
ATOM      8  N   UNL     1       1.668   9.480  18.361  0.00  0.00    +0.000 NA
ATOM      9  C   UNL     1       2.427   8.636  17.603  0.00  0.00    +0.000 A 
ATOM     10  C   UNL     1       2.594   7.435  18.255  0.00  0.00    +0.000 A 
ATOM     11  O   UNL     1       1.919   7.523  19.449  0.00  0.00    +0.000 OA
BRANCH  10  12
ATOM     12  C   UNL     1       3.318   6.207  17.961  0.00  0.00    +0.000 A 
ATOM     13  C   UNL     1       4.716   6.177  17.880  0.00  0.00    +0.000 A 
ATOM     14  C   UNL     1       5.388   4.992  17.559  0.00  0.00    +0.000 A 
ATOM     15  C   UNL     1       4.671   3.822  17.317  0.00  0.00    +0.000 A 
ATOM     16  C   UNL     1       3.283   3.829  17.406  0.00  0.00    +0.000 A 
ATOM     17  C   UNL     1       2.620   5.012  17.727  0.00  0.00    +0.000 A 
ATOM     18  F   UNL     1       1.281   4.974  17.798  0.00  0.00    +0.000 F 
ENDBRANCH  10  12
ENDBRANCH   6   7
BRANCH   1  20
ATOM     19  O   UNL     1      -0.813  11.489  18.621  0.00  0.00    +0.000 OA
ATOM     20  C   UNL     1      -1.130  10.472  19.234  0.00  0.00    +0.000 C 
ATOM     21  N   UNL     1      -2.197   9.672  18.868  0.00  0.00    +0.000 N 
ATOM     22  H   UNL     1      -2.284   8.760  19.293  0.00  0.00    +0.000 HD
BRANCH  21  23
ATOM     23  C   UNL     1      -2.933   9.890  17.632  0.00  0.00    +0.000 C 
ATOM     24  C   UNL     1      -1.988   9.838  16.433  0.00  0.00    +0.000 C 
ATOM     25  C   UNL     1      -2.766  10.102  15.154  0.00  0.00    +0.000 C 
ATOM     26  O   UNL     1      -3.433  11.362  15.222  0.00  0.00    +0.000 OA
ATOM     27  C   UNL     1      -4.378  11.419  16.292  0.00  0.00    +0.000 C 
ATOM     28  C   UNL     1      -3.687  11.222  17.635  0.00  0.00    +0.000 C 
ENDBRANCH  21  23
ENDBRANCH   1  20
TORSDOF 4
ENDMDL
MODEL 8
REMARK VINA RESULT:      -7.9      1.005      1.670
REMARK  Name = 
REMARK  4 active torsions:
REMARK  status: ('A' for Active; 'I' for Inactive)
REMARK    1  A    between atoms: C_2  and  C_10
REMARK    2  A    between atoms: N_3  and  C_4
REMARK    3  A    between atoms: C_15  and  C_16
REMARK    4  A    between atoms: C_19  and  C_20
REMARK                            x       y       z     vdW  Elec       q    Type
REMARK                         _______ _______ _______ _____ _____    ______ ____
ROOT
ATOM      1  C   UNL     1      -0.414  10.140  20.506  0.00  0.00    +0.000 A 
ATOM      2  C   UNL     1      -0.931  10.780  21.647  0.00  0.00    +0.000 A 
ATOM      3  C   UNL     1      -0.448  10.471  22.918  0.00  0.00    +0.000 A 
ATOM      4  C   UNL     1       0.537   9.500  23.063  0.00  0.00    +0.000 A 
ATOM      5  C   UNL     1       1.088   8.887  21.932  0.00  0.00    +0.000 A 
ATOM      6  C   UNL     1       0.656   9.232  20.636  0.00  0.00    +0.000 A 
ENDROOT
BRANCH   6   7
ATOM      7  C   UNL     1       1.406   8.764  19.475  0.00  0.00    +0.000 A 
ATOM      8  N   UNL     1       1.846   9.476  18.460  0.00  0.00    +0.000 NA
ATOM      9  C   UNL     1       2.515   8.578  17.679  0.00  0.00    +0.000 A 
ATOM     10  C   UNL     1       2.454   7.323  18.242  0.00  0.00    +0.000 A 
ATOM     11  O   UNL     1       1.724   7.432  19.402  0.00  0.00    +0.000 OA
BRANCH  10  12
ATOM     12  C   UNL     1       2.999   6.020  17.890  0.00  0.00    +0.000 A 
ATOM     13  C   UNL     1       2.202   4.868  17.877  0.00  0.00    +0.000 A 
ATOM     14  C   UNL     1       2.755   3.620  17.572  0.00  0.00    +0.000 A 
ATOM     15  C   UNL     1       4.112   3.507  17.274  0.00  0.00    +0.000 A 
ATOM     16  C   UNL     1       4.916   4.642  17.268  0.00  0.00    +0.000 A 
ATOM     17  C   UNL     1       4.359   5.882  17.572  0.00  0.00    +0.000 A 
ATOM     18  F   UNL     1       5.172   6.949  17.558  0.00  0.00    +0.000 F 
ENDBRANCH  10  12
ENDBRANCH   6   7
BRANCH   1  20
ATOM     19  O   UNL     1      -0.739  11.451  18.571  0.00  0.00    +0.000 OA
ATOM     20  C   UNL     1      -1.101  10.473  19.220  0.00  0.00    +0.000 C 
ATOM     21  N   UNL     1      -2.207   9.714  18.888  0.00  0.00    +0.000 N 
ATOM     22  H   UNL     1      -2.336   8.822  19.345  0.00  0.00    +0.000 HD
BRANCH  21  23
ATOM     23  C   UNL     1      -2.940   9.923  17.649  0.00  0.00    +0.000 C 
ATOM     24  C   UNL     1      -1.994   9.838  16.451  0.00  0.00    +0.000 C 
ATOM     25  C   UNL     1      -2.768  10.094  15.167  0.00  0.00    +0.000 C 
ATOM     26  O   UNL     1      -3.416  11.364  15.215  0.00  0.00    +0.000 OA
ATOM     27  C   UNL     1      -4.361  11.452  16.284  0.00  0.00    +0.000 C 
ATOM     28  C   UNL     1      -3.674  11.265  17.630  0.00  0.00    +0.000 C 
ENDBRANCH  21  23
ENDBRANCH   1  20
TORSDOF 4
ENDMDL
MODEL 9
REMARK VINA RESULT:      -7.8      3.358      7.910
REMARK  Name = 
REMARK  4 active torsions:
REMARK  status: ('A' for Active; 'I' for Inactive)
REMARK    1  A    between atoms: C_2  and  C_10
REMARK    2  A    between atoms: N_3  and  C_4
REMARK    3  A    between atoms: C_15  and  C_16
REMARK    4  A    between atoms: C_19  and  C_20
REMARK                            x       y       z     vdW  Elec       q    Type
REMARK                         _______ _______ _______ _____ _____    ______ ____
ROOT
ATOM      1  C   UNL     1       2.464   3.729  19.261  0.00  0.00    +0.000 A 
ATOM      2  C   UNL     1       2.279   2.382  19.621  0.00  0.00    +0.000 A 
ATOM      3  C   UNL     1       2.013   2.028  20.942  0.00  0.00    +0.000 A 
ATOM      4  C   UNL     1       1.957   3.013  21.922  0.00  0.00    +0.000 A 
ATOM      5  C   UNL     1       2.097   4.360  21.569  0.00  0.00    +0.000 A 
ATOM      6  C   UNL     1       2.304   4.742  20.228  0.00  0.00    +0.000 A 
ENDROOT
BRANCH   6   7
ATOM      7  C   UNL     1       2.206   6.148  19.853  0.00  0.00    +0.000 A 
ATOM      8  N   UNL     1       2.816   6.762  18.862  0.00  0.00    +0.000 NA
ATOM      9  C   UNL     1       2.352   8.045  18.919  0.00  0.00    +0.000 A 
ATOM     10  C   UNL     1       1.467   8.183  19.965  0.00  0.00    +0.000 A 
ATOM     11  O   UNL     1       1.377   6.959  20.585  0.00  0.00    +0.000 OA
BRANCH  10  12
ATOM     12  C   UNL     1       0.653   9.276  20.474  0.00  0.00    +0.000 A 
ATOM     13  C   UNL     1      -0.125  10.072  19.623  0.00  0.00    +0.000 A 
ATOM     14  C   UNL     1      -0.872  11.142  20.131  0.00  0.00    +0.000 A 
ATOM     15  C   UNL     1      -0.852  11.428  21.495  0.00  0.00    +0.000 A 
ATOM     16  C   UNL     1      -0.097  10.639  22.356  0.00  0.00    +0.000 A 
ATOM     17  C   UNL     1       0.644   9.575  21.845  0.00  0.00    +0.000 A 
ATOM     18  F   UNL     1       1.361   8.844  22.711  0.00  0.00    +0.000 F 
ENDBRANCH  10  12
ENDBRANCH   6   7
BRANCH   1  20
ATOM     19  O   UNL     1       2.054   3.747  16.937  0.00  0.00    +0.000 OA
ATOM     20  C   UNL     1       2.861   3.962  17.838  0.00  0.00    +0.000 C 
ATOM     21  N   UNL     1       4.181   4.300  17.605  0.00  0.00    +0.000 N 
ATOM     22  H   UNL     1       4.733   4.646  18.376  0.00  0.00    +0.000 HD
BRANCH  21  23
ATOM     23  C   UNL     1       4.679   4.580  16.267  0.00  0.00    +0.000 C 
ATOM     24  C   UNL     1       5.863   3.671  15.939  0.00  0.00    +0.000 C 
ATOM     25  C   UNL     1       6.394   4.000  14.553  0.00  0.00    +0.000 C 
ATOM     26  O   UNL     1       6.768   5.374  14.471  0.00  0.00    +0.000 OA
ATOM     27  C   UNL     1       5.665   6.253  14.703  0.00  0.00    +0.000 C 
ATOM     28  C   UNL     1       5.091   6.044  16.098  0.00  0.00    +0.000 C 
ENDBRANCH  21  23
ENDBRANCH   1  20
TORSDOF 4
ENDMDL
