MODEL 1
REMARK VINA RESULT:      -8.5      0.000      0.000
REMARK  Name = 
REMARK  5 active torsions:
REMARK  status: ('A' for Active; 'I' for Inactive)
REMARK    1  A    between atoms: C_2  and  C_26
REMARK    2  A    between atoms: N_3  and  C_4
REMARK    3  A    between atoms: C_8  and  N_9
REMARK    4  A    between atoms: N_9  and  C_10
REMARK    5  A    between atoms: N_18  and  C_19
REMARK                            x       y       z     vdW  Elec       q    Type
REMARK                         _______ _______ _______ _____ _____    ______ ____
ROOT
ATOM      1  N   UNL     1       2.274   7.378  20.696  0.00  0.00    +0.000 N 
ATOM      2  H   UNL     1       3.208   7.573  21.025  0.00  0.00    +0.000 HD
ENDROOT
BRANCH   1   3
ATOM      3  C   UNL     1       1.450   8.493  20.497  0.00  0.00    +0.000 A 
ATOM      4  N   UNL     1       1.228   8.928  19.230  0.00  0.00    +0.000 NA
ATOM      5  C   UNL     1       0.444   9.992  19.025  0.00  0.00    +0.000 A 
ATOM      6  N   UNL     1      -0.166  10.735  19.949  0.00  0.00    +0.000 NA
ATOM      7  C   UNL     1       0.060  10.297  21.203  0.00  0.00    +0.000 A 
ATOM      8  C   UNL     1       0.836   9.197  21.540  0.00  0.00    +0.000 A 
ATOM      9  C   UNL     1       0.791   9.154  22.943  0.00  0.00    +0.000 A 
ATOM     10  N   UNL     1       0.068  10.140  23.477  0.00  0.00    +0.000 NA
ATOM     11  N   UNL     1      -0.398  10.847  22.399  0.00  0.00    +0.000 N 
BRANCH  11  12
ATOM     12  C   UNL     1      -1.226  11.995  22.593  0.00  0.00    +0.000 A 
ATOM     13  C   UNL     1      -0.702  13.278  22.364  0.00  0.00    +0.000 A 
ATOM     14  C   UNL     1      -1.505  14.410  22.536  0.00  0.00    +0.000 A 
ATOM     15  C   UNL     1      -2.831  14.276  22.943  0.00  0.00    +0.000 A 
ATOM     16  C   UNL     1      -3.358  13.010  23.179  0.00  0.00    +0.000 A 
ATOM     17  C   UNL     1      -2.559  11.874  23.009  0.00  0.00    +0.000 A 
ENDBRANCH  11  12
ENDBRANCH   1   3
BRANCH   1  22
ATOM     18  C   UNL     1       2.851   4.600  18.252  0.00  0.00    +0.000 A 
ATOM     19  C   UNL     1       1.911   3.680  18.716  0.00  0.00    +0.000 A 
ATOM     20  C   UNL     1       1.095   3.985  19.807  0.00  0.00    +0.000 A 
ATOM     21  C   UNL     1       1.220   5.211  20.458  0.00  0.00    +0.000 A 
ATOM     22  C   UNL     1       2.169   6.141  20.028  0.00  0.00    +0.000 A 
ATOM     23  C   UNL     1       2.983   5.819  18.928  0.00  0.00    +0.000 A 
BRANCH  18  26
ATOM     24  O   UNL     1       5.737   4.025  18.170  0.00  0.00    +0.000 OA
ATOM     25  C   UNL     1       5.040   4.117  17.166  0.00  0.00    +0.000 C 
ATOM     26  N   UNL     1       3.684   4.372  17.132  0.00  0.00    +0.000 N 
ATOM     27  H   UNL     1       3.224   4.304  16.238  0.00  0.00    +0.000 HD
BRANCH  25  28
ATOM     28  C   UNL     1       5.719   3.912  15.856  0.00  0.00    +0.000 C 
ATOM     29  C   UNL     1       6.828   4.864  15.464  0.00  0.00    +0.000 C 
ATOM     30  C   UNL     1       5.597   4.755  14.613  0.00  0.00    +0.000 C 
ENDBRANCH  25  28
ENDBRANCH  18  26
ENDBRANCH   1  22
TORSDOF 5
ENDMDL
MODEL 2
REMARK VINA RESULT:      -8.3      2.991      4.724
REMARK  Name = 
REMARK  5 active torsions:
REMARK  status: ('A' for Active; 'I' for Inactive)
REMARK    1  A    between atoms: C_2  and  C_26
REMARK    2  A    between atoms: N_3  and  C_4
REMARK    3  A    between atoms: C_8  and  N_9
REMARK    4  A    between atoms: N_9  and  C_10
REMARK    5  A    between atoms: N_18  and  C_19
REMARK                            x       y       z     vdW  Elec       q    Type
REMARK                         _______ _______ _______ _____ _____    ______ ____
ROOT
ATOM      1  N   UNL     1       3.570   4.491  18.799  0.00  0.00    +0.000 N 
ATOM      2  H   UNL     1       3.404   3.621  19.287  0.00  0.00    +0.000 HD
ENDROOT
BRANCH   1   3
ATOM      3  C   UNL     1       2.895   5.611  19.299  0.00  0.00    +0.000 A 
ATOM      4  N   UNL     1       2.297   5.529  20.515  0.00  0.00    +0.000 NA
ATOM      5  C   UNL     1       1.648   6.591  21.006  0.00  0.00    +0.000 A 
ATOM      6  N   UNL     1       1.484   7.777  20.420  0.00  0.00    +0.000 NA
ATOM      7  C   UNL     1       2.080   7.850  19.213  0.00  0.00    +0.000 A 
ATOM      8  C   UNL     1       2.796   6.826  18.610  0.00  0.00    +0.000 A 
ATOM      9  C   UNL     1       3.198   7.361  17.376  0.00  0.00    +0.000 A 
ATOM     10  N   UNL     1       2.774   8.610  17.180  0.00  0.00    +0.000 NA
ATOM     11  N   UNL     1       2.088   8.923  18.324  0.00  0.00    +0.000 N 
BRANCH  11  12
ATOM     12  C   UNL     1       1.482  10.209  18.474  0.00  0.00    +0.000 A 
ATOM     13  C   UNL     1       2.254  11.368  18.288  0.00  0.00    +0.000 A 
ATOM     14  C   UNL     1       1.672  12.632  18.417  0.00  0.00    +0.000 A 
ATOM     15  C   UNL     1       0.322  12.755  18.739  0.00  0.00    +0.000 A 
ATOM     16  C   UNL     1      -0.450  11.614  18.932  0.00  0.00    +0.000 A 
ATOM     17  C   UNL     1       0.127  10.345  18.804  0.00  0.00    +0.000 A 
ENDBRANCH  11  12
ENDBRANCH   1   3
BRANCH   1  22
ATOM     18  C   UNL     1       6.095   4.100  16.062  0.00  0.00    +0.000 A 
ATOM     19  C   UNL     1       7.239   4.529  16.735  0.00  0.00    +0.000 A 
ATOM     20  C   UNL     1       7.172   4.922  18.073  0.00  0.00    +0.000 A 
ATOM     21  C   UNL     1       5.955   4.907  18.750  0.00  0.00    +0.000 A 
ATOM     22  C   UNL     1       4.790   4.505  18.093  0.00  0.00    +0.000 A 
ATOM     23  C   UNL     1       4.874   4.111  16.746  0.00  0.00    +0.000 A 
BRANCH  18  26
ATOM     24  O   UNL     1       7.240   5.392  13.677  0.00  0.00    +0.000 OA
ATOM     25  C   UNL     1       6.646   4.319  13.643  0.00  0.00    +0.000 C 
ATOM     26  N   UNL     1       6.097   3.654  14.720  0.00  0.00    +0.000 N 
ATOM     27  H   UNL     1       5.741   2.726  14.556  0.00  0.00    +0.000 HD
BRANCH  25  28
ATOM     28  C   UNL     1       6.525   3.661  12.312  0.00  0.00    +0.000 C 
ATOM     29  C   UNL     1       5.141   3.367  11.777  0.00  0.00    +0.000 C 
ATOM     30  C   UNL     1       6.106   2.244  12.019  0.00  0.00    +0.000 C 
ENDBRANCH  25  28
ENDBRANCH  18  26
ENDBRANCH   1  22
TORSDOF 5
ENDMDL
MODEL 3
REMARK VINA RESULT:      -8.2      2.844      5.061
REMARK  Name = 
REMARK  5 active torsions:
REMARK  status: ('A' for Active; 'I' for Inactive)
REMARK    1  A    between atoms: C_2  and  C_26
REMARK    2  A    between atoms: N_3  and  C_4
REMARK    3  A    between atoms: C_8  and  N_9
REMARK    4  A    between atoms: N_9  and  C_10
REMARK    5  A    between atoms: N_18  and  C_19
REMARK                            x       y       z     vdW  Elec       q    Type
REMARK                         _______ _______ _______ _____ _____    ______ ____
ROOT
ATOM      1  N   UNL     1       4.320   3.688  18.978  0.00  0.00    +0.000 N 
ATOM      2  H   UNL     1       4.552   2.876  19.533  0.00  0.00    +0.000 HD
ENDROOT
BRANCH   1   3
ATOM      3  C   UNL     1       3.402   4.577  19.548  0.00  0.00    +0.000 A 
ATOM      4  N   UNL     1       2.692   4.182  20.636  0.00  0.00    +0.000 NA
ATOM      5  C   UNL     1       1.810   5.020  21.191  0.00  0.00    +0.000 A 
ATOM      6  N   UNL     1       1.503   6.253  20.785  0.00  0.00    +0.000 NA
ATOM      7  C   UNL     1       2.212   6.638  19.704  0.00  0.00    +0.000 A 
ATOM      8  C   UNL     1       3.165   5.867  19.055  0.00  0.00    +0.000 A 
ATOM      9  C   UNL     1       3.603   6.674  17.993  0.00  0.00    +0.000 A 
ATOM     10  N   UNL     1       2.986   7.856  17.941  0.00  0.00    +0.000 NA
ATOM     11  N   UNL     1       2.127   7.843  19.009  0.00  0.00    +0.000 N 
BRANCH  11  12
ATOM     12  C   UNL     1       1.287   8.968  19.273  0.00  0.00    +0.000 A 
ATOM     13  C   UNL     1       0.721   9.680  18.203  0.00  0.00    +0.000 A 
ATOM     14  C   UNL     1      -0.115  10.774  18.447  0.00  0.00    +0.000 A 
ATOM     15  C   UNL     1      -0.388  11.173  19.754  0.00  0.00    +0.000 A 
ATOM     16  C   UNL     1       0.174  10.479  20.821  0.00  0.00    +0.000 A 
ATOM     17  C   UNL     1       1.011   9.383  20.583  0.00  0.00    +0.000 A 
ENDBRANCH  11  12
ENDBRANCH   1   3
BRANCH   1  22
ATOM     18  C   UNL     1       6.203   3.977  15.753  0.00  0.00    +0.000 A 
ATOM     19  C   UNL     1       7.329   4.668  16.200  0.00  0.00    +0.000 A 
ATOM     20  C   UNL     1       7.463   5.015  17.546  0.00  0.00    +0.000 A 
ATOM     21  C   UNL     1       6.464   4.688  18.459  0.00  0.00    +0.000 A 
ATOM     22  C   UNL     1       5.316   4.016  18.035  0.00  0.00    +0.000 A 
ATOM     23  C   UNL     1       5.195   3.673  16.676  0.00  0.00    +0.000 A 
BRANCH  18  26
ATOM     24  O   UNL     1       7.368   5.088  13.289  0.00  0.00    +0.000 OA
ATOM     25  C   UNL     1       6.591   4.139  13.298  0.00  0.00    +0.000 C 
ATOM     26  N   UNL     1       6.018   3.562  14.413  0.00  0.00    +0.000 N 
ATOM     27  H   UNL     1       5.489   2.716  14.275  0.00  0.00    +0.000 HD
BRANCH  25  28
ATOM     28  C   UNL     1       6.249   3.538  11.979  0.00  0.00    +0.000 C 
ATOM     29  C   UNL     1       4.790   3.321  11.643  0.00  0.00    +0.000 C 
ATOM     30  C   UNL     1       5.728   2.151  11.705  0.00  0.00    +0.000 C 
ENDBRANCH  25  28
ENDBRANCH  18  26
ENDBRANCH   1  22
TORSDOF 5
ENDMDL
MODEL 4
REMARK VINA RESULT:      -8.2      2.136      3.974
REMARK  Name = 
REMARK  5 active torsions:
REMARK  status: ('A' for Active; 'I' for Inactive)
REMARK    1  A    between atoms: C_2  and  C_26
REMARK    2  A    between atoms: N_3  and  C_4
REMARK    3  A    between atoms: C_8  and  N_9
REMARK    4  A    between atoms: N_9  and  C_10
REMARK    5  A    between atoms: N_18  and  C_19
REMARK                            x       y       z     vdW  Elec       q    Type
REMARK                         _______ _______ _______ _____ _____    ______ ____
ROOT
ATOM      1  N   UNL     1       3.656   5.241  18.425  0.00  0.00    +0.000 N 
ATOM      2  H   UNL     1       3.426   4.569  19.145  0.00  0.00    +0.000 HD
ENDROOT
BRANCH   1   3
ATOM      3  C   UNL     1       3.057   6.500  18.549  0.00  0.00    +0.000 A 
ATOM      4  N   UNL     1       3.287   7.434  17.591  0.00  0.00    +0.000 NA
ATOM      5  C   UNL     1       2.722   8.642  17.696  0.00  0.00    +0.000 A 
ATOM      6  N   UNL     1       1.936   9.082  18.679  0.00  0.00    +0.000 NA
ATOM      7  C   UNL     1       1.713   8.149  19.626  0.00  0.00    +0.000 A 
ATOM      8  C   UNL     1       2.226   6.860  19.617  0.00  0.00    +0.000 A 
ATOM      9  C   UNL     1       1.742   6.284  20.803  0.00  0.00    +0.000 A 
ATOM     10  N   UNL     1       0.996   7.118  21.528  0.00  0.00    +0.000 NA
ATOM     11  N   UNL     1       0.966   8.277  20.796  0.00  0.00    +0.000 N 
BRANCH  11  12
ATOM     12  C   UNL     1       0.244   9.414  21.273  0.00  0.00    +0.000 A 
ATOM     13  C   UNL     1      -0.196   9.449  22.606  0.00  0.00    +0.000 A 
ATOM     14  C   UNL     1      -0.892  10.561  23.091  0.00  0.00    +0.000 A 
ATOM     15  C   UNL     1      -1.162  11.641  22.253  0.00  0.00    +0.000 A 
ATOM     16  C   UNL     1      -0.737  11.613  20.928  0.00  0.00    +0.000 A 
ATOM     17  C   UNL     1      -0.041  10.502  20.438  0.00  0.00    +0.000 A 
ENDBRANCH  11  12
ENDBRANCH   1   3
BRANCH   1  22
ATOM     18  C   UNL     1       6.155   4.190  15.842  0.00  0.00    +0.000 A 
ATOM     19  C   UNL     1       7.335   4.411  16.552  0.00  0.00    +0.000 A 
ATOM     20  C   UNL     1       7.296   4.883  17.865  0.00  0.00    +0.000 A 
ATOM     21  C   UNL     1       6.076   5.156  18.479  0.00  0.00    +0.000 A 
ATOM     22  C   UNL     1       4.880   4.965  17.783  0.00  0.00    +0.000 A 
ATOM     23  C   UNL     1       4.935   4.488  16.461  0.00  0.00    +0.000 A 
BRANCH  18  26
ATOM     24  O   UNL     1       7.358   5.289  13.390  0.00  0.00    +0.000 OA
ATOM     25  C   UNL     1       6.699   4.255  13.412  0.00  0.00    +0.000 C 
ATOM     26  N   UNL     1       6.119   3.678  14.523  0.00  0.00    +0.000 N 
ATOM     27  H   UNL     1       5.704   2.767  14.407  0.00  0.00    +0.000 HD
BRANCH  25  28
ATOM     28  C   UNL     1       6.528   3.541  12.116  0.00  0.00    +0.000 C 
ATOM     29  C   UNL     1       5.123   3.252  11.634  0.00  0.00    +0.000 C 
ATOM     30  C   UNL     1       6.072   2.121  11.899  0.00  0.00    +0.000 C 
ENDBRANCH  25  28
ENDBRANCH  18  26
ENDBRANCH   1  22
TORSDOF 5
ENDMDL
MODEL 5
REMARK VINA RESULT:      -8.1      2.789      4.105
REMARK  Name = 
REMARK  5 active torsions:
REMARK  status: ('A' for Active; 'I' for Inactive)
REMARK    1  A    between atoms: C_2  and  C_26
REMARK    2  A    between atoms: N_3  and  C_4
REMARK    3  A    between atoms: C_8  and  N_9
REMARK    4  A    between atoms: N_9  and  C_10
REMARK    5  A    between atoms: N_18  and  C_19
REMARK                            x       y       z     vdW  Elec       q    Type
REMARK                         _______ _______ _______ _____ _____    ______ ____
ROOT
ATOM      1  N   UNL     1       2.855   5.201  19.142  0.00  0.00    +0.000 N 
ATOM      2  H   UNL     1       2.477   4.352  19.539  0.00  0.00    +0.000 HD
ENDROOT
BRANCH   1   3
ATOM      3  C   UNL     1       2.287   6.396  19.600  0.00  0.00    +0.000 A 
ATOM      4  N   UNL     1       1.748   6.432  20.846  0.00  0.00    +0.000 NA
ATOM      5  C   UNL     1       1.201   7.566  21.297  0.00  0.00    +0.000 A 
ATOM      6  N   UNL     1       1.091   8.724  20.645  0.00  0.00    +0.000 NA
ATOM      7  C   UNL     1       1.628   8.679  19.409  0.00  0.00    +0.000 A 
ATOM      8  C   UNL     1       2.238   7.571  18.840  0.00  0.00    +0.000 A 
ATOM      9  C   UNL     1       2.613   7.999  17.556  0.00  0.00    +0.000 A 
ATOM     10  N   UNL     1       2.268   9.262  17.301  0.00  0.00    +0.000 NA
ATOM     11  N   UNL     1       1.665   9.694  18.454  0.00  0.00    +0.000 N 
BRANCH  11  12
ATOM     12  C   UNL     1       1.160  11.027  18.549  0.00  0.00    +0.000 A 
ATOM     13  C   UNL     1       2.051  12.112  18.527  0.00  0.00    +0.000 A 
ATOM     14  C   UNL     1       1.570  13.423  18.605  0.00  0.00    +0.000 A 
ATOM     15  C   UNL     1       0.202  13.664  18.712  0.00  0.00    +0.000 A 
ATOM     16  C   UNL     1      -0.689  12.596  18.742  0.00  0.00    +0.000 A 
ATOM     17  C   UNL     1      -0.213  11.282  18.664  0.00  0.00    +0.000 A 
ENDBRANCH  11  12
ENDBRANCH   1   3
BRANCH   1  22
ATOM     18  C   UNL     1       5.720   4.273  16.917  0.00  0.00    +0.000 A 
ATOM     19  C   UNL     1       6.782   4.732  17.696  0.00  0.00    +0.000 A 
ATOM     20  C   UNL     1       6.548   5.321  18.940  0.00  0.00    +0.000 A 
ATOM     21  C   UNL     1       5.246   5.474  19.413  0.00  0.00    +0.000 A 
ATOM     22  C   UNL     1       4.163   5.044  18.642  0.00  0.00    +0.000 A 
ATOM     23  C   UNL     1       4.415   4.452  17.391  0.00  0.00    +0.000 A 
BRANCH  18  26
ATOM     24  O   UNL     1       6.643   5.406  14.360  0.00  0.00    +0.000 OA
ATOM     25  C   UNL     1       6.315   4.232  14.498  0.00  0.00    +0.000 C 
ATOM     26  N   UNL     1       5.886   3.634  15.665  0.00  0.00    +0.000 N 
ATOM     27  H   UNL     1       5.762   2.634  15.653  0.00  0.00    +0.000 HD
BRANCH  25  28
ATOM     28  C   UNL     1       6.411   3.363  13.292  0.00  0.00    +0.000 C 
ATOM     29  C   UNL     1       6.897   3.978  11.999  0.00  0.00    +0.000 C 
ATOM     30  C   UNL     1       5.525   3.377  12.074  0.00  0.00    +0.000 C 
ENDBRANCH  25  28
ENDBRANCH  18  26
ENDBRANCH   1  22
TORSDOF 5
ENDMDL
MODEL 6
REMARK VINA RESULT:      -8.1      3.142      5.679
REMARK  Name = 
REMARK  5 active torsions:
REMARK  status: ('A' for Active; 'I' for Inactive)
REMARK    1  A    between atoms: C_2  and  C_26
REMARK    2  A    between atoms: N_3  and  C_4
REMARK    3  A    between atoms: C_8  and  N_9
REMARK    4  A    between atoms: N_9  and  C_10
REMARK    5  A    between atoms: N_18  and  C_19
REMARK                            x       y       z     vdW  Elec       q    Type
REMARK                         _______ _______ _______ _____ _____    ______ ____
ROOT
ATOM      1  N   UNL     1       5.184   3.850  18.185  0.00  0.00    +0.000 N 
ATOM      2  H   UNL     1       5.830   3.347  18.778  0.00  0.00    +0.000 HD
ENDROOT
BRANCH   1   3
ATOM      3  C   UNL     1       4.156   4.534  18.844  0.00  0.00    +0.000 A 
ATOM      4  N   UNL     1       3.491   3.911  19.851  0.00  0.00    +0.000 NA
ATOM      5  C   UNL     1       2.506   4.552  20.489  0.00  0.00    +0.000 A 
ATOM      6  N   UNL     1       2.050   5.781  20.242  0.00  0.00    +0.000 NA
ATOM      7  C   UNL     1       2.715   6.392  19.240  0.00  0.00    +0.000 A 
ATOM      8  C   UNL     1       3.763   5.840  18.520  0.00  0.00    +0.000 A 
ATOM      9  C   UNL     1       4.107   6.830  17.586  0.00  0.00    +0.000 A 
ATOM     10  N   UNL     1       3.347   7.923  17.674  0.00  0.00    +0.000 NA
ATOM     11  N   UNL     1       2.486   7.660  18.709  0.00  0.00    +0.000 N 
BRANCH  11  12
ATOM     12  C   UNL     1       1.508   8.627  19.097  0.00  0.00    +0.000 A 
ATOM     13  C   UNL     1       0.871   9.406  18.117  0.00  0.00    +0.000 A 
ATOM     14  C   UNL     1      -0.097  10.346  18.481  0.00  0.00    +0.000 A 
ATOM     15  C   UNL     1      -0.435  10.524  19.822  0.00  0.00    +0.000 A 
ATOM     16  C   UNL     1       0.195   9.763  20.801  0.00  0.00    +0.000 A 
ATOM     17  C   UNL     1       1.166   8.821  20.442  0.00  0.00    +0.000 A 
ENDBRANCH  11  12
ENDBRANCH   1   3
BRANCH   1  22
ATOM     18  C   UNL     1       5.648   4.166  14.483  0.00  0.00    +0.000 A 
ATOM     19  C   UNL     1       6.864   4.849  14.456  0.00  0.00    +0.000 A 
ATOM     20  C   UNL     1       7.520   5.181  15.643  0.00  0.00    +0.000 A 
ATOM     21  C   UNL     1       6.959   4.848  16.873  0.00  0.00    +0.000 A 
ATOM     22  C   UNL     1       5.731   4.184  16.930  0.00  0.00    +0.000 A 
ATOM     23  C   UNL     1       5.083   3.856  15.726  0.00  0.00    +0.000 A 
BRANCH  18  26
ATOM     24  O   UNL     1       6.706   3.059  11.968  0.00  0.00    +0.000 OA
ATOM     25  C   UNL     1       5.512   3.262  12.165  0.00  0.00    +0.000 C 
ATOM     26  N   UNL     1       4.949   3.766  13.320  0.00  0.00    +0.000 N 
ATOM     27  H   UNL     1       3.943   3.771  13.379  0.00  0.00    +0.000 HD
BRANCH  25  28
ATOM     28  C   UNL     1       4.579   2.911  11.059  0.00  0.00    +0.000 C 
ATOM     29  C   UNL     1       3.768   4.018  10.423  0.00  0.00    +0.000 C 
ATOM     30  C   UNL     1       3.074   2.873  11.100  0.00  0.00    +0.000 C 
ENDBRANCH  25  28
ENDBRANCH  18  26
ENDBRANCH   1  22
TORSDOF 5
ENDMDL
MODEL 7
REMARK VINA RESULT:      -7.9      1.017      1.108
REMARK  Name = 
REMARK  5 active torsions:
REMARK  status: ('A' for Active; 'I' for Inactive)
REMARK    1  A    between atoms: C_2  and  C_26
REMARK    2  A    between atoms: N_3  and  C_4
REMARK    3  A    between atoms: C_8  and  N_9
REMARK    4  A    between atoms: N_9  and  C_10
REMARK    5  A    between atoms: N_18  and  C_19
REMARK                            x       y       z     vdW  Elec       q    Type
REMARK                         _______ _______ _______ _____ _____    ______ ____
ROOT
ATOM      1  N   UNL     1       2.603   7.010  20.117  0.00  0.00    +0.000 N 
ATOM      2  H   UNL     1       3.507   7.194  20.528  0.00  0.00    +0.000 HD
ENDROOT
BRANCH   1   3
ATOM      3  C   UNL     1       1.820   8.135  19.833  0.00  0.00    +0.000 A 
ATOM      4  N   UNL     1       1.695   8.539  18.543  0.00  0.00    +0.000 NA
ATOM      5  C   UNL     1       0.951   9.614  18.256  0.00  0.00    +0.000 A 
ATOM      6  N   UNL     1       0.296  10.395  19.116  0.00  0.00    +0.000 NA
ATOM      7  C   UNL     1       0.427   9.987  20.394  0.00  0.00    +0.000 A 
ATOM      8  C   UNL     1       1.152   8.882  20.813  0.00  0.00    +0.000 A 
ATOM      9  C   UNL     1       1.011   8.879  22.210  0.00  0.00    +0.000 A 
ATOM     10  N   UNL     1       0.276   9.894  22.667  0.00  0.00    +0.000 NA
ATOM     11  N   UNL     1      -0.099  10.580  21.541  0.00  0.00    +0.000 N 
BRANCH  11  12
ATOM     12  C   UNL     1      -0.912  11.751  21.646  0.00  0.00    +0.000 A 
ATOM     13  C   UNL     1      -1.576  12.241  20.510  0.00  0.00    +0.000 A 
ATOM     14  C   UNL     1      -2.387  13.377  20.601  0.00  0.00    +0.000 A 
ATOM     15  C   UNL     1      -2.537  14.037  21.820  0.00  0.00    +0.000 A 
ATOM     16  C   UNL     1      -1.878  13.563  22.950  0.00  0.00    +0.000 A 
ATOM     17  C   UNL     1      -1.066  12.427  22.864  0.00  0.00    +0.000 A 
ENDBRANCH  11  12
ENDBRANCH   1   3
BRANCH   1  22
ATOM     18  C   UNL     1       3.297   4.223  17.715  0.00  0.00    +0.000 A 
ATOM     19  C   UNL     1       2.356   3.292  18.156  0.00  0.00    +0.000 A 
ATOM     20  C   UNL     1       1.502   3.594  19.218  0.00  0.00    +0.000 A 
ATOM     21  C   UNL     1       1.588   4.826  19.863  0.00  0.00    +0.000 A 
ATOM     22  C   UNL     1       2.537   5.767  19.456  0.00  0.00    +0.000 A 
ATOM     23  C   UNL     1       3.390   5.449  18.384  0.00  0.00    +0.000 A 
BRANCH  18  26
ATOM     24  O   UNL     1       6.237   4.345  17.630  0.00  0.00    +0.000 OA
ATOM     25  C   UNL     1       5.545   4.084  16.651  0.00  0.00    +0.000 C 
ATOM     26  N   UNL     1       4.168   3.999  16.623  0.00  0.00    +0.000 N 
ATOM     27  H   UNL     1       3.744   3.662  15.773  0.00  0.00    +0.000 HD
BRANCH  25  28
ATOM     28  C   UNL     1       6.263   3.811  15.375  0.00  0.00    +0.000 C 
ATOM     29  C   UNL     1       6.795   4.986  14.584  0.00  0.00    +0.000 C 
ATOM     30  C   UNL     1       5.778   4.067  13.972  0.00  0.00    +0.000 C 
ENDBRANCH  25  28
ENDBRANCH  18  26
ENDBRANCH   1  22
TORSDOF 5
ENDMDL
MODEL 8
REMARK VINA RESULT:      -7.9      2.299      2.559
REMARK  Name = 
REMARK  5 active torsions:
REMARK  status: ('A' for Active; 'I' for Inactive)
REMARK    1  A    between atoms: C_2  and  C_26
REMARK    2  A    between atoms: N_3  and  C_4
REMARK    3  A    between atoms: C_8  and  N_9
REMARK    4  A    between atoms: N_9  and  C_10
REMARK    5  A    between atoms: N_18  and  C_19
REMARK                            x       y       z     vdW  Elec       q    Type
REMARK                         _______ _______ _______ _____ _____    ______ ____
ROOT
ATOM      1  N   UNL     1       1.810   6.297  20.955  0.00  0.00    +0.000 N 
ATOM      2  H   UNL     1       1.711   6.430  21.952  0.00  0.00    +0.000 HD
ENDROOT
BRANCH   1   3
ATOM      3  C   UNL     1       1.737   7.456  20.174  0.00  0.00    +0.000 A 
ATOM      4  N   UNL     1       2.092   7.389  18.865  0.00  0.00    +0.000 NA
ATOM      5  C   UNL     1       2.029   8.488  18.105  0.00  0.00    +0.000 A 
ATOM      6  N   UNL     1       1.662   9.712  18.487  0.00  0.00    +0.000 NA
ATOM      7  C   UNL     1       1.312   9.770  19.787  0.00  0.00    +0.000 A 
ATOM      8  C   UNL     1       1.318   8.698  20.667  0.00  0.00    +0.000 A 
ATOM      9  C   UNL     1       0.904   9.248  21.891  0.00  0.00    +0.000 A 
ATOM     10  N   UNL     1       0.664  10.558  21.825  0.00  0.00    +0.000 NA
ATOM     11  N   UNL     1       0.906  10.887  20.517  0.00  0.00    +0.000 N 
BRANCH  11  12
ATOM     12  C   UNL     1       0.747  12.234  20.069  0.00  0.00    +0.000 A 
ATOM     13  C   UNL     1       1.676  13.212  20.461  0.00  0.00    +0.000 A 
ATOM     14  C   UNL     1       1.540  14.532  20.020  0.00  0.00    +0.000 A 
ATOM     15  C   UNL     1       0.478  14.891  19.192  0.00  0.00    +0.000 A 
ATOM     16  C   UNL     1      -0.452  13.932  18.804  0.00  0.00    +0.000 A 
ATOM     17  C   UNL     1      -0.321  12.609  19.243  0.00  0.00    +0.000 A 
ENDBRANCH  11  12
ENDBRANCH   1   3
BRANCH   1  22
ATOM     18  C   UNL     1       4.176   3.910  19.304  0.00  0.00    +0.000 A 
ATOM     19  C   UNL     1       3.826   2.735  19.968  0.00  0.00    +0.000 A 
ATOM     20  C   UNL     1       2.815   2.736  20.931  0.00  0.00    +0.000 A 
ATOM     21  C   UNL     1       2.152   3.918  21.253  0.00  0.00    +0.000 A 
ATOM     22  C   UNL     1       2.499   5.114  20.620  0.00  0.00    +0.000 A 
ATOM     23  C   UNL     1       3.519   5.096  19.652  0.00  0.00    +0.000 A 
BRANCH  18  26
ATOM     24  O   UNL     1       6.848   5.143  19.394  0.00  0.00    +0.000 OA
ATOM     25  C   UNL     1       6.399   4.582  18.401  0.00  0.00    +0.000 C 
ATOM     26  N   UNL     1       5.164   3.974  18.294  0.00  0.00    +0.000 N 
ATOM     27  H   UNL     1       4.978   3.453  17.452  0.00  0.00    +0.000 HD
BRANCH  25  28
ATOM     28  C   UNL     1       7.280   4.532  17.202  0.00  0.00    +0.000 C 
ATOM     29  C   UNL     1       7.154   5.630  16.170  0.00  0.00    +0.000 C 
ATOM     30  C   UNL     1       6.890   4.204  15.784  0.00  0.00    +0.000 C 
ENDBRANCH  25  28
ENDBRANCH  18  26
ENDBRANCH   1  22
TORSDOF 5
ENDMDL
MODEL 9
REMARK VINA RESULT:      -7.9      2.167      2.560
REMARK  Name = 
REMARK  5 active torsions:
REMARK  status: ('A' for Active; 'I' for Inactive)
REMARK    1  A    between atoms: C_2  and  C_26
REMARK    2  A    between atoms: N_3  and  C_4
REMARK    3  A    between atoms: C_8  and  N_9
REMARK    4  A    between atoms: N_9  and  C_10
REMARK    5  A    between atoms: N_18  and  C_19
REMARK                            x       y       z     vdW  Elec       q    Type
REMARK                         _______ _______ _______ _____ _____    ______ ____
ROOT
ATOM      1  N   UNL     1       2.028   6.287  20.934  0.00  0.00    +0.000 N 
ATOM      2  H   UNL     1       2.073   6.467  21.928  0.00  0.00    +0.000 HD
ENDROOT
BRANCH   1   3
ATOM      3  C   UNL     1       1.886   7.413  20.115  0.00  0.00    +0.000 A 
ATOM      4  N   UNL     1       2.192   7.308  18.796  0.00  0.00    +0.000 NA
ATOM      5  C   UNL     1       2.062   8.375  18.000  0.00  0.00    +0.000 A 
ATOM      6  N   UNL     1       1.669   9.600  18.351  0.00  0.00    +0.000 NA
ATOM      7  C   UNL     1       1.368   9.696  19.662  0.00  0.00    +0.000 A 
ATOM      8  C   UNL     1       1.444   8.658  20.579  0.00  0.00    +0.000 A 
ATOM      9  C   UNL     1       1.060   9.240  21.798  0.00  0.00    +0.000 A 
ATOM     10  N   UNL     1       0.773  10.539  21.694  0.00  0.00    +0.000 NA
ATOM     11  N   UNL     1       0.953  10.825  20.366  0.00  0.00    +0.000 N 
BRANCH  11  12
ATOM     12  C   UNL     1       0.731  12.149  19.876  0.00  0.00    +0.000 A 
ATOM     13  C   UNL     1       1.821  13.017  19.697  0.00  0.00    +0.000 A 
ATOM     14  C   UNL     1       1.620  14.310  19.206  0.00  0.00    +0.000 A 
ATOM     15  C   UNL     1       0.336  14.753  18.896  0.00  0.00    +0.000 A 
ATOM     16  C   UNL     1      -0.751  13.904  19.077  0.00  0.00    +0.000 A 
ATOM     17  C   UNL     1      -0.557  12.609  19.569  0.00  0.00    +0.000 A 
ENDBRANCH  11  12
ENDBRANCH   1   3
BRANCH   1  22
ATOM     18  C   UNL     1       4.214   3.773  19.224  0.00  0.00    +0.000 A 
ATOM     19  C   UNL     1       3.765   2.608  19.847  0.00  0.00    +0.000 A 
ATOM     20  C   UNL     1       2.747   2.660  20.801  0.00  0.00    +0.000 A 
ATOM     21  C   UNL     1       2.177   3.880  21.156  0.00  0.00    +0.000 A 
ATOM     22  C   UNL     1       2.624   5.064  20.566  0.00  0.00    +0.000 A 
ATOM     23  C   UNL     1       3.650   4.996  19.606  0.00  0.00    +0.000 A 
BRANCH  18  26
ATOM     24  O   UNL     1       3.916   3.990  16.303  0.00  0.00    +0.000 OA
ATOM     25  C   UNL     1       5.002   3.884  16.864  0.00  0.00    +0.000 C 
ATOM     26  N   UNL     1       5.215   3.790  18.224  0.00  0.00    +0.000 N 
ATOM     27  H   UNL     1       6.169   3.824  18.545  0.00  0.00    +0.000 HD
BRANCH  25  28
ATOM     28  C   UNL     1       6.209   3.878  15.991  0.00  0.00    +0.000 C 
ATOM     29  C   UNL     1       6.884   5.197  15.689  0.00  0.00    +0.000 C 
ATOM     30  C   UNL     1       6.323   4.368  14.571  0.00  0.00    +0.000 C 
ENDBRANCH  25  28
ENDBRANCH  18  26
ENDBRANCH   1  22
TORSDOF 5
ENDMDL
