MODEL 1
REMARK VINA RESULT:      -8.7      0.000      0.000
REMARK  Name = 
REMARK  3 active torsions:
REMARK  status: ('A' for Active; 'I' for Inactive)
REMARK    1  A    between atoms: C_1  and  C_2
REMARK    2  A    between atoms: C_4  and  C_5
REMARK    3  A    between atoms: C_20  and  C_21
REMARK                            x       y       z     vdW  Elec       q    Type
REMARK                         _______ _______ _______ _____ _____    ______ ____
ROOT
ATOM      1  C   UNL     1       2.681   6.925  19.089  0.00  0.00    +0.000 C 
ATOM      2  O   UNL     1       2.260   7.342  18.015  0.00  0.00    +0.000 OA
ATOM      3  N   UNL     1       2.333   7.367  20.350  0.00  0.00    +0.000 N 
ATOM      4  C   UNL     1       1.432   8.390  20.500  0.00  0.00    +0.000 A 
ATOM      5  N   UNL     1       0.723   8.978  19.576  0.00  0.00    +0.000 NA
ATOM      6  C   UNL     1      -0.032   9.988  20.125  0.00  0.00    +0.000 A 
ATOM      7  C   UNL     1      -0.901  10.834  19.410  0.00  0.00    +0.000 A 
ATOM      8  C   UNL     1      -1.587  11.829  20.097  0.00  0.00    +0.000 A 
ATOM      9  F   UNL     1      -2.414  12.635  19.420  0.00  0.00    +0.000 F 
ATOM     10  C   UNL     1      -1.420  11.995  21.464  0.00  0.00    +0.000 A 
ATOM     11  F   UNL     1      -2.087  12.968  22.101  0.00  0.00    +0.000 F 
ATOM     12  C   UNL     1      -0.569  11.169  22.202  0.00  0.00    +0.000 A 
ATOM     13  C   UNL     1       0.117  10.159  21.507  0.00  0.00    +0.000 A 
ATOM     14  S   UNL     1       1.224   8.965  22.091  0.00  0.00    +0.000 S 
ATOM     15  H   UNL     1       2.776   7.016  21.184  0.00  0.00    +0.000 HD
ENDROOT
BRANCH   1  19
ATOM     16  C   UNL     1       7.337   5.312  18.236  0.00  0.00    +0.000 C 
ATOM     17  C   UNL     1       5.914   5.060  18.644  0.00  0.00    +0.000 A 
ATOM     18  C   UNL     1       4.974   6.085  18.614  0.00  0.00    +0.000 A 
ATOM     19  C   UNL     1       3.661   5.827  19.039  0.00  0.00    +0.000 A 
ATOM     20  C   UNL     1       3.345   4.533  19.508  0.00  0.00    +0.000 A 
ATOM     21  C   UNL     1       2.254   3.784  20.047  0.00  0.00    +0.000 A 
ATOM     22  C   UNL     1       0.854   4.157  20.367  0.00  0.00    +0.000 C 
ATOM     23  N   UNL     1       2.607   2.510  20.276  0.00  0.00    +0.000 NA
ATOM     24  O   UNL     1       3.931   2.408  19.914  0.00  0.00    +0.000 OA
ATOM     25  C   UNL     1       4.377   3.606  19.460  0.00  0.00    +0.000 A 
ATOM     26  N   UNL     1       5.641   3.803  19.041  0.00  0.00    +0.000 NA
ENDBRANCH   1  19
TORSDOF 1
ENDMDL
MODEL 2
REMARK VINA RESULT:      -8.5      1.704      2.083
REMARK  Name = 
REMARK  3 active torsions:
REMARK  status: ('A' for Active; 'I' for Inactive)
REMARK    1  A    between atoms: C_1  and  C_2
REMARK    2  A    between atoms: C_4  and  C_5
REMARK    3  A    between atoms: C_20  and  C_21
REMARK                            x       y       z     vdW  Elec       q    Type
REMARK                         _______ _______ _______ _____ _____    ______ ____
ROOT
ATOM      1  C   UNL     1       2.578   6.438  19.170  0.00  0.00    +0.000 C 
ATOM      2  O   UNL     1       2.342   6.092  20.322  0.00  0.00    +0.000 OA
ATOM      3  N   UNL     1       2.239   7.636  18.572  0.00  0.00    +0.000 N 
ATOM      4  C   UNL     1       1.551   8.590  19.277  0.00  0.00    +0.000 A 
ATOM      5  N   UNL     1       1.240   8.585  20.544  0.00  0.00    +0.000 NA
ATOM      6  C   UNL     1       0.508   9.706  20.861  0.00  0.00    +0.000 A 
ATOM      7  C   UNL     1      -0.000  10.010  22.138  0.00  0.00    +0.000 A 
ATOM      8  C   UNL     1      -0.743  11.173  22.305  0.00  0.00    +0.000 A 
ATOM      9  F   UNL     1      -1.228  11.465  23.519  0.00  0.00    +0.000 F 
ATOM     10  C   UNL     1      -0.987  12.023  21.236  0.00  0.00    +0.000 A 
ATOM     11  F   UNL     1      -1.713  13.134  21.423  0.00  0.00    +0.000 F 
ATOM     12  C   UNL     1      -0.492  11.750  19.959  0.00  0.00    +0.000 A 
ATOM     13  C   UNL     1       0.265  10.578  19.794  0.00  0.00    +0.000 A 
ATOM     14  S   UNL     1       1.032   9.943  18.379  0.00  0.00    +0.000 S 
ATOM     15  H   UNL     1       2.410   7.818  17.596  0.00  0.00    +0.000 HD
ENDROOT
BRANCH   1  19
ATOM     16  C   UNL     1       6.357   5.417  16.059  0.00  0.00    +0.000 C 
ATOM     17  C   UNL     1       5.147   4.991  16.838  0.00  0.00    +0.000 A 
ATOM     18  C   UNL     1       4.413   5.917  17.573  0.00  0.00    +0.000 A 
ATOM     19  C   UNL     1       3.310   5.480  18.323  0.00  0.00    +0.000 A 
ATOM     20  C   UNL     1       2.995   4.104  18.325  0.00  0.00    +0.000 A 
ATOM     21  C   UNL     1       2.066   3.178  18.892  0.00  0.00    +0.000 A 
ATOM     22  C   UNL     1       0.936   3.357  19.836  0.00  0.00    +0.000 C 
ATOM     23  N   UNL     1       2.290   1.932  18.447  0.00  0.00    +0.000 NA
ATOM     24  O   UNL     1       3.375   2.015  17.603  0.00  0.00    +0.000 OA
ATOM     25  C   UNL     1       3.800   3.301  17.528  0.00  0.00    +0.000 A 
ATOM     26  N   UNL     1       4.852   3.679  16.777  0.00  0.00    +0.000 NA
ENDBRANCH   1  19
TORSDOF 1
ENDMDL
MODEL 3
REMARK VINA RESULT:      -8.2      1.409      2.810
REMARK  Name = 
REMARK  3 active torsions:
REMARK  status: ('A' for Active; 'I' for Inactive)
REMARK    1  A    between atoms: C_1  and  C_2
REMARK    2  A    between atoms: C_4  and  C_5
REMARK    3  A    between atoms: C_20  and  C_21
REMARK                            x       y       z     vdW  Elec       q    Type
REMARK                         _______ _______ _______ _____ _____    ______ ____
ROOT
ATOM      1  C   UNL     1       2.225   6.940  19.569  0.00  0.00    +0.000 C 
ATOM      2  O   UNL     1       2.278   7.325  18.406  0.00  0.00    +0.000 OA
ATOM      3  N   UNL     1       1.731   7.634  20.656  0.00  0.00    +0.000 N 
ATOM      4  C   UNL     1       1.237   8.904  20.500  0.00  0.00    +0.000 A 
ATOM      5  N   UNL     1       1.051   9.562  19.389  0.00  0.00    +0.000 NA
ATOM      6  C   UNL     1       0.577  10.826  19.657  0.00  0.00    +0.000 A 
ATOM      7  C   UNL     1       0.280  11.804  18.689  0.00  0.00    +0.000 A 
ATOM      8  C   UNL     1      -0.172  13.049  19.110  0.00  0.00    +0.000 A 
ATOM      9  F   UNL     1      -0.455  13.982  18.192  0.00  0.00    +0.000 F 
ATOM     10  C   UNL     1      -0.328  13.332  20.459  0.00  0.00    +0.000 A 
ATOM     11  F   UNL     1      -0.758  14.544  20.839  0.00  0.00    +0.000 F 
ATOM     12  C   UNL     1      -0.046  12.381  21.442  0.00  0.00    +0.000 A 
ATOM     13  C   UNL     1       0.404  11.120  21.014  0.00  0.00    +0.000 A 
ATOM     14  S   UNL     1       0.828   9.721  21.939  0.00  0.00    +0.000 S 
ATOM     15  H   UNL     1       1.786   7.273  21.595  0.00  0.00    +0.000 HD
ENDROOT
BRANCH   1  19
ATOM     16  C   UNL     1       1.672   2.456  21.713  0.00  0.00    +0.000 C 
ATOM     17  C   UNL     1       2.454   3.420  20.868  0.00  0.00    +0.000 A 
ATOM     18  C   UNL     1       2.004   4.722  20.674  0.00  0.00    +0.000 A 
ATOM     19  C   UNL     1       2.737   5.588  19.847  0.00  0.00    +0.000 A 
ATOM     20  C   UNL     1       3.901   5.095  19.217  0.00  0.00    +0.000 A 
ATOM     21  C   UNL     1       4.934   5.504  18.318  0.00  0.00    +0.000 A 
ATOM     22  C   UNL     1       5.184   6.781  17.606  0.00  0.00    +0.000 C 
ATOM     23  N   UNL     1       5.826   4.520  18.125  0.00  0.00    +0.000 NA
ATOM     24  O   UNL     1       5.385   3.450  18.871  0.00  0.00    +0.000 OA
ATOM     25  C   UNL     1       4.242   3.784  19.521  0.00  0.00    +0.000 A 
ATOM     26  N   UNL     1       3.582   2.927  20.323  0.00  0.00    +0.000 NA
ENDBRANCH   1  19
TORSDOF 1
ENDMDL
MODEL 4
REMARK VINA RESULT:      -8.1      2.773      3.918
REMARK  Name = 
REMARK  3 active torsions:
REMARK  status: ('A' for Active; 'I' for Inactive)
REMARK    1  A    between atoms: C_1  and  C_2
REMARK    2  A    between atoms: C_4  and  C_5
REMARK    3  A    between atoms: C_20  and  C_21
REMARK                            x       y       z     vdW  Elec       q    Type
REMARK                         _______ _______ _______ _____ _____    ______ ____
ROOT
ATOM      1  C   UNL     1       4.009   5.766  17.948  0.00  0.00    +0.000 C 
ATOM      2  O   UNL     1       3.684   5.118  18.938  0.00  0.00    +0.000 OA
ATOM      3  N   UNL     1       3.600   7.042  17.615  0.00  0.00    +0.000 N 
ATOM      4  C   UNL     1       2.727   7.722  18.425  0.00  0.00    +0.000 A 
ATOM      5  N   UNL     1       2.275   7.367  19.597  0.00  0.00    +0.000 NA
ATOM      6  C   UNL     1       1.384   8.303  20.068  0.00  0.00    +0.000 A 
ATOM      7  C   UNL     1       0.699   8.227  21.295  0.00  0.00    +0.000 A 
ATOM      8  C   UNL     1      -0.191   9.240  21.631  0.00  0.00    +0.000 A 
ATOM      9  F   UNL     1      -0.844   9.171  22.798  0.00  0.00    +0.000 F 
ATOM     10  C   UNL     1      -0.409  10.310  20.776  0.00  0.00    +0.000 A 
ATOM     11  F   UNL     1      -1.279  11.270  21.121  0.00  0.00    +0.000 F 
ATOM     12  C   UNL     1       0.259  10.416  19.554  0.00  0.00    +0.000 A 
ATOM     13  C   UNL     1       1.164   9.395  19.219  0.00  0.00    +0.000 A 
ATOM     14  S   UNL     1       2.159   9.209  17.816  0.00  0.00    +0.000 S 
ATOM     15  H   UNL     1       3.860   7.481  16.746  0.00  0.00    +0.000 HD
ENDROOT
BRANCH   1  19
ATOM     16  C   UNL     1       5.028   4.016  13.376  0.00  0.00    +0.000 C 
ATOM     17  C   UNL     1       5.432   4.297  14.794  0.00  0.00    +0.000 A 
ATOM     18  C   UNL     1       4.522   4.833  15.700  0.00  0.00    +0.000 A 
ATOM     19  C   UNL     1       4.942   5.122  17.008  0.00  0.00    +0.000 A 
ATOM     20  C   UNL     1       6.288   4.879  17.355  0.00  0.00    +0.000 A 
ATOM     21  C   UNL     1       7.192   5.006  18.454  0.00  0.00    +0.000 A 
ATOM     22  C   UNL     1       7.014   5.530  19.831  0.00  0.00    +0.000 C 
ATOM     23  N   UNL     1       8.409   4.540  18.138  0.00  0.00    +0.000 NA
ATOM     24  O   UNL     1       8.332   4.121  16.829  0.00  0.00    +0.000 OA
ATOM     25  C   UNL     1       7.077   4.322  16.356  0.00  0.00    +0.000 A 
ATOM     26  N   UNL     1       6.712   4.010  15.099  0.00  0.00    +0.000 NA
ENDBRANCH   1  19
TORSDOF 1
ENDMDL
MODEL 5
REMARK VINA RESULT:      -7.7      1.238      1.238
REMARK  Name = 
REMARK  3 active torsions:
REMARK  status: ('A' for Active; 'I' for Inactive)
REMARK    1  A    between atoms: C_1  and  C_2
REMARK    2  A    between atoms: C_4  and  C_5
REMARK    3  A    between atoms: C_20  and  C_21
REMARK                            x       y       z     vdW  Elec       q    Type
REMARK                         _______ _______ _______ _____ _____    ______ ____
ROOT
ATOM      1  C   UNL     1       3.136   7.169  18.449  0.00  0.00    +0.000 C 
ATOM      2  O   UNL     1       2.914   7.843  17.448  0.00  0.00    +0.000 OA
ATOM      3  N   UNL     1       2.569   7.319  19.699  0.00  0.00    +0.000 N 
ATOM      4  C   UNL     1       1.655   8.317  19.928  0.00  0.00    +0.000 A 
ATOM      5  N   UNL     1       1.123   9.133  19.061  0.00  0.00    +0.000 NA
ATOM      6  C   UNL     1       0.281  10.019  19.695  0.00  0.00    +0.000 A 
ATOM      7  C   UNL     1      -0.446  11.044  19.060  0.00  0.00    +0.000 A 
ATOM      8  C   UNL     1      -1.243  11.879  19.834  0.00  0.00    +0.000 A 
ATOM      9  F   UNL     1      -1.936  12.855  19.234  0.00  0.00    +0.000 F 
ATOM     10  C   UNL     1      -1.323  11.715  21.209  0.00  0.00    +0.000 A 
ATOM     11  F   UNL     1      -2.093  12.540  21.933  0.00  0.00    +0.000 F 
ATOM     12  C   UNL     1      -0.617  10.705  21.866  0.00  0.00    +0.000 A 
ATOM     13  C   UNL     1       0.182   9.857  21.081  0.00  0.00    +0.000 A 
ATOM     14  S   UNL     1       1.167   8.514  21.550  0.00  0.00    +0.000 S 
ATOM     15  H   UNL     1       2.856   6.766  20.490  0.00  0.00    +0.000 HD
ENDROOT
BRANCH   1  19
ATOM     16  C   UNL     1       7.828   5.475  18.797  0.00  0.00    +0.000 C 
ATOM     17  C   UNL     1       6.373   5.258  18.500  0.00  0.00    +0.000 A 
ATOM     18  C   UNL     1       5.470   6.316  18.555  0.00  0.00    +0.000 A 
ATOM     19  C   UNL     1       4.110   6.073  18.311  0.00  0.00    +0.000 A 
ATOM     20  C   UNL     1       3.698   4.750  18.039  0.00  0.00    +0.000 A 
ATOM     21  C   UNL     1       2.520   3.989  17.765  0.00  0.00    +0.000 A 
ATOM     22  C   UNL     1       1.090   4.371  17.666  0.00  0.00    +0.000 C 
ATOM     23  N   UNL     1       2.816   2.697  17.552  0.00  0.00    +0.000 NA
ATOM     24  O   UNL     1       4.180   2.587  17.702  0.00  0.00    +0.000 OA
ATOM     25  C   UNL     1       4.710   3.801  17.994  0.00  0.00    +0.000 A 
ATOM     26  N   UNL     1       6.027   3.992  18.200  0.00  0.00    +0.000 NA
ENDBRANCH   1  19
TORSDOF 1
ENDMDL
MODEL 6
REMARK VINA RESULT:      -7.5      1.962      3.119
REMARK  Name = 
REMARK  3 active torsions:
REMARK  status: ('A' for Active; 'I' for Inactive)
REMARK    1  A    between atoms: C_1  and  C_2
REMARK    2  A    between atoms: C_4  and  C_5
REMARK    3  A    between atoms: C_20  and  C_21
REMARK                            x       y       z     vdW  Elec       q    Type
REMARK                         _______ _______ _______ _____ _____    ______ ____
ROOT
ATOM      1  C   UNL     1       3.023   7.057  18.123  0.00  0.00    +0.000 C 
ATOM      2  O   UNL     1       3.159   7.905  17.247  0.00  0.00    +0.000 OA
ATOM      3  N   UNL     1       2.347   7.194  19.319  0.00  0.00    +0.000 N 
ATOM      4  C   UNL     1       1.744   8.384  19.640  0.00  0.00    +0.000 A 
ATOM      5  N   UNL     1       1.610   9.444  18.892  0.00  0.00    +0.000 NA
ATOM      6  C   UNL     1       0.983  10.447  19.595  0.00  0.00    +0.000 A 
ATOM      7  C   UNL     1       0.691  11.730  19.094  0.00  0.00    +0.000 A 
ATOM      8  C   UNL     1       0.070  12.652  19.929  0.00  0.00    +0.000 A 
ATOM      9  F   UNL     1      -0.209  13.873  19.456  0.00  0.00    +0.000 F 
ATOM     10  C   UNL     1      -0.256  12.322  21.236  0.00  0.00    +0.000 A 
ATOM     11  F   UNL     1      -0.847  13.233  22.023  0.00  0.00    +0.000 F 
ATOM     12  C   UNL     1       0.016  11.057  21.760  0.00  0.00    +0.000 A 
ATOM     13  C   UNL     1       0.636  10.124  20.912  0.00  0.00    +0.000 A 
ATOM     14  S   UNL     1       1.102   8.486  21.216  0.00  0.00    +0.000 S 
ATOM     15  H   UNL     1       2.339   6.469  20.018  0.00  0.00    +0.000 HD
ENDROOT
BRANCH   1  19
ATOM     16  C   UNL     1       2.590   2.104  17.588  0.00  0.00    +0.000 C 
ATOM     17  C   UNL     1       3.419   3.356  17.603  0.00  0.00    +0.000 A 
ATOM     18  C   UNL     1       2.846   4.585  17.912  0.00  0.00    +0.000 A 
ATOM     19  C   UNL     1       3.640   5.743  17.878  0.00  0.00    +0.000 A 
ATOM     20  C   UNL     1       4.996   5.621  17.506  0.00  0.00    +0.000 A 
ATOM     21  C   UNL     1       6.164   6.416  17.294  0.00  0.00    +0.000 A 
ATOM     22  C   UNL     1       6.404   7.877  17.393  0.00  0.00    +0.000 C 
ATOM     23  N   UNL     1       7.216   5.653  16.960  0.00  0.00    +0.000 NA
ATOM     24  O   UNL     1       6.754   4.356  16.926  0.00  0.00    +0.000 OA
ATOM     25  C   UNL     1       5.436   4.330  17.246  0.00  0.00    +0.000 A 
ATOM     26  N   UNL     1       4.718   3.192  17.287  0.00  0.00    +0.000 NA
ENDBRANCH   1  19
TORSDOF 1
ENDMDL
MODEL 7
REMARK VINA RESULT:      -7.4      4.520      8.385
REMARK  Name = 
REMARK  3 active torsions:
REMARK  status: ('A' for Active; 'I' for Inactive)
REMARK    1  A    between atoms: C_1  and  C_2
REMARK    2  A    between atoms: C_4  and  C_5
REMARK    3  A    between atoms: C_20  and  C_21
REMARK                            x       y       z     vdW  Elec       q    Type
REMARK                         _______ _______ _______ _____ _____    ______ ____
ROOT
ATOM      1  C   UNL     1       1.442   9.866  18.822  0.00  0.00    +0.000 C 
ATOM      2  O   UNL     1       1.937   9.919  17.701  0.00  0.00    +0.000 OA
ATOM      3  N   UNL     1       1.465   8.796  19.695  0.00  0.00    +0.000 N 
ATOM      4  C   UNL     1       2.080   7.624  19.336  0.00  0.00    +0.000 A 
ATOM      5  N   UNL     1       2.789   7.383  18.267  0.00  0.00    +0.000 NA
ATOM      6  C   UNL     1       3.200   6.070  18.253  0.00  0.00    +0.000 A 
ATOM      7  C   UNL     1       3.971   5.471  17.239  0.00  0.00    +0.000 A 
ATOM      8  C   UNL     1       4.294   4.124  17.348  0.00  0.00    +0.000 A 
ATOM      9  F   UNL     1       5.027   3.551  16.386  0.00  0.00    +0.000 F 
ATOM     10  C   UNL     1       3.865   3.374  18.434  0.00  0.00    +0.000 A 
ATOM     11  F   UNL     1       4.183   2.074  18.511  0.00  0.00    +0.000 F 
ATOM     12  C   UNL     1       3.102   3.941  19.457  0.00  0.00    +0.000 A 
ATOM     13  C   UNL     1       2.784   5.305  19.349  0.00  0.00    +0.000 A 
ATOM     14  S   UNL     1       1.882   6.323  20.419  0.00  0.00    +0.000 S 
ATOM     15  H   UNL     1       0.974   8.808  20.574  0.00  0.00    +0.000 HD
ENDROOT
BRANCH   1  19
ATOM     16  C   UNL     1       1.507  14.169  21.368  0.00  0.00    +0.000 C 
ATOM     17  C   UNL     1       0.795  13.158  20.517  0.00  0.00    +0.000 A 
ATOM     18  C   UNL     1       1.429  11.981  20.131  0.00  0.00    +0.000 A 
ATOM     19  C   UNL     1       0.750  11.074  19.302  0.00  0.00    +0.000 A 
ATOM     20  C   UNL     1      -0.552  11.402  18.866  0.00  0.00    +0.000 A 
ATOM     21  C   UNL     1      -1.609  10.895  18.049  0.00  0.00    +0.000 A 
ATOM     22  C   UNL     1      -1.731   9.661  17.234  0.00  0.00    +0.000 C 
ATOM     23  N   UNL     1      -2.671  11.714  18.067  0.00  0.00    +0.000 NA
ATOM     24  O   UNL     1      -2.324  12.776  18.872  0.00  0.00    +0.000 OA
ATOM     25  C   UNL     1      -1.066  12.598  19.347  0.00  0.00    +0.000 A 
ATOM     26  N   UNL     1      -0.460  13.486  20.159  0.00  0.00    +0.000 NA
ENDBRANCH   1  19
TORSDOF 1
ENDMDL
MODEL 8
REMARK VINA RESULT:      -7.3      4.510      8.546
REMARK  Name = 
REMARK  3 active torsions:
REMARK  status: ('A' for Active; 'I' for Inactive)
REMARK    1  A    between atoms: C_1  and  C_2
REMARK    2  A    between atoms: C_4  and  C_5
REMARK    3  A    between atoms: C_20  and  C_21
REMARK                            x       y       z     vdW  Elec       q    Type
REMARK                         _______ _______ _______ _____ _____    ______ ____
ROOT
ATOM      1  C   UNL     1       0.683  10.158  19.056  0.00  0.00    +0.000 C 
ATOM      2  O   UNL     1       1.129  10.562  17.987  0.00  0.00    +0.000 OA
ATOM      3  N   UNL     1       1.029   8.997  19.719  0.00  0.00    +0.000 N 
ATOM      4  C   UNL     1       1.959   8.144  19.180  0.00  0.00    +0.000 A 
ATOM      5  N   UNL     1       2.696   8.325  18.119  0.00  0.00    +0.000 NA
ATOM      6  C   UNL     1       3.474   7.215  17.884  0.00  0.00    +0.000 A 
ATOM      7  C   UNL     1       4.377   7.068  16.813  0.00  0.00    +0.000 A 
ATOM      8  C   UNL     1       5.083   5.878  16.689  0.00  0.00    +0.000 A 
ATOM      9  F   UNL     1       5.943   5.734  15.672  0.00  0.00    +0.000 F 
ATOM     10  C   UNL     1       4.906   4.846  17.599  0.00  0.00    +0.000 A 
ATOM     11  F   UNL     1       5.594   3.705  17.452  0.00  0.00    +0.000 F 
ATOM     12  C   UNL     1       4.022   4.964  18.674  0.00  0.00    +0.000 A 
ATOM     13  C   UNL     1       3.314   6.171  18.801  0.00  0.00    +0.000 A 
ATOM     14  S   UNL     1       2.165   6.662  19.998  0.00  0.00    +0.000 S 
ATOM     15  H   UNL     1       0.566   8.700  20.563  0.00  0.00    +0.000 HD
ENDROOT
BRANCH   1  19
ATOM     16  C   UNL     1      -0.605  13.307  22.720  0.00  0.00    +0.000 C 
ATOM     17  C   UNL     1      -0.937  12.533  21.477  0.00  0.00    +0.000 A 
ATOM     18  C   UNL     1      -0.002  11.679  20.901  0.00  0.00    +0.000 A 
ATOM     19  C   UNL     1      -0.328  10.999  19.717  0.00  0.00    +0.000 A 
ATOM     20  C   UNL     1      -1.594  11.227  19.134  0.00  0.00    +0.000 A 
ATOM     21  C   UNL     1      -2.378  10.850  18.001  0.00  0.00    +0.000 A 
ATOM     22  C   UNL     1      -2.096   9.958  16.849  0.00  0.00    +0.000 C 
ATOM     23  N   UNL     1      -3.591  11.423  18.037  0.00  0.00    +0.000 NA
ATOM     24  O   UNL     1      -3.615  12.197  19.175  0.00  0.00    +0.000 OA
ATOM     25  C   UNL     1      -2.432  12.088  19.830  0.00  0.00    +0.000 A 
ATOM     26  N   UNL     1      -2.169  12.743  20.977  0.00  0.00    +0.000 NA
ENDBRANCH   1  19
TORSDOF 1
ENDMDL
MODEL 9
REMARK VINA RESULT:      -7.3      2.770      3.837
REMARK  Name = 
REMARK  3 active torsions:
REMARK  status: ('A' for Active; 'I' for Inactive)
REMARK    1  A    between atoms: C_1  and  C_2
REMARK    2  A    between atoms: C_4  and  C_5
REMARK    3  A    between atoms: C_20  and  C_21
REMARK                            x       y       z     vdW  Elec       q    Type
REMARK                         _______ _______ _______ _____ _____    ______ ____
ROOT
ATOM      1  C   UNL     1       4.261   6.568  17.038  0.00  0.00    +0.000 C 
ATOM      2  O   UNL     1       4.174   7.686  16.542  0.00  0.00    +0.000 OA
ATOM      3  N   UNL     1       3.602   6.097  18.156  0.00  0.00    +0.000 N 
ATOM      4  C   UNL     1       2.745   6.914  18.849  0.00  0.00    +0.000 A 
ATOM      5  N   UNL     1       2.348   8.115  18.532  0.00  0.00    +0.000 NA
ATOM      6  C   UNL     1       1.521   8.618  19.510  0.00  0.00    +0.000 A 
ATOM      7  C   UNL     1       0.925   9.893  19.493  0.00  0.00    +0.000 A 
ATOM      8  C   UNL     1       0.126  10.275  20.565  0.00  0.00    +0.000 A 
ATOM      9  F   UNL     1      -0.442  11.487  20.552  0.00  0.00    +0.000 F 
ATOM     10  C   UNL     1      -0.082   9.422  21.638  0.00  0.00    +0.000 A 
ATOM     11  F   UNL     1      -0.850   9.818  22.663  0.00  0.00    +0.000 F 
ATOM     12  C   UNL     1       0.492   8.149  21.681  0.00  0.00    +0.000 A 
ATOM     13  C   UNL     1       1.292   7.762  20.593  0.00  0.00    +0.000 A 
ATOM     14  S   UNL     1       2.136   6.278  20.309  0.00  0.00    +0.000 S 
ATOM     15  H   UNL     1       3.781   5.183  18.541  0.00  0.00    +0.000 HD
ENDROOT
BRANCH   1  19
ATOM     16  C   UNL     1       5.556   3.944  12.983  0.00  0.00    +0.000 C 
ATOM     17  C   UNL     1       5.791   4.365  14.405  0.00  0.00    +0.000 A 
ATOM     18  C   UNL     1       4.894   5.206  15.055  0.00  0.00    +0.000 A 
ATOM     19  C   UNL     1       5.162   5.613  16.371  0.00  0.00    +0.000 A 
ATOM     20  C   UNL     1       6.354   5.171  16.985  0.00  0.00    +0.000 A 
ATOM     21  C   UNL     1       7.085   5.293  18.207  0.00  0.00    +0.000 A 
ATOM     22  C   UNL     1       6.819   6.055  19.452  0.00  0.00    +0.000 C 
ATOM     23  N   UNL     1       8.204   4.553  18.179  0.00  0.00    +0.000 NA
ATOM     24  O   UNL     1       8.237   3.954  16.940  0.00  0.00    +0.000 OA
ATOM     25  C   UNL     1       7.144   4.318  16.225  0.00  0.00    +0.000 A 
ATOM     26  N   UNL     1       6.915   3.886  14.971  0.00  0.00    +0.000 NA
ENDBRANCH   1  19
TORSDOF 1
ENDMDL
