MODEL 1
REMARK VINA RESULT:      -9.1      0.000      0.000
REMARK  Name = 
REMARK  3 active torsions:
REMARK  status: ('A' for Active; 'I' for Inactive)
REMARK    1  A    between atoms: C_2  and  C_3
REMARK    2  A    between atoms: C_5  and  C_6
REMARK    3  A    between atoms: C_18  and  C_19
REMARK                            x       y       z     vdW  Elec       q    Type
REMARK                         _______ _______ _______ _____ _____    ______ ____
ROOT
ATOM      1  O   UNL     1       7.802   4.565  17.485  0.00  0.00    +0.000 OA
ATOM      2  C   UNL     1       7.041   5.447  17.886  0.00  0.00    +0.000 C 
ATOM      3  N   UNL     1       5.786   5.121  18.437  0.00  0.00    +0.000 N 
ATOM      4  C   UNL     1       5.339   3.732  18.400  0.00  0.00    +0.000 C 
ATOM      5  C   UNL     1       3.935   3.624  17.802  0.00  0.00    +0.000 C 
ATOM      6  C   UNL     1       2.944   4.586  18.471  0.00  0.00    +0.000 C 
ATOM      7  C   UNL     1       3.497   6.022  18.454  0.00  0.00    +0.000 C 
ATOM      8  C   UNL     1       4.863   6.032  19.150  0.00  0.00    +0.000 C 
ENDROOT
BRANCH   7   9
ATOM      9  C   UNL     1       2.518   7.031  19.009  0.00  0.00    +0.000 A 
ATOM     10  N   UNL     1       2.180   8.185  18.466  0.00  0.00    +0.000 NA
ATOM     11  C   UNL     1       1.477   8.962  19.390  0.00  0.00    +0.000 A 
ATOM     12  C   UNL     1       1.020  10.288  19.212  0.00  0.00    +0.000 A 
ATOM     13  C   UNL     1       0.400  10.967  20.274  0.00  0.00    +0.000 A 
ATOM     14  C   UNL     1       0.217  10.341  21.503  0.00  0.00    +0.000 A 
ATOM     15  C   UNL     1       0.622   9.017  21.692  0.00  0.00    +0.000 A 
ATOM     16  C   UNL     1       1.247   8.349  20.623  0.00  0.00    +0.000 A 
ATOM     17  S   UNL     1       1.852   6.743  20.574  0.00  0.00    +0.000 S 
ENDBRANCH   7   9
BRANCH   2  18
ATOM     18  C   UNL     1       7.464   6.860  17.815  0.00  0.00    +0.000 A 
ATOM     19  C   UNL     1       8.373   7.504  18.705  0.00  0.00    +0.000 A 
ATOM     20  C   UNL     1       8.406   8.834  18.326  0.00  0.00    +0.000 A 
ATOM     21  N   UNL     1       7.607   8.890  17.217  0.00  0.00    +0.000 N 
ATOM     22  N   UNL     1       7.076   7.717  16.850  0.00  0.00    +0.000 NA
ATOM     23  H   UNL     1       7.392   9.706  16.655  0.00  0.00    +0.000 HD
BRANCH  20  24
ATOM     24  C   UNL     1       9.103  10.002  18.857  0.00  0.00    +0.000 A 
ATOM     25  C   UNL     1       9.756  10.892  17.996  0.00  0.00    +0.000 A 
ATOM     26  C   UNL     1      10.376  12.040  18.499  0.00  0.00    +0.000 A 
ATOM     27  C   UNL     1      10.359  12.305  19.867  0.00  0.00    +0.000 A 
ATOM     28  C   UNL     1       9.735  11.415  20.737  0.00  0.00    +0.000 A 
ATOM     29  C   UNL     1       9.115  10.269  20.235  0.00  0.00    +0.000 A 
ENDBRANCH  20  24
ENDBRANCH   2  18
TORSDOF 3
ENDMDL
MODEL 2
REMARK VINA RESULT:      -8.6      0.918      1.579
REMARK  Name = 
REMARK  3 active torsions:
REMARK  status: ('A' for Active; 'I' for Inactive)
REMARK    1  A    between atoms: C_2  and  C_3
REMARK    2  A    between atoms: C_5  and  C_6
REMARK    3  A    between atoms: C_18  and  C_19
REMARK                            x       y       z     vdW  Elec       q    Type
REMARK                         _______ _______ _______ _____ _____    ______ ____
ROOT
ATOM      1  O   UNL     1       7.539   4.351  17.815  0.00  0.00    +0.000 OA
ATOM      2  C   UNL     1       6.873   5.342  18.118  0.00  0.00    +0.000 C 
ATOM      3  N   UNL     1       5.587   5.203  18.678  0.00  0.00    +0.000 N 
ATOM      4  C   UNL     1       4.997   3.871  18.768  0.00  0.00    +0.000 C 
ATOM      5  C   UNL     1       3.593   3.851  18.162  0.00  0.00    +0.000 C 
ATOM      6  C   UNL     1       2.705   4.972  18.720  0.00  0.00    +0.000 C 
ATOM      7  C   UNL     1       3.405   6.334  18.573  0.00  0.00    +0.000 C 
ATOM      8  C   UNL     1       4.761   6.271  19.285  0.00  0.00    +0.000 C 
ENDROOT
BRANCH   7   9
ATOM      9  C   UNL     1       2.535   7.489  19.012  0.00  0.00    +0.000 A 
ATOM     10  N   UNL     1       1.995   7.663  20.204  0.00  0.00    +0.000 NA
ATOM     11  C   UNL     1       1.040   8.682  20.152  0.00  0.00    +0.000 A 
ATOM     12  C   UNL     1       0.192   9.104  21.201  0.00  0.00    +0.000 A 
ATOM     13  C   UNL     1      -0.781  10.089  20.967  0.00  0.00    +0.000 A 
ATOM     14  C   UNL     1      -0.913  10.667  19.707  0.00  0.00    +0.000 A 
ATOM     15  C   UNL     1      -0.059  10.297  18.665  0.00  0.00    +0.000 A 
ATOM     16  C   UNL     1       0.908   9.306  18.911  0.00  0.00    +0.000 A 
ATOM     17  S   UNL     1       2.068   8.652  17.827  0.00  0.00    +0.000 S 
ENDBRANCH   7   9
BRANCH   2  18
ATOM     18  C   UNL     1       7.442   6.689  17.917  0.00  0.00    +0.000 A 
ATOM     19  C   UNL     1       8.217   7.417  18.867  0.00  0.00    +0.000 A 
ATOM     20  C   UNL     1       8.459   8.656  18.300  0.00  0.00    +0.000 A 
ATOM     21  N   UNL     1       7.905   8.570  17.051  0.00  0.00    +0.000 N 
ATOM     22  N   UNL     1       7.341   7.389  16.770  0.00  0.00    +0.000 NA
ATOM     23  H   UNL     1       7.888   9.288  16.336  0.00  0.00    +0.000 HD
BRANCH  20  24
ATOM     24  C   UNL     1       9.151   9.849  18.776  0.00  0.00    +0.000 A 
ATOM     25  C   UNL     1       9.170  10.163  20.141  0.00  0.00    +0.000 A 
ATOM     26  C   UNL     1       9.880  11.275  20.605  0.00  0.00    +0.000 A 
ATOM     27  C   UNL     1      10.569  12.090  19.709  0.00  0.00    +0.000 A 
ATOM     28  C   UNL     1      10.538  11.804  18.347  0.00  0.00    +0.000 A 
ATOM     29  C   UNL     1       9.830  10.693  17.884  0.00  0.00    +0.000 A 
ENDBRANCH  20  24
ENDBRANCH   2  18
TORSDOF 3
ENDMDL
MODEL 3
REMARK VINA RESULT:      -8.6      4.382      5.413
REMARK  Name = 
REMARK  3 active torsions:
REMARK  status: ('A' for Active; 'I' for Inactive)
REMARK    1  A    between atoms: C_2  and  C_3
REMARK    2  A    between atoms: C_5  and  C_6
REMARK    3  A    between atoms: C_18  and  C_19
REMARK                            x       y       z     vdW  Elec       q    Type
REMARK                         _______ _______ _______ _____ _____    ______ ____
ROOT
ATOM      1  O   UNL     1       4.344   1.601  19.180  0.00  0.00    +0.000 OA
ATOM      2  C   UNL     1       4.313   2.825  19.043  0.00  0.00    +0.000 C 
ATOM      3  N   UNL     1       3.493   3.622  19.866  0.00  0.00    +0.000 N 
ATOM      4  C   UNL     1       2.575   2.967  20.793  0.00  0.00    +0.000 C 
ATOM      5  C   UNL     1       1.154   3.513  20.634  0.00  0.00    +0.000 C 
ATOM      6  C   UNL     1       1.112   5.046  20.685  0.00  0.00    +0.000 C 
ATOM      7  C   UNL     1       2.103   5.643  19.670  0.00  0.00    +0.000 C 
ATOM      8  C   UNL     1       3.504   5.099  19.971  0.00  0.00    +0.000 C 
ENDROOT
BRANCH   7   9
ATOM      9  C   UNL     1       2.032   7.152  19.602  0.00  0.00    +0.000 A 
ATOM     10  N   UNL     1       1.529   7.960  20.515  0.00  0.00    +0.000 NA
ATOM     11  C   UNL     1       1.384   9.246  19.987  0.00  0.00    +0.000 A 
ATOM     12  C   UNL     1       0.805  10.366  20.626  0.00  0.00    +0.000 A 
ATOM     13  C   UNL     1       0.654  11.575  19.927  0.00  0.00    +0.000 A 
ATOM     14  C   UNL     1       1.082  11.687  18.608  0.00  0.00    +0.000 A 
ATOM     15  C   UNL     1       1.695  10.607  17.967  0.00  0.00    +0.000 A 
ATOM     16  C   UNL     1       1.836   9.401  18.676  0.00  0.00    +0.000 A 
ATOM     17  S   UNL     1       2.531   7.924  18.143  0.00  0.00    +0.000 S 
ENDBRANCH   7   9
BRANCH   2  18
ATOM     18  C   UNL     1       5.167   3.464  18.023  0.00  0.00    +0.000 A 
ATOM     19  C   UNL     1       4.982   3.386  16.611  0.00  0.00    +0.000 A 
ATOM     20  C   UNL     1       6.056   4.049  16.043  0.00  0.00    +0.000 A 
ATOM     21  N   UNL     1       6.753   4.541  17.113  0.00  0.00    +0.000 N 
ATOM     22  N   UNL     1       6.218   4.260  18.307  0.00  0.00    +0.000 NA
ATOM     23  H   UNL     1       7.605   5.090  17.091  0.00  0.00    +0.000 HD
BRANCH  20  24
ATOM     24  C   UNL     1       6.461   4.282  14.661  0.00  0.00    +0.000 A 
ATOM     25  C   UNL     1       7.471   5.205  14.363  0.00  0.00    +0.000 A 
ATOM     26  C   UNL     1       7.899   5.389  13.044  0.00  0.00    +0.000 A 
ATOM     27  C   UNL     1       7.315   4.660  12.009  0.00  0.00    +0.000 A 
ATOM     28  C   UNL     1       6.293   3.757  12.289  0.00  0.00    +0.000 A 
ATOM     29  C   UNL     1       5.867   3.573  13.606  0.00  0.00    +0.000 A 
ENDBRANCH  20  24
ENDBRANCH   2  18
TORSDOF 3
ENDMDL
MODEL 4
REMARK VINA RESULT:      -8.4      1.164      1.418
REMARK  Name = 
REMARK  3 active torsions:
REMARK  status: ('A' for Active; 'I' for Inactive)
REMARK    1  A    between atoms: C_2  and  C_3
REMARK    2  A    between atoms: C_5  and  C_6
REMARK    3  A    between atoms: C_18  and  C_19
REMARK                            x       y       z     vdW  Elec       q    Type
REMARK                         _______ _______ _______ _____ _____    ______ ____
ROOT
ATOM      1  O   UNL     1       7.713   4.416  16.976  0.00  0.00    +0.000 OA
ATOM      2  C   UNL     1       7.006   5.224  17.582  0.00  0.00    +0.000 C 
ATOM      3  N   UNL     1       5.660   4.928  17.873  0.00  0.00    +0.000 N 
ATOM      4  C   UNL     1       5.072   3.708  17.327  0.00  0.00    +0.000 C 
ATOM      5  C   UNL     1       3.758   4.009  16.603  0.00  0.00    +0.000 C 
ATOM      6  C   UNL     1       2.798   4.839  17.466  0.00  0.00    +0.000 C 
ATOM      7  C   UNL     1       3.503   6.104  17.986  0.00  0.00    +0.000 C 
ATOM      8  C   UNL     1       4.755   5.686  18.765  0.00  0.00    +0.000 C 
ENDROOT
BRANCH   7   9
ATOM      9  C   UNL     1       2.575   7.013  18.759  0.00  0.00    +0.000 A 
ATOM     10  N   UNL     1       2.103   8.181  18.364  0.00  0.00    +0.000 NA
ATOM     11  C   UNL     1       1.515   8.848  19.442  0.00  0.00    +0.000 A 
ATOM     12  C   UNL     1       0.974  10.154  19.438  0.00  0.00    +0.000 A 
ATOM     13  C   UNL     1       0.494  10.720  20.631  0.00  0.00    +0.000 A 
ATOM     14  C   UNL     1       0.534  10.001  21.821  0.00  0.00    +0.000 A 
ATOM     15  C   UNL     1       1.025   8.693  21.843  0.00  0.00    +0.000 A 
ATOM     16  C   UNL     1       1.508   8.139  20.644  0.00  0.00    +0.000 A 
ATOM     17  S   UNL     1       2.173   6.578  20.379  0.00  0.00    +0.000 S 
ENDBRANCH   7   9
BRANCH   2  18
ATOM     18  C   UNL     1       7.588   6.504  18.032  0.00  0.00    +0.000 A 
ATOM     19  C   UNL     1       7.438   7.763  17.379  0.00  0.00    +0.000 A 
ATOM     20  C   UNL     1       8.218   8.660  18.088  0.00  0.00    +0.000 A 
ATOM     21  N   UNL     1       8.705   7.929  19.137  0.00  0.00    +0.000 N 
ATOM     22  N   UNL     1       8.301   6.653  19.166  0.00  0.00    +0.000 NA
ATOM     23  H   UNL     1       9.317   8.251  19.879  0.00  0.00    +0.000 HD
BRANCH  20  24
ATOM     24  C   UNL     1       8.516  10.077  17.907  0.00  0.00    +0.000 A 
ATOM     25  C   UNL     1       7.553  10.944  17.375  0.00  0.00    +0.000 A 
ATOM     26  C   UNL     1       7.818  12.312  17.253  0.00  0.00    +0.000 A 
ATOM     27  C   UNL     1       9.052  12.825  17.651  0.00  0.00    +0.000 A 
ATOM     28  C   UNL     1      10.027  11.970  18.157  0.00  0.00    +0.000 A 
ATOM     29  C   UNL     1       9.762  10.605  18.280  0.00  0.00    +0.000 A 
ENDBRANCH  20  24
ENDBRANCH   2  18
TORSDOF 3
ENDMDL
MODEL 5
REMARK VINA RESULT:      -8.2      1.427      1.857
REMARK  Name = 
REMARK  3 active torsions:
REMARK  status: ('A' for Active; 'I' for Inactive)
REMARK    1  A    between atoms: C_2  and  C_3
REMARK    2  A    between atoms: C_5  and  C_6
REMARK    3  A    between atoms: C_18  and  C_19
REMARK                            x       y       z     vdW  Elec       q    Type
REMARK                         _______ _______ _______ _____ _____    ______ ____
ROOT
ATOM      1  O   UNL     1       7.563   4.615  16.925  0.00  0.00    +0.000 OA
ATOM      2  C   UNL     1       6.929   5.449  17.574  0.00  0.00    +0.000 C 
ATOM      3  N   UNL     1       5.586   5.215  17.932  0.00  0.00    +0.000 N 
ATOM      4  C   UNL     1       4.912   4.032  17.405  0.00  0.00    +0.000 C 
ATOM      5  C   UNL     1       3.579   4.406  16.754  0.00  0.00    +0.000 C 
ATOM      6  C   UNL     1       2.706   5.271  17.673  0.00  0.00    +0.000 C 
ATOM      7  C   UNL     1       3.498   6.494  18.169  0.00  0.00    +0.000 C 
ATOM      8  C   UNL     1       4.767   6.006  18.878  0.00  0.00    +0.000 C 
ENDROOT
BRANCH   7   9
ATOM      9  C   UNL     1       2.657   7.438  18.998  0.00  0.00    +0.000 A 
ATOM     10  N   UNL     1       2.252   7.252  20.240  0.00  0.00    +0.000 NA
ATOM     11  C   UNL     1       1.275   8.194  20.571  0.00  0.00    +0.000 A 
ATOM     12  C   UNL     1       0.541   8.269  21.777  0.00  0.00    +0.000 A 
ATOM     13  C   UNL     1      -0.474   9.228  21.925  0.00  0.00    +0.000 A 
ATOM     14  C   UNL     1      -0.760  10.119  20.895  0.00  0.00    +0.000 A 
ATOM     15  C   UNL     1      -0.022  10.093  19.709  0.00  0.00    +0.000 A 
ATOM     16  C   UNL     1       0.989   9.125  19.571  0.00  0.00    +0.000 A 
ATOM     17  S   UNL     1       2.033   8.854  18.235  0.00  0.00    +0.000 S 
ENDBRANCH   7   9
BRANCH   2  18
ATOM     18  C   UNL     1       7.595   6.693  18.007  0.00  0.00    +0.000 A 
ATOM     19  C   UNL     1       7.469   7.968  17.379  0.00  0.00    +0.000 A 
ATOM     20  C   UNL     1       8.329   8.816  18.053  0.00  0.00    +0.000 A 
ATOM     21  N   UNL     1       8.839   8.048  19.064  0.00  0.00    +0.000 N 
ATOM     22  N   UNL     1       8.376   6.792  19.100  0.00  0.00    +0.000 NA
ATOM     23  H   UNL     1       9.506   8.329  19.774  0.00  0.00    +0.000 HD
BRANCH  20  24
ATOM     24  C   UNL     1       8.685  10.220  17.872  0.00  0.00    +0.000 A 
ATOM     25  C   UNL     1       7.722  11.150  17.461  0.00  0.00    +0.000 A 
ATOM     26  C   UNL     1       8.047  12.505  17.342  0.00  0.00    +0.000 A 
ATOM     27  C   UNL     1       9.341  12.942  17.622  0.00  0.00    +0.000 A 
ATOM     28  C   UNL     1      10.314  12.025  18.008  0.00  0.00    +0.000 A 
ATOM     29  C   UNL     1       9.989  10.673  18.128  0.00  0.00    +0.000 A 
ENDBRANCH  20  24
ENDBRANCH   2  18
TORSDOF 3
ENDMDL
MODEL 6
REMARK VINA RESULT:      -8.0      1.261      1.923
REMARK  Name = 
REMARK  3 active torsions:
REMARK  status: ('A' for Active; 'I' for Inactive)
REMARK    1  A    between atoms: C_2  and  C_3
REMARK    2  A    between atoms: C_5  and  C_6
REMARK    3  A    between atoms: C_18  and  C_19
REMARK                            x       y       z     vdW  Elec       q    Type
REMARK                         _______ _______ _______ _____ _____    ______ ____
ROOT
ATOM      1  O   UNL     1       6.284   3.542  16.681  0.00  0.00    +0.000 OA
ATOM      2  C   UNL     1       5.895   4.589  17.203  0.00  0.00    +0.000 C 
ATOM      3  N   UNL     1       4.687   4.628  17.927  0.00  0.00    +0.000 N 
ATOM      4  C   UNL     1       3.831   3.446  17.935  0.00  0.00    +0.000 C 
ATOM      5  C   UNL     1       2.395   3.807  17.549  0.00  0.00    +0.000 C 
ATOM      6  C   UNL     1       1.852   4.984  18.371  0.00  0.00    +0.000 C 
ATOM      7  C   UNL     1       2.815   6.181  18.294  0.00  0.00    +0.000 C 
ATOM      8  C   UNL     1       4.198   5.734  18.781  0.00  0.00    +0.000 C 
ENDROOT
BRANCH   7   9
ATOM      9  C   UNL     1       2.282   7.406  19.001  0.00  0.00    +0.000 A 
ATOM     10  N   UNL     1       1.948   7.500  20.274  0.00  0.00    +0.000 NA
ATOM     11  C   UNL     1       1.242   8.686  20.497  0.00  0.00    +0.000 A 
ATOM     12  C   UNL     1       0.645   9.104  21.708  0.00  0.00    +0.000 A 
ATOM     13  C   UNL     1      -0.109  10.288  21.750  0.00  0.00    +0.000 A 
ATOM     14  C   UNL     1      -0.267  11.066  20.606  0.00  0.00    +0.000 A 
ATOM     15  C   UNL     1       0.347  10.696  19.407  0.00  0.00    +0.000 A 
ATOM     16  C   UNL     1       1.095   9.506  19.377  0.00  0.00    +0.000 A 
ATOM     17  S   UNL     1       1.938   8.807  18.054  0.00  0.00    +0.000 S 
ENDBRANCH   7   9
BRANCH   2  18
ATOM     18  C   UNL     1       6.722   5.807  17.092  0.00  0.00    +0.000 A 
ATOM     19  C   UNL     1       6.978   6.739  18.140  0.00  0.00    +0.000 A 
ATOM     20  C   UNL     1       7.715   7.764  17.572  0.00  0.00    +0.000 A 
ATOM     21  N   UNL     1       7.922   7.357  16.282  0.00  0.00    +0.000 N 
ATOM     22  N   UNL     1       7.392   6.166  15.979  0.00  0.00    +0.000 NA
ATOM     23  H   UNL     1       8.430   7.850  15.557  0.00  0.00    +0.000 HD
BRANCH  20  24
ATOM     24  C   UNL     1       8.247   9.016  18.101  0.00  0.00    +0.000 A 
ATOM     25  C   UNL     1       8.960   9.033  19.306  0.00  0.00    +0.000 A 
ATOM     26  C   UNL     1       9.518  10.223  19.784  0.00  0.00    +0.000 A 
ATOM     27  C   UNL     1       9.359  11.409  19.070  0.00  0.00    +0.000 A 
ATOM     28  C   UNL     1       8.630  11.411  17.884  0.00  0.00    +0.000 A 
ATOM     29  C   UNL     1       8.075  10.223  17.405  0.00  0.00    +0.000 A 
ENDBRANCH  20  24
ENDBRANCH   2  18
TORSDOF 3
ENDMDL
MODEL 7
REMARK VINA RESULT:      -7.9      1.386      1.918
REMARK  Name = 
REMARK  3 active torsions:
REMARK  status: ('A' for Active; 'I' for Inactive)
REMARK    1  A    between atoms: C_2  and  C_3
REMARK    2  A    between atoms: C_5  and  C_6
REMARK    3  A    between atoms: C_18  and  C_19
REMARK                            x       y       z     vdW  Elec       q    Type
REMARK                         _______ _______ _______ _____ _____    ______ ____
ROOT
ATOM      1  O   UNL     1       6.946   4.183  17.093  0.00  0.00    +0.000 OA
ATOM      2  C   UNL     1       6.412   5.088  17.737  0.00  0.00    +0.000 C 
ATOM      3  N   UNL     1       5.057   5.004  18.113  0.00  0.00    +0.000 N 
ATOM      4  C   UNL     1       4.254   3.893  17.610  0.00  0.00    +0.000 C 
ATOM      5  C   UNL     1       2.961   4.399  16.967  0.00  0.00    +0.000 C 
ATOM      6  C   UNL     1       2.196   5.364  17.883  0.00  0.00    +0.000 C 
ATOM      7  C   UNL     1       3.120   6.501  18.353  0.00  0.00    +0.000 C 
ATOM      8  C   UNL     1       4.338   5.890  19.056  0.00  0.00    +0.000 C 
ENDROOT
BRANCH   7   9
ATOM      9  C   UNL     1       2.395   7.541  19.178  0.00  0.00    +0.000 A 
ATOM     10  N   UNL     1       2.035   7.435  20.443  0.00  0.00    +0.000 NA
ATOM     11  C   UNL     1       1.150   8.464  20.775  0.00  0.00    +0.000 A 
ATOM     12  C   UNL     1       0.481   8.644  22.008  0.00  0.00    +0.000 A 
ATOM     13  C   UNL     1      -0.448   9.686  22.159  0.00  0.00    +0.000 A 
ATOM     14  C   UNL     1      -0.711  10.557  21.106  0.00  0.00    +0.000 A 
ATOM     15  C   UNL     1      -0.033  10.427  19.892  0.00  0.00    +0.000 A 
ATOM     16  C   UNL     1       0.892   9.376  19.751  0.00  0.00    +0.000 A 
ATOM     17  S   UNL     1       1.849   8.972  18.384  0.00  0.00    +0.000 S 
ENDBRANCH   7   9
BRANCH   2  18
ATOM     18  C   UNL     1       7.212   6.260  18.145  0.00  0.00    +0.000 A 
ATOM     19  C   UNL     1       7.050   7.591  17.658  0.00  0.00    +0.000 A 
ATOM     20  C   UNL     1       8.061   8.338  18.235  0.00  0.00    +0.000 A 
ATOM     21  N   UNL     1       8.697   7.460  19.070  0.00  0.00    +0.000 N 
ATOM     22  N   UNL     1       8.179   6.226  19.084  0.00  0.00    +0.000 NA
ATOM     23  H   UNL     1       9.493   7.648  19.669  0.00  0.00    +0.000 HD
BRANCH  20  24
ATOM     24  C   UNL     1       8.457   9.738  18.111  0.00  0.00    +0.000 A 
ATOM     25  C   UNL     1       9.660  10.188  18.668  0.00  0.00    +0.000 A 
ATOM     26  C   UNL     1      10.067  11.516  18.502  0.00  0.00    +0.000 A 
ATOM     27  C   UNL     1       9.271  12.409  17.786  0.00  0.00    +0.000 A 
ATOM     28  C   UNL     1       8.061  11.981  17.249  0.00  0.00    +0.000 A 
ATOM     29  C   UNL     1       7.655  10.654  17.414  0.00  0.00    +0.000 A 
ENDBRANCH  20  24
ENDBRANCH   2  18
TORSDOF 3
ENDMDL
MODEL 8
REMARK VINA RESULT:      -7.6      4.201      5.291
REMARK  Name = 
REMARK  3 active torsions:
REMARK  status: ('A' for Active; 'I' for Inactive)
REMARK    1  A    between atoms: C_2  and  C_3
REMARK    2  A    between atoms: C_5  and  C_6
REMARK    3  A    between atoms: C_18  and  C_19
REMARK                            x       y       z     vdW  Elec       q    Type
REMARK                         _______ _______ _______ _____ _____    ______ ____
ROOT
ATOM      1  O   UNL     1       4.817   2.189  19.417  0.00  0.00    +0.000 OA
ATOM      2  C   UNL     1       4.593   3.371  19.148  0.00  0.00    +0.000 C 
ATOM      3  N   UNL     1       3.708   4.134  19.934  0.00  0.00    +0.000 N 
ATOM      4  C   UNL     1       2.951   3.470  20.991  0.00  0.00    +0.000 C 
ATOM      5  C   UNL     1       1.457   3.782  20.875  0.00  0.00    +0.000 C 
ATOM      6  C   UNL     1       1.187   5.288  20.758  0.00  0.00    +0.000 C 
ATOM      7  C   UNL     1       2.020   5.895  19.616  0.00  0.00    +0.000 C 
ATOM      8  C   UNL     1       3.501   5.599  19.874  0.00  0.00    +0.000 C 
ENDROOT
BRANCH   7   9
ATOM      9  C   UNL     1       1.718   7.359  19.387  0.00  0.00    +0.000 A 
ATOM     10  N   UNL     1       2.102   8.093  18.360  0.00  0.00    +0.000 NA
ATOM     11  C   UNL     1       1.878   9.446  18.630  0.00  0.00    +0.000 A 
ATOM     12  C   UNL     1       2.233  10.544  17.813  0.00  0.00    +0.000 A 
ATOM     13  C   UNL     1       2.017  11.856  18.265  0.00  0.00    +0.000 A 
ATOM     14  C   UNL     1       1.442  12.089  19.512  0.00  0.00    +0.000 A 
ATOM     15  C   UNL     1       1.045  11.021  20.320  0.00  0.00    +0.000 A 
ATOM     16  C   UNL     1       1.271   9.712  19.858  0.00  0.00    +0.000 A 
ATOM     17  S   UNL     1       0.902   8.226  20.636  0.00  0.00    +0.000 S 
ENDBRANCH   7   9
BRANCH   2  18
ATOM     18  C   UNL     1       5.285   4.000  18.006  0.00  0.00    +0.000 A 
ATOM     19  C   UNL     1       5.183   3.593  16.643  0.00  0.00    +0.000 A 
ATOM     20  C   UNL     1       6.062   4.394  15.935  0.00  0.00    +0.000 A 
ATOM     21  N   UNL     1       6.559   5.260  16.870  0.00  0.00    +0.000 N 
ATOM     22  N   UNL     1       6.072   5.090  18.105  0.00  0.00    +0.000 NA
ATOM     23  H   UNL     1       7.234   6.002  16.723  0.00  0.00    +0.000 HD
BRANCH  20  24
ATOM     24  C   UNL     1       6.444   4.447  14.527  0.00  0.00    +0.000 A 
ATOM     25  C   UNL     1       7.471   5.298  14.101  0.00  0.00    +0.000 A 
ATOM     26  C   UNL     1       7.876   5.308  12.763  0.00  0.00    +0.000 A 
ATOM     27  C   UNL     1       7.252   4.476  11.835  0.00  0.00    +0.000 A 
ATOM     28  C   UNL     1       6.213   3.643  12.240  0.00  0.00    +0.000 A 
ATOM     29  C   UNL     1       5.809   3.632  13.577  0.00  0.00    +0.000 A 
ENDBRANCH  20  24
ENDBRANCH   2  18
TORSDOF 3
ENDMDL
MODEL 9
REMARK VINA RESULT:      -7.4      0.933      1.081
REMARK  Name = 
REMARK  3 active torsions:
REMARK  status: ('A' for Active; 'I' for Inactive)
REMARK    1  A    between atoms: C_2  and  C_3
REMARK    2  A    between atoms: C_5  and  C_6
REMARK    3  A    between atoms: C_18  and  C_19
REMARK                            x       y       z     vdW  Elec       q    Type
REMARK                         _______ _______ _______ _____ _____    ______ ____
ROOT
ATOM      1  O   UNL     1       6.865   3.727  17.325  0.00  0.00    +0.000 OA
ATOM      2  C   UNL     1       6.310   4.780  17.645  0.00  0.00    +0.000 C 
ATOM      3  N   UNL     1       5.033   4.770  18.241  0.00  0.00    +0.000 N 
ATOM      4  C   UNL     1       4.315   3.504  18.348  0.00  0.00    +0.000 C 
ATOM      5  C   UNL     1       2.899   3.627  17.782  0.00  0.00    +0.000 C 
ATOM      6  C   UNL     1       2.144   4.830  18.363  0.00  0.00    +0.000 C 
ATOM      7  C   UNL     1       2.974   6.115  18.196  0.00  0.00    +0.000 C 
ATOM      8  C   UNL     1       4.336   5.914  18.870  0.00  0.00    +0.000 C 
ENDROOT
BRANCH   7   9
ATOM      9  C   UNL     1       2.237   7.351  18.659  0.00  0.00    +0.000 A 
ATOM     10  N   UNL     1       2.090   8.479  17.991  0.00  0.00    +0.000 NA
ATOM     11  C   UNL     1       1.601   9.476  18.839  0.00  0.00    +0.000 A 
ATOM     12  C   UNL     1       1.391  10.837  18.518  0.00  0.00    +0.000 A 
ATOM     13  C   UNL     1       0.973  11.739  19.510  0.00  0.00    +0.000 A 
ATOM     14  C   UNL     1       0.751  11.302  20.813  0.00  0.00    +0.000 A 
ATOM     15  C   UNL     1       0.911   9.956  21.147  0.00  0.00    +0.000 A 
ATOM     16  C   UNL     1       1.334   9.063  20.145  0.00  0.00    +0.000 A 
ATOM     17  S   UNL     1       1.623   7.375  20.271  0.00  0.00    +0.000 S 
ENDBRANCH   7   9
BRANCH   2  18
ATOM     18  C   UNL     1       7.006   6.064  17.428  0.00  0.00    +0.000 A 
ATOM     19  C   UNL     1       7.399   6.982  18.446  0.00  0.00    +0.000 A 
ATOM     20  C   UNL     1       7.930   8.079  17.791  0.00  0.00    +0.000 A 
ATOM     21  N   UNL     1       7.901   7.730  16.468  0.00  0.00    +0.000 N 
ATOM     22  N   UNL     1       7.410   6.510  16.222  0.00  0.00    +0.000 NA
ATOM     23  H   UNL     1       8.215   8.285  15.680  0.00  0.00    +0.000 HD
BRANCH  20  24
ATOM     24  C   UNL     1       8.464   9.354  18.261  0.00  0.00    +0.000 A 
ATOM     25  C   UNL     1       8.315  10.514  17.491  0.00  0.00    +0.000 A 
ATOM     26  C   UNL     1       8.777  11.746  17.965  0.00  0.00    +0.000 A 
ATOM     27  C   UNL     1       9.402  11.829  19.208  0.00  0.00    +0.000 A 
ATOM     28  C   UNL     1       9.579  10.679  19.973  0.00  0.00    +0.000 A 
ATOM     29  C   UNL     1       9.117   9.449  19.500  0.00  0.00    +0.000 A 
ENDBRANCH  20  24
ENDBRANCH   2  18
TORSDOF 3
ENDMDL
