MODEL 1
REMARK VINA RESULT:      -8.6      0.000      0.000
REMARK  Name = 
REMARK  5 active torsions:
REMARK  status: ('A' for Active; 'I' for Inactive)
REMARK    1  A    between atoms: N_3  and  C_4
REMARK    2  A    between atoms: C_7  and  N_8
REMARK    3  A    between atoms: N_13  and  C_14
REMARK    4  A    between atoms: C_18  and  S_19
REMARK    5  A    between atoms: S_19  and  N_22
REMARK                            x       y       z     vdW  Elec       q    Type
REMARK                         _______ _______ _______ _____ _____    ______ ____
ROOT
ATOM      1  O   UNL     1       7.296   8.711  17.375  0.00  0.00    +0.000 OA
ATOM      2  C   UNL     1       7.927   8.089  18.217  0.00  0.00    +0.000 C 
ATOM      3  N   UNL     1       8.888   8.657  19.040  0.00  0.00    +0.000 N 
ATOM      4  N   UNL     1       7.787   6.722  18.445  0.00  0.00    +0.000 N 
ATOM      5  H   UNL     1       9.478   8.018  19.551  0.00  0.00    +0.000 HD
ATOM      6  H   UNL     1       8.060   6.388  19.357  0.00  0.00    +0.000 HD
ENDROOT
BRANCH   3   7
ATOM      7  C   UNL     1       9.290  10.015  19.014  0.00  0.00    +0.000 A 
ATOM      8  C   UNL     1       9.647  10.695  17.841  0.00  0.00    +0.000 A 
ATOM      9  C   UNL     1      10.109  12.015  17.880  0.00  0.00    +0.000 A 
ATOM     10  C   UNL     1      10.204  12.672  19.106  0.00  0.00    +0.000 A 
ATOM     11  C   UNL     1       9.814  12.025  20.284  0.00  0.00    +0.000 A 
ATOM     12  C   UNL     1       9.352  10.702  20.232  0.00  0.00    +0.000 A 
BRANCH  10  13
ATOM     13  N   UNL     1      10.717  14.046  19.158  0.00  0.00    +0.000 N 
ATOM     14  O   UNL     1      10.205  14.889  18.403  0.00  0.00    +0.000 OA
ATOM     15  O   UNL     1      11.643  14.286  19.946  0.00  0.00    +0.000 OA
ENDBRANCH  10  13
ENDBRANCH   3   7
BRANCH   4  16
ATOM     16  C   UNL     1       6.953   5.870  17.676  0.00  0.00    +0.000 A 
ATOM     17  C   UNL     1       7.401   5.247  16.502  0.00  0.00    +0.000 A 
ATOM     18  C   UNL     1       6.526   4.546  15.674  0.00  0.00    +0.000 A 
ATOM     19  C   UNL     1       5.199   4.390  16.048  0.00  0.00    +0.000 A 
ATOM     20  C   UNL     1       4.777   4.877  17.289  0.00  0.00    +0.000 A 
ATOM     21  C   UNL     1       5.636   5.647  18.091  0.00  0.00    +0.000 A 
BRANCH  20  22
ATOM     22  S   UNL     1       3.105   4.548  17.811  0.00  0.00    +0.000 S 
ATOM     23  O   UNL     1       2.396   5.811  17.810  0.00  0.00    +0.000 OA
ATOM     24  O   UNL     1       2.624   3.420  17.044  0.00  0.00    +0.000 OA
BRANCH  22  25
ATOM     25  N   UNL     1       3.285   4.047  19.420  0.00  0.00    +0.000 NA
ATOM     26  C   UNL     1       3.198   2.615  19.743  0.00  0.00    +0.000 C 
ATOM     27  C   UNL     1       1.902   2.484  20.519  0.00  0.00    +0.000 C 
ATOM     28  C   UNL     1       1.790   3.791  21.283  0.00  0.00    +0.000 C 
ATOM     29  C   UNL     1       2.608   4.810  20.493  0.00  0.00    +0.000 C 
ENDBRANCH  22  25
ENDBRANCH  20  22
ENDBRANCH   4  16
TORSDOF 5
ENDMDL
MODEL 2
REMARK VINA RESULT:      -8.5      5.421      7.239
REMARK  Name = 
REMARK  5 active torsions:
REMARK  status: ('A' for Active; 'I' for Inactive)
REMARK    1  A    between atoms: N_3  and  C_4
REMARK    2  A    between atoms: C_7  and  N_8
REMARK    3  A    between atoms: N_13  and  C_14
REMARK    4  A    between atoms: C_18  and  S_19
REMARK    5  A    between atoms: S_19  and  N_22
REMARK                            x       y       z     vdW  Elec       q    Type
REMARK                         _______ _______ _______ _____ _____    ______ ____
ROOT
ATOM      1  O   UNL     1       2.109   7.729  19.517  0.00  0.00    +0.000 OA
ATOM      2  C   UNL     1       2.391   8.086  18.382  0.00  0.00    +0.000 C 
ATOM      3  N   UNL     1       1.817   9.178  17.749  0.00  0.00    +0.000 N 
ATOM      4  N   UNL     1       3.305   7.429  17.561  0.00  0.00    +0.000 N 
ATOM      5  H   UNL     1       1.977   9.259  16.756  0.00  0.00    +0.000 HD
ATOM      6  H   UNL     1       3.725   7.978  16.826  0.00  0.00    +0.000 HD
ENDROOT
BRANCH   3   7
ATOM      7  C   UNL     1       0.820  10.017  18.306  0.00  0.00    +0.000 A 
ATOM      8  C   UNL     1       1.085  11.006  19.263  0.00  0.00    +0.000 A 
ATOM      9  C   UNL     1       0.052  11.756  19.836  0.00  0.00    +0.000 A 
ATOM     10  C   UNL     1      -1.264  11.526  19.438  0.00  0.00    +0.000 A 
ATOM     11  C   UNL     1      -1.547  10.571  18.454  0.00  0.00    +0.000 A 
ATOM     12  C   UNL     1      -0.503   9.826  17.888  0.00  0.00    +0.000 A 
BRANCH  10  13
ATOM     13  N   UNL     1      -2.356  12.288  20.057  0.00  0.00    +0.000 N 
ATOM     14  O   UNL     1      -2.112  12.906  21.107  0.00  0.00    +0.000 OA
ATOM     15  O   UNL     1      -3.464  12.260  19.504  0.00  0.00    +0.000 OA
ENDBRANCH  10  13
ENDBRANCH   3   7
BRANCH   4  16
ATOM     16  C   UNL     1       3.961   6.220  17.911  0.00  0.00    +0.000 A 
ATOM     17  C   UNL     1       5.319   6.181  18.260  0.00  0.00    +0.000 A 
ATOM     18  C   UNL     1       5.986   4.970  18.442  0.00  0.00    +0.000 A 
ATOM     19  C   UNL     1       5.284   3.777  18.355  0.00  0.00    +0.000 A 
ATOM     20  C   UNL     1       3.900   3.811  18.157  0.00  0.00    +0.000 A 
ATOM     21  C   UNL     1       3.238   5.023  17.900  0.00  0.00    +0.000 A 
BRANCH  20  22
ATOM     22  S   UNL     1       2.997   2.274  18.185  0.00  0.00    +0.000 S 
ATOM     23  O   UNL     1       2.013   2.334  17.125  0.00  0.00    +0.000 OA
ATOM     24  O   UNL     1       3.965   1.201  18.248  0.00  0.00    +0.000 OA
BRANCH  22  25
ATOM     25  N   UNL     1       2.177   2.325  19.667  0.00  0.00    +0.000 NA
ATOM     26  C   UNL     1       0.830   2.914  19.726  0.00  0.00    +0.000 C 
ATOM     27  C   UNL     1       1.016   4.197  20.514  0.00  0.00    +0.000 C 
ATOM     28  C   UNL     1       2.116   3.868  21.508  0.00  0.00    +0.000 C 
ATOM     29  C   UNL     1       2.915   2.724  20.887  0.00  0.00    +0.000 C 
ENDBRANCH  22  25
ENDBRANCH  20  22
ENDBRANCH   4  16
TORSDOF 5
ENDMDL
MODEL 3
REMARK VINA RESULT:      -8.5      5.428      7.093
REMARK  Name = 
REMARK  5 active torsions:
REMARK  status: ('A' for Active; 'I' for Inactive)
REMARK    1  A    between atoms: N_3  and  C_4
REMARK    2  A    between atoms: C_7  and  N_8
REMARK    3  A    between atoms: N_13  and  C_14
REMARK    4  A    between atoms: C_18  and  S_19
REMARK    5  A    between atoms: S_19  and  N_22
REMARK                            x       y       z     vdW  Elec       q    Type
REMARK                         _______ _______ _______ _____ _____    ______ ____
ROOT
ATOM      1  O   UNL     1       2.066   7.704  19.483  0.00  0.00    +0.000 OA
ATOM      2  C   UNL     1       2.377   8.075  18.361  0.00  0.00    +0.000 C 
ATOM      3  N   UNL     1       1.817   9.173  17.725  0.00  0.00    +0.000 N 
ATOM      4  N   UNL     1       3.317   7.432  17.558  0.00  0.00    +0.000 N 
ATOM      5  H   UNL     1       2.004   9.267  16.738  0.00  0.00    +0.000 HD
ATOM      6  H   UNL     1       3.755   7.991  16.842  0.00  0.00    +0.000 HD
ENDROOT
BRANCH   3   7
ATOM      7  C   UNL     1       0.801  10.001  18.264  0.00  0.00    +0.000 A 
ATOM      8  C   UNL     1      -0.556   9.875  17.937  0.00  0.00    +0.000 A 
ATOM      9  C   UNL     1      -1.509  10.767  18.440  0.00  0.00    +0.000 A 
ATOM     10  C   UNL     1      -1.105  11.793  19.293  0.00  0.00    +0.000 A 
ATOM     11  C   UNL     1       0.239  11.912  19.665  0.00  0.00    +0.000 A 
ATOM     12  C   UNL     1       1.185  11.012  19.154  0.00  0.00    +0.000 A 
BRANCH  10  13
ATOM     13  N   UNL     1      -2.094  12.752  19.800  0.00  0.00    +0.000 N 
ATOM     14  O   UNL     1      -3.296  12.446  19.719  0.00  0.00    +0.000 OA
ATOM     15  O   UNL     1      -1.676  13.819  20.270  0.00  0.00    +0.000 OA
ENDBRANCH  10  13
ENDBRANCH   3   7
BRANCH   4  16
ATOM     16  C   UNL     1       3.968   6.222  17.912  0.00  0.00    +0.000 A 
ATOM     17  C   UNL     1       5.324   6.179  18.266  0.00  0.00    +0.000 A 
ATOM     18  C   UNL     1       5.987   4.967  18.452  0.00  0.00    +0.000 A 
ATOM     19  C   UNL     1       5.282   3.776  18.363  0.00  0.00    +0.000 A 
ATOM     20  C   UNL     1       3.899   3.813  18.159  0.00  0.00    +0.000 A 
ATOM     21  C   UNL     1       3.241   5.026  17.899  0.00  0.00    +0.000 A 
BRANCH  20  22
ATOM     22  S   UNL     1       2.991   2.279  18.185  0.00  0.00    +0.000 S 
ATOM     23  O   UNL     1       2.003   2.346  17.128  0.00  0.00    +0.000 OA
ATOM     24  O   UNL     1       3.957   1.203  18.240  0.00  0.00    +0.000 OA
BRANCH  22  25
ATOM     25  N   UNL     1       2.177   2.326  19.670  0.00  0.00    +0.000 NA
ATOM     26  C   UNL     1       0.828   2.907  19.735  0.00  0.00    +0.000 C 
ATOM     27  C   UNL     1       1.010   4.192  20.521  0.00  0.00    +0.000 C 
ATOM     28  C   UNL     1       2.116   3.870  21.510  0.00  0.00    +0.000 C 
ATOM     29  C   UNL     1       2.918   2.730  20.886  0.00  0.00    +0.000 C 
ENDBRANCH  22  25
ENDBRANCH  20  22
ENDBRANCH   4  16
TORSDOF 5
ENDMDL
MODEL 4
REMARK VINA RESULT:      -8.4      1.185      1.730
REMARK  Name = 
REMARK  5 active torsions:
REMARK  status: ('A' for Active; 'I' for Inactive)
REMARK    1  A    between atoms: N_3  and  C_4
REMARK    2  A    between atoms: C_7  and  N_8
REMARK    3  A    between atoms: N_13  and  C_14
REMARK    4  A    between atoms: C_18  and  S_19
REMARK    5  A    between atoms: S_19  and  N_22
REMARK                            x       y       z     vdW  Elec       q    Type
REMARK                         _______ _______ _______ _____ _____    ______ ____
ROOT
ATOM      1  O   UNL     1       7.305   8.886  17.632  0.00  0.00    +0.000 OA
ATOM      2  C   UNL     1       8.039   8.262  18.384  0.00  0.00    +0.000 C 
ATOM      3  N   UNL     1       9.042   8.842  19.146  0.00  0.00    +0.000 N 
ATOM      4  N   UNL     1       7.986   6.881  18.558  0.00  0.00    +0.000 N 
ATOM      5  H   UNL     1       9.706   8.214  19.572  0.00  0.00    +0.000 HD
ATOM      6  H   UNL     1       8.357   6.522  19.426  0.00  0.00    +0.000 HD
ENDROOT
BRANCH   3   7
ATOM      7  C   UNL     1       9.374  10.220  19.150  0.00  0.00    +0.000 A 
ATOM      8  C   UNL     1       9.344  11.022  20.299  0.00  0.00    +0.000 A 
ATOM      9  C   UNL     1       9.608  12.394  20.234  0.00  0.00    +0.000 A 
ATOM     10  C   UNL     1       9.922  12.974  19.006  0.00  0.00    +0.000 A 
ATOM     11  C   UNL     1       9.997  12.184  17.852  0.00  0.00    +0.000 A 
ATOM     12  C   UNL     1       9.730  10.810  17.930  0.00  0.00    +0.000 A 
BRANCH  10  13
ATOM     13  N   UNL     1      10.170  14.418  18.924  0.00  0.00    +0.000 N 
ATOM     14  O   UNL     1       9.322  15.184  19.412  0.00  0.00    +0.000 OA
ATOM     15  O   UNL     1      11.208  14.794  18.360  0.00  0.00    +0.000 OA
ENDBRANCH  10  13
ENDBRANCH   3   7
BRANCH   4  16
ATOM     16  C   UNL     1       7.129   6.020  17.826  0.00  0.00    +0.000 A 
ATOM     17  C   UNL     1       7.093   6.016  16.424  0.00  0.00    +0.000 A 
ATOM     18  C   UNL     1       6.134   5.285  15.725  0.00  0.00    +0.000 A 
ATOM     19  C   UNL     1       5.241   4.481  16.418  0.00  0.00    +0.000 A 
ATOM     20  C   UNL     1       5.364   4.359  17.805  0.00  0.00    +0.000 A 
ATOM     21  C   UNL     1       6.280   5.150  18.519  0.00  0.00    +0.000 A 
BRANCH  20  22
ATOM     22  S   UNL     1       4.297   3.216  18.660  0.00  0.00    +0.000 S 
ATOM     23  O   UNL     1       3.823   2.257  17.685  0.00  0.00    +0.000 OA
ATOM     24  O   UNL     1       4.989   2.787  19.857  0.00  0.00    +0.000 OA
BRANCH  22  25
ATOM     25  N   UNL     1       2.985   4.179  19.132  0.00  0.00    +0.000 NA
ATOM     26  C   UNL     1       2.887   4.631  20.528  0.00  0.00    +0.000 C 
ATOM     27  C   UNL     1       1.704   3.865  21.088  0.00  0.00    +0.000 C 
ATOM     28  C   UNL     1       0.757   3.727  19.909  0.00  0.00    +0.000 C 
ATOM     29  C   UNL     1       1.627   3.829  18.658  0.00  0.00    +0.000 C 
ENDBRANCH  22  25
ENDBRANCH  20  22
ENDBRANCH   4  16
TORSDOF 5
ENDMDL
MODEL 5
REMARK VINA RESULT:      -8.4      1.332      1.747
REMARK  Name = 
REMARK  5 active torsions:
REMARK  status: ('A' for Active; 'I' for Inactive)
REMARK    1  A    between atoms: N_3  and  C_4
REMARK    2  A    between atoms: C_7  and  N_8
REMARK    3  A    between atoms: N_13  and  C_14
REMARK    4  A    between atoms: C_18  and  S_19
REMARK    5  A    between atoms: S_19  and  N_22
REMARK                            x       y       z     vdW  Elec       q    Type
REMARK                         _______ _______ _______ _____ _____    ______ ____
ROOT
ATOM      1  O   UNL     1       7.167   8.682  17.562  0.00  0.00    +0.000 OA
ATOM      2  C   UNL     1       7.944   8.075  18.286  0.00  0.00    +0.000 C 
ATOM      3  N   UNL     1       8.950   8.681  19.022  0.00  0.00    +0.000 N 
ATOM      4  N   UNL     1       7.940   6.691  18.447  0.00  0.00    +0.000 N 
ATOM      5  H   UNL     1       9.647   8.070  19.422  0.00  0.00    +0.000 HD
ATOM      6  H   UNL     1       8.349   6.337  19.299  0.00  0.00    +0.000 HD
ENDROOT
BRANCH   3   7
ATOM      7  C   UNL     1       9.237  10.068  19.030  0.00  0.00    +0.000 A 
ATOM      8  C   UNL     1       9.430  10.826  17.866  0.00  0.00    +0.000 A 
ATOM      9  C   UNL     1       9.786  12.177  17.931  0.00  0.00    +0.000 A 
ATOM     10  C   UNL     1       9.939  12.787  19.176  0.00  0.00    +0.000 A 
ATOM     11  C   UNL     1       9.712  12.059  20.350  0.00  0.00    +0.000 A 
ATOM     12  C   UNL     1       9.356  10.705  20.272  0.00  0.00    +0.000 A 
BRANCH  10  13
ATOM     13  N   UNL     1      10.343  14.196  19.253  0.00  0.00    +0.000 N 
ATOM     14  O   UNL     1      11.277  14.574  18.526  0.00  0.00    +0.000 OA
ATOM     15  O   UNL     1       9.738  14.927  20.049  0.00  0.00    +0.000 OA
ENDBRANCH  10  13
ENDBRANCH   3   7
BRANCH   4  16
ATOM     16  C   UNL     1       7.089   5.810  17.732  0.00  0.00    +0.000 A 
ATOM     17  C   UNL     1       7.117   5.714  16.334  0.00  0.00    +0.000 A 
ATOM     18  C   UNL     1       6.167   4.967  15.638  0.00  0.00    +0.000 A 
ATOM     19  C   UNL     1       5.218   4.238  16.339  0.00  0.00    +0.000 A 
ATOM     20  C   UNL     1       5.273   4.205  17.735  0.00  0.00    +0.000 A 
ATOM     21  C   UNL     1       6.181   5.014  18.439  0.00  0.00    +0.000 A 
BRANCH  20  22
ATOM     22  S   UNL     1       4.131   3.154  18.611  0.00  0.00    +0.000 S 
ATOM     23  O   UNL     1       3.637   2.173  17.668  0.00  0.00    +0.000 OA
ATOM     24  O   UNL     1       4.769   2.751  19.845  0.00  0.00    +0.000 OA
BRANCH  22  25
ATOM     25  N   UNL     1       2.854   4.198  19.001  0.00  0.00    +0.000 NA
ATOM     26  C   UNL     1       2.154   4.915  17.924  0.00  0.00    +0.000 C 
ATOM     27  C   UNL     1       2.552   6.365  18.118  0.00  0.00    +0.000 C 
ATOM     28  C   UNL     1       2.699   6.513  19.622  0.00  0.00    +0.000 C 
ATOM     29  C   UNL     1       2.997   5.114  20.155  0.00  0.00    +0.000 C 
ENDBRANCH  22  25
ENDBRANCH  20  22
ENDBRANCH   4  16
TORSDOF 5
ENDMDL
MODEL 6
REMARK VINA RESULT:      -8.4      4.849      7.738
REMARK  Name = 
REMARK  5 active torsions:
REMARK  status: ('A' for Active; 'I' for Inactive)
REMARK    1  A    between atoms: N_3  and  C_4
REMARK    2  A    between atoms: C_7  and  N_8
REMARK    3  A    between atoms: N_13  and  C_14
REMARK    4  A    between atoms: C_18  and  S_19
REMARK    5  A    between atoms: S_19  and  N_22
REMARK                            x       y       z     vdW  Elec       q    Type
REMARK                         _______ _______ _______ _____ _____    ______ ____
ROOT
ATOM      1  O   UNL     1       1.184   7.548  19.196  0.00  0.00    +0.000 OA
ATOM      2  C   UNL     1       1.915   7.327  20.150  0.00  0.00    +0.000 C 
ATOM      3  N   UNL     1       1.883   8.049  21.333  0.00  0.00    +0.000 N 
ATOM      4  N   UNL     1       2.897   6.339  20.169  0.00  0.00    +0.000 N 
ATOM      5  H   UNL     1       2.656   7.911  21.968  0.00  0.00    +0.000 HD
ATOM      6  H   UNL     1       3.180   6.004  21.078  0.00  0.00    +0.000 HD
ENDROOT
BRANCH   3   7
ATOM      7  C   UNL     1       1.027   9.147  21.600  0.00  0.00    +0.000 A 
ATOM      8  C   UNL     1       1.021  10.327  20.844  0.00  0.00    +0.000 A 
ATOM      9  C   UNL     1       0.209  11.410  21.196  0.00  0.00    +0.000 A 
ATOM     10  C   UNL     1      -0.621  11.310  22.311  0.00  0.00    +0.000 A 
ATOM     11  C   UNL     1      -0.660  10.126  23.058  0.00  0.00    +0.000 A 
ATOM     12  C   UNL     1       0.159   9.047  22.694  0.00  0.00    +0.000 A 
BRANCH  10  13
ATOM     13  N   UNL     1      -1.453  12.454  22.706  0.00  0.00    +0.000 N 
ATOM     14  O   UNL     1      -0.887  13.441  23.204  0.00  0.00    +0.000 OA
ATOM     15  O   UNL     1      -2.676  12.365  22.531  0.00  0.00    +0.000 OA
ENDBRANCH  10  13
ENDBRANCH   3   7
BRANCH   4  16
ATOM     16  C   UNL     1       3.222   5.521  19.056  0.00  0.00    +0.000 A 
ATOM     17  C   UNL     1       2.724   4.219  18.914  0.00  0.00    +0.000 A 
ATOM     18  C   UNL     1       3.181   3.373  17.904  0.00  0.00    +0.000 A 
ATOM     19  C   UNL     1       4.088   3.846  16.968  0.00  0.00    +0.000 A 
ATOM     20  C   UNL     1       4.477   5.189  17.010  0.00  0.00    +0.000 A 
ATOM     21  C   UNL     1       4.077   6.022  18.068  0.00  0.00    +0.000 A 
BRANCH  20  22
ATOM     22  S   UNL     1       5.536   5.812  15.719  0.00  0.00    +0.000 S 
ATOM     23  O   UNL     1       5.583   4.807  14.677  0.00  0.00    +0.000 OA
ATOM     24  O   UNL     1       5.121   7.168  15.432  0.00  0.00    +0.000 OA
BRANCH  22  25
ATOM     25  N   UNL     1       7.061   5.877  16.456  0.00  0.00    +0.000 NA
ATOM     26  C   UNL     1       7.563   4.700  17.181  0.00  0.00    +0.000 C 
ATOM     27  C   UNL     1       7.549   5.122  18.637  0.00  0.00    +0.000 C 
ATOM     28  C   UNL     1       7.867   6.607  18.598  0.00  0.00    +0.000 C 
ATOM     29  C   UNL     1       7.445   7.090  17.212  0.00  0.00    +0.000 C 
ENDBRANCH  22  25
ENDBRANCH  20  22
ENDBRANCH   4  16
TORSDOF 5
ENDMDL
MODEL 7
REMARK VINA RESULT:      -8.3      1.338      2.037
REMARK  Name = 
REMARK  5 active torsions:
REMARK  status: ('A' for Active; 'I' for Inactive)
REMARK    1  A    between atoms: N_3  and  C_4
REMARK    2  A    between atoms: C_7  and  N_8
REMARK    3  A    between atoms: N_13  and  C_14
REMARK    4  A    between atoms: C_18  and  S_19
REMARK    5  A    between atoms: S_19  and  N_22
REMARK                            x       y       z     vdW  Elec       q    Type
REMARK                         _______ _______ _______ _____ _____    ______ ____
ROOT
ATOM      1  O   UNL     1       7.284   8.818  17.614  0.00  0.00    +0.000 OA
ATOM      2  C   UNL     1       8.031   8.195  18.355  0.00  0.00    +0.000 C 
ATOM      3  N   UNL     1       9.034   8.779  19.113  0.00  0.00    +0.000 N 
ATOM      4  N   UNL     1       7.992   6.813  18.518  0.00  0.00    +0.000 N 
ATOM      5  H   UNL     1       9.708   8.154  19.528  0.00  0.00    +0.000 HD
ATOM      6  H   UNL     1       8.374   6.450  19.379  0.00  0.00    +0.000 HD
ENDROOT
BRANCH   3   7
ATOM      7  C   UNL     1       9.353  10.160  19.125  0.00  0.00    +0.000 A 
ATOM      8  C   UNL     1       9.340  10.949  20.284  0.00  0.00    +0.000 A 
ATOM      9  C   UNL     1       9.590  12.324  20.228  0.00  0.00    +0.000 A 
ATOM     10  C   UNL     1       9.872  12.920  19.000  0.00  0.00    +0.000 A 
ATOM     11  C   UNL     1       9.930  12.144  17.836  0.00  0.00    +0.000 A 
ATOM     12  C   UNL     1       9.678  10.766  17.905  0.00  0.00    +0.000 A 
BRANCH  10  13
ATOM     13  N   UNL     1      10.105  14.368  18.929  0.00  0.00    +0.000 N 
ATOM     14  O   UNL     1      10.331  14.974  19.989  0.00  0.00    +0.000 OA
ATOM     15  O   UNL     1      10.050  14.907  17.814  0.00  0.00    +0.000 OA
ENDBRANCH  10  13
ENDBRANCH   3   7
BRANCH   4  16
ATOM     16  C   UNL     1       7.137   5.949  17.785  0.00  0.00    +0.000 A 
ATOM     17  C   UNL     1       7.139   5.907  16.384  0.00  0.00    +0.000 A 
ATOM     18  C   UNL     1       6.184   5.177  15.679  0.00  0.00    +0.000 A 
ATOM     19  C   UNL     1       5.256   4.411  16.368  0.00  0.00    +0.000 A 
ATOM     20  C   UNL     1       5.339   4.325  17.761  0.00  0.00    +0.000 A 
ATOM     21  C   UNL     1       6.251   5.117  18.479  0.00  0.00    +0.000 A 
BRANCH  20  22
ATOM     22  S   UNL     1       4.224   3.229  18.617  0.00  0.00    +0.000 S 
ATOM     23  O   UNL     1       3.801   2.219  17.670  0.00  0.00    +0.000 OA
ATOM     24  O   UNL     1       4.850   2.865  19.870  0.00  0.00    +0.000 OA
BRANCH  22  25
ATOM     25  N   UNL     1       2.891   4.214  18.966  0.00  0.00    +0.000 NA
ATOM     26  C   UNL     1       2.203   4.912  17.870  0.00  0.00    +0.000 C 
ATOM     27  C   UNL     1       2.533   6.375  18.090  0.00  0.00    +0.000 C 
ATOM     28  C   UNL     1       2.616   6.515  19.600  0.00  0.00    +0.000 C 
ATOM     29  C   UNL     1       2.952   5.124  20.133  0.00  0.00    +0.000 C 
ENDBRANCH  22  25
ENDBRANCH  20  22
ENDBRANCH   4  16
TORSDOF 5
ENDMDL
MODEL 8
REMARK VINA RESULT:      -8.3      0.393      1.094
REMARK  Name = 
REMARK  5 active torsions:
REMARK  status: ('A' for Active; 'I' for Inactive)
REMARK    1  A    between atoms: N_3  and  C_4
REMARK    2  A    between atoms: C_7  and  N_8
REMARK    3  A    between atoms: N_13  and  C_14
REMARK    4  A    between atoms: C_18  and  S_19
REMARK    5  A    between atoms: S_19  and  N_22
REMARK                            x       y       z     vdW  Elec       q    Type
REMARK                         _______ _______ _______ _____ _____    ______ ____
ROOT
ATOM      1  O   UNL     1       7.242   8.856  17.515  0.00  0.00    +0.000 OA
ATOM      2  C   UNL     1       7.942   8.189  18.262  0.00  0.00    +0.000 C 
ATOM      3  N   UNL     1       8.950   8.715  19.055  0.00  0.00    +0.000 N 
ATOM      4  N   UNL     1       7.840   6.806  18.399  0.00  0.00    +0.000 N 
ATOM      5  H   UNL     1       9.586   8.054  19.476  0.00  0.00    +0.000 HD
ATOM      6  H   UNL     1       8.183   6.413  19.263  0.00  0.00    +0.000 HD
ENDROOT
BRANCH   3   7
ATOM      7  C   UNL     1       9.328  10.080  19.100  0.00  0.00    +0.000 A 
ATOM      8  C   UNL     1       9.322  10.848  20.273  0.00  0.00    +0.000 A 
ATOM      9  C   UNL     1       9.633  12.212  20.249  0.00  0.00    +0.000 A 
ATOM     10  C   UNL     1       9.969  12.817  19.039  0.00  0.00    +0.000 A 
ATOM     11  C   UNL     1      10.021  12.060  17.862  0.00  0.00    +0.000 A 
ATOM     12  C   UNL     1       9.707  10.693  17.899  0.00  0.00    +0.000 A 
BRANCH  10  13
ATOM     13  N   UNL     1      10.266  14.254  19.000  0.00  0.00    +0.000 N 
ATOM     14  O   UNL     1      11.426  14.602  18.720  0.00  0.00    +0.000 OA
ATOM     15  O   UNL     1       9.345  15.040  19.261  0.00  0.00    +0.000 OA
ENDBRANCH  10  13
ENDBRANCH   3   7
BRANCH   4  16
ATOM     16  C   UNL     1       6.966   5.994  17.630  0.00  0.00    +0.000 A 
ATOM     17  C   UNL     1       7.363   5.406  16.421  0.00  0.00    +0.000 A 
ATOM     18  C   UNL     1       6.449   4.748  15.599  0.00  0.00    +0.000 A 
ATOM     19  C   UNL     1       5.134   4.600  16.014  0.00  0.00    +0.000 A 
ATOM     20  C   UNL     1       4.762   5.049  17.285  0.00  0.00    +0.000 A 
ATOM     21  C   UNL     1       5.660   5.777  18.083  0.00  0.00    +0.000 A 
BRANCH  20  22
ATOM     22  S   UNL     1       3.104   4.727  17.853  0.00  0.00    +0.000 S 
ATOM     23  O   UNL     1       2.402   5.993  17.876  0.00  0.00    +0.000 OA
ATOM     24  O   UNL     1       2.595   3.603  17.097  0.00  0.00    +0.000 OA
BRANCH  22  25
ATOM     25  N   UNL     1       3.327   4.220  19.454  0.00  0.00    +0.000 NA
ATOM     26  C   UNL     1       3.403   2.782  19.752  0.00  0.00    +0.000 C 
ATOM     27  C   UNL     1       2.123   2.488  20.511  0.00  0.00    +0.000 C 
ATOM     28  C   UNL     1       1.855   3.759  21.297  0.00  0.00    +0.000 C 
ATOM     29  C   UNL     1       2.558   4.880  20.534  0.00  0.00    +0.000 C 
ENDBRANCH  22  25
ENDBRANCH  20  22
ENDBRANCH   4  16
TORSDOF 5
ENDMDL
MODEL 9
REMARK VINA RESULT:      -8.2      4.714      7.709
REMARK  Name = 
REMARK  5 active torsions:
REMARK  status: ('A' for Active; 'I' for Inactive)
REMARK    1  A    between atoms: N_3  and  C_4
REMARK    2  A    between atoms: C_7  and  N_8
REMARK    3  A    between atoms: N_13  and  C_14
REMARK    4  A    between atoms: C_18  and  S_19
REMARK    5  A    between atoms: S_19  and  N_22
REMARK                            x       y       z     vdW  Elec       q    Type
REMARK                         _______ _______ _______ _____ _____    ______ ____
ROOT
ATOM      1  O   UNL     1       1.353   7.506  19.078  0.00  0.00    +0.000 OA
ATOM      2  C   UNL     1       1.982   7.201  20.081  0.00  0.00    +0.000 C 
ATOM      3  N   UNL     1       1.892   7.880  21.287  0.00  0.00    +0.000 N 
ATOM      4  N   UNL     1       2.893   6.150  20.142  0.00  0.00    +0.000 N 
ATOM      5  H   UNL     1       2.595   7.667  21.978  0.00  0.00    +0.000 HD
ATOM      6  H   UNL     1       3.073   5.763  21.056  0.00  0.00    +0.000 HD
ENDROOT
BRANCH   3   7
ATOM      7  C   UNL     1       1.087   9.022  21.526  0.00  0.00    +0.000 A 
ATOM      8  C   UNL     1       0.355   9.221  22.705  0.00  0.00    +0.000 A 
ATOM      9  C   UNL     1      -0.483  10.330  22.860  0.00  0.00    +0.000 A 
ATOM     10  C   UNL     1      -0.582  11.263  21.829  0.00  0.00    +0.000 A 
ATOM     11  C   UNL     1       0.171  11.105  20.660  0.00  0.00    +0.000 A 
ATOM     12  C   UNL     1       1.007   9.989  20.517  0.00  0.00    +0.000 A 
BRANCH  10  13
ATOM     13  N   UNL     1      -1.484  12.413  21.971  0.00  0.00    +0.000 N 
ATOM     14  O   UNL     1      -2.588  12.225  22.509  0.00  0.00    +0.000 OA
ATOM     15  O   UNL     1      -1.097  13.507  21.535  0.00  0.00    +0.000 OA
ENDBRANCH  10  13
ENDBRANCH   3   7
BRANCH   4  16
ATOM     16  C   UNL     1       3.263   5.354  19.027  0.00  0.00    +0.000 A 
ATOM     17  C   UNL     1       2.819   4.033  18.871  0.00  0.00    +0.000 A 
ATOM     18  C   UNL     1       3.319   3.214  17.860  0.00  0.00    +0.000 A 
ATOM     19  C   UNL     1       4.217   3.730  16.937  0.00  0.00    +0.000 A 
ATOM     20  C   UNL     1       4.550   5.086  16.992  0.00  0.00    +0.000 A 
ATOM     21  C   UNL     1       4.107   5.896  18.051  0.00  0.00    +0.000 A 
BRANCH  20  22
ATOM     22  S   UNL     1       5.597   5.760  15.716  0.00  0.00    +0.000 S 
ATOM     23  O   UNL     1       5.685   4.771  14.663  0.00  0.00    +0.000 OA
ATOM     24  O   UNL     1       5.138   7.105  15.443  0.00  0.00    +0.000 OA
BRANCH  22  25
ATOM     25  N   UNL     1       7.113   5.868  16.465  0.00  0.00    +0.000 NA
ATOM     26  C   UNL     1       7.621   4.722  17.233  0.00  0.00    +0.000 C 
ATOM     27  C   UNL     1       7.588   5.192  18.674  0.00  0.00    +0.000 C 
ATOM     28  C   UNL     1       7.890   6.678  18.589  0.00  0.00    +0.000 C 
ATOM     29  C   UNL     1       7.476   7.110  17.184  0.00  0.00    +0.000 C 
ENDBRANCH  22  25
ENDBRANCH  20  22
ENDBRANCH   4  16
TORSDOF 5
ENDMDL
