MODEL 1
REMARK VINA RESULT:      -9.2      0.000      0.000
REMARK  Name = 
REMARK  8 active torsions:
REMARK  status: ('A' for Active; 'I' for Inactive)
REMARK    1  A    between atoms: C_1  and  C_2
REMARK    2  A    between atoms: C_6  and  O_7
REMARK    3  A    between atoms: O_7  and  C_8
REMARK    4  A    between atoms: C_11  and  N_12
REMARK    5  A    between atoms: C_13  and  C_15
REMARK    6  A    between atoms: C_15  and  N_16
REMARK    7  A    between atoms: C_20  and  C_21
REMARK    8  A    between atoms: C_20  and  C_22
REMARK                            x       y       z     vdW  Elec       q    Type
REMARK                         _______ _______ _______ _____ _____    ______ ____
ROOT
ATOM      1  N   UNL     1       2.904   6.186  19.836  0.00  0.00    +0.000 N 
ATOM      2  C   UNL     1       2.311   4.948  20.028  0.00  0.00    +0.000 C 
ATOM      3  O   UNL     1       1.103   4.721  20.012  0.00  0.00    +0.000 OA
ATOM      4  H   UNL     1       3.915   6.223  19.791  0.00  0.00    +0.000 HD
ENDROOT
BRANCH   1   8
ATOM      5  C   UNL     1       0.950   9.849  19.104  0.00  0.00    +0.000 A 
ATOM      6  C   UNL     1       0.852   9.265  20.363  0.00  0.00    +0.000 A 
ATOM      7  C   UNL     1       1.481   8.046  20.619  0.00  0.00    +0.000 A 
ATOM      8  C   UNL     1       2.217   7.397  19.621  0.00  0.00    +0.000 A 
ATOM      9  C   UNL     1       2.288   7.973  18.353  0.00  0.00    +0.000 A 
ATOM     10  C   UNL     1       1.629   9.173  18.082  0.00  0.00    +0.000 A 
BRANCH   5  11
ATOM     11  O   UNL     1       0.320  11.062  18.950  0.00  0.00    +0.000 OA
BRANCH  11  17
ATOM     12  C   UNL     1      -2.982   9.630  15.681  0.00  0.00    +0.000 C 
ATOM     13  C   UNL     1      -2.647  10.373  16.939  0.00  0.00    +0.000 A 
ATOM     14  C   UNL     1      -3.634  11.067  17.651  0.00  0.00    +0.000 A 
ATOM     15  C   UNL     1      -3.318  11.729  18.837  0.00  0.00    +0.000 A 
ATOM     16  C   UNL     1      -2.011  11.713  19.318  0.00  0.00    +0.000 A 
ATOM     17  C   UNL     1      -1.006  11.081  18.581  0.00  0.00    +0.000 A 
ATOM     18  C   UNL     1      -1.331  10.380  17.418  0.00  0.00    +0.000 A 
ENDBRANCH  11  17
ENDBRANCH   5  11
ENDBRANCH   1   8
BRANCH   2  19
ATOM     19  C   UNL     1       3.288   3.830  20.305  0.00  0.00    +0.000 C 
BRANCH  19  20
ATOM     20  N   UNL     1       4.181   3.673  19.184  0.00  0.00    +0.000 N 
ATOM     21  C   UNL     1       3.930   2.898  18.092  0.00  0.00    +0.000 C 
ATOM     22  O   UNL     1       3.001   2.133  17.908  0.00  0.00    +0.000 OA
ATOM     23  N   UNL     1       4.880   3.185  17.133  0.00  0.00    +0.000 N 
ATOM     24  C   UNL     1       5.550   4.425  17.438  0.00  0.00    +0.000 C 
ATOM     25  C   UNL     1       7.036   4.371  17.118  0.00  0.00    +0.000 C 
ATOM     26  C   UNL     1       5.255   4.490  18.952  0.00  0.00    +0.000 C 
ATOM     27  O   UNL     1       5.760   5.255  19.763  0.00  0.00    +0.000 OA
ATOM     28  H   UNL     1       4.751   2.819  16.200  0.00  0.00    +0.000 HD
BRANCH  24  29
ATOM     29  C   UNL     1       4.883   5.610  16.740  0.00  0.00    +0.000 C 
ATOM     30  C   UNL     1       5.320   6.101  15.369  0.00  0.00    +0.000 C 
ATOM     31  C   UNL     1       5.534   6.970  16.574  0.00  0.00    +0.000 C 
ENDBRANCH  24  29
ENDBRANCH  19  20
ENDBRANCH   2  19
TORSDOF 6
ENDMDL
MODEL 2
REMARK VINA RESULT:      -9.2      0.369      1.326
REMARK  Name = 
REMARK  8 active torsions:
REMARK  status: ('A' for Active; 'I' for Inactive)
REMARK    1  A    between atoms: C_1  and  C_2
REMARK    2  A    between atoms: C_6  and  O_7
REMARK    3  A    between atoms: O_7  and  C_8
REMARK    4  A    between atoms: C_11  and  N_12
REMARK    5  A    between atoms: C_13  and  C_15
REMARK    6  A    between atoms: C_15  and  N_16
REMARK    7  A    between atoms: C_20  and  C_21
REMARK    8  A    between atoms: C_20  and  C_22
REMARK                            x       y       z     vdW  Elec       q    Type
REMARK                         _______ _______ _______ _____ _____    ______ ____
ROOT
ATOM      1  N   UNL     1       2.926   6.250  19.829  0.00  0.00    +0.000 N 
ATOM      2  C   UNL     1       2.395   4.982  20.009  0.00  0.00    +0.000 C 
ATOM      3  O   UNL     1       1.205   4.685  19.936  0.00  0.00    +0.000 OA
ATOM      4  H   UNL     1       3.934   6.344  19.834  0.00  0.00    +0.000 HD
ENDROOT
BRANCH   1   8
ATOM      5  C   UNL     1       0.803   9.782  18.938  0.00  0.00    +0.000 A 
ATOM      6  C   UNL     1       0.726   9.246  20.220  0.00  0.00    +0.000 A 
ATOM      7  C   UNL     1       1.411   8.070  20.528  0.00  0.00    +0.000 A 
ATOM      8  C   UNL     1       2.183   7.416  19.561  0.00  0.00    +0.000 A 
ATOM      9  C   UNL     1       2.234   7.943  18.270  0.00  0.00    +0.000 A 
ATOM     10  C   UNL     1       1.519   9.097  17.947  0.00  0.00    +0.000 A 
BRANCH   5  11
ATOM     11  O   UNL     1       0.116  10.955  18.731  0.00  0.00    +0.000 OA
BRANCH  11  17
ATOM     12  C   UNL     1      -4.381  12.547  19.667  0.00  0.00    +0.000 C 
ATOM     13  C   UNL     1      -3.457  11.685  18.861  0.00  0.00    +0.000 A 
ATOM     14  C   UNL     1      -3.949  10.852  17.848  0.00  0.00    +0.000 A 
ATOM     15  C   UNL     1      -3.078  10.078  17.082  0.00  0.00    +0.000 A 
ATOM     16  C   UNL     1      -1.708  10.120  17.329  0.00  0.00    +0.000 A 
ATOM     17  C   UNL     1      -1.213  10.895  18.381  0.00  0.00    +0.000 A 
ATOM     18  C   UNL     1      -2.080  11.705  19.117  0.00  0.00    +0.000 A 
ENDBRANCH  11  17
ENDBRANCH   5  11
ENDBRANCH   1   8
BRANCH   2  19
ATOM     19  C   UNL     1       3.419   3.926  20.353  0.00  0.00    +0.000 C 
BRANCH  19  20
ATOM     20  N   UNL     1       4.303   3.720  19.232  0.00  0.00    +0.000 N 
ATOM     21  C   UNL     1       4.064   2.863  18.199  0.00  0.00    +0.000 C 
ATOM     22  O   UNL     1       3.158   2.058  18.082  0.00  0.00    +0.000 OA
ATOM     23  N   UNL     1       4.992   3.113  17.210  0.00  0.00    +0.000 N 
ATOM     24  C   UNL     1       5.624   4.393  17.418  0.00  0.00    +0.000 C 
ATOM     25  C   UNL     1       7.107   4.365  17.080  0.00  0.00    +0.000 C 
ATOM     26  C   UNL     1       5.346   4.553  18.928  0.00  0.00    +0.000 C 
ATOM     27  O   UNL     1       5.836   5.388  19.676  0.00  0.00    +0.000 OA
ATOM     28  H   UNL     1       4.863   2.679  16.306  0.00  0.00    +0.000 HD
BRANCH  24  29
ATOM     29  C   UNL     1       4.909   5.504  16.650  0.00  0.00    +0.000 C 
ATOM     30  C   UNL     1       5.357   5.961  15.271  0.00  0.00    +0.000 C 
ATOM     31  C   UNL     1       5.485   6.892  16.440  0.00  0.00    +0.000 C 
ENDBRANCH  24  29
ENDBRANCH  19  20
ENDBRANCH   2  19
TORSDOF 6
ENDMDL
MODEL 3
REMARK VINA RESULT:      -8.6      1.985      2.851
REMARK  Name = 
REMARK  8 active torsions:
REMARK  status: ('A' for Active; 'I' for Inactive)
REMARK    1  A    between atoms: C_1  and  C_2
REMARK    2  A    between atoms: C_6  and  O_7
REMARK    3  A    between atoms: O_7  and  C_8
REMARK    4  A    between atoms: C_11  and  N_12
REMARK    5  A    between atoms: C_13  and  C_15
REMARK    6  A    between atoms: C_15  and  N_16
REMARK    7  A    between atoms: C_20  and  C_21
REMARK    8  A    between atoms: C_20  and  C_22
REMARK                            x       y       z     vdW  Elec       q    Type
REMARK                         _______ _______ _______ _____ _____    ______ ____
ROOT
ATOM      1  N   UNL     1       2.978   6.069  19.851  0.00  0.00    +0.000 N 
ATOM      2  C   UNL     1       2.407   4.826  20.073  0.00  0.00    +0.000 C 
ATOM      3  O   UNL     1       1.203   4.587  20.121  0.00  0.00    +0.000 OA
ATOM      4  H   UNL     1       3.986   6.115  19.752  0.00  0.00    +0.000 HD
ENDROOT
BRANCH   1   8
ATOM      5  C   UNL     1       0.957   9.716  19.229  0.00  0.00    +0.000 A 
ATOM      6  C   UNL     1       0.918   9.122  20.487  0.00  0.00    +0.000 A 
ATOM      7  C   UNL     1       1.570   7.908  20.706  0.00  0.00    +0.000 A 
ATOM      8  C   UNL     1       2.270   7.274  19.674  0.00  0.00    +0.000 A 
ATOM      9  C   UNL     1       2.282   7.860  18.408  0.00  0.00    +0.000 A 
ATOM     10  C   UNL     1       1.598   9.054  18.174  0.00  0.00    +0.000 A 
BRANCH   5  11
ATOM     11  O   UNL     1       0.308  10.922  19.110  0.00  0.00    +0.000 OA
BRANCH  11  17
ATOM     12  C   UNL     1       3.738  14.263  18.270  0.00  0.00    +0.000 C 
ATOM     13  C   UNL     1       2.652  13.719  19.148  0.00  0.00    +0.000 A 
ATOM     14  C   UNL     1       2.339  14.329  20.369  0.00  0.00    +0.000 A 
ATOM     15  C   UNL     1       1.306  13.834  21.164  0.00  0.00    +0.000 A 
ATOM     16  C   UNL     1       0.583  12.717  20.751  0.00  0.00    +0.000 A 
ATOM     17  C   UNL     1       0.930  12.061  19.567  0.00  0.00    +0.000 A 
ATOM     18  C   UNL     1       1.934  12.584  18.750  0.00  0.00    +0.000 A 
ENDBRANCH  11  17
ENDBRANCH   5  11
ENDBRANCH   1   8
BRANCH   2  19
ATOM     19  C   UNL     1       3.408   3.717  20.297  0.00  0.00    +0.000 C 
BRANCH  19  20
ATOM     20  N   UNL     1       4.271   3.599  19.148  0.00  0.00    +0.000 N 
ATOM     21  C   UNL     1       3.976   2.888  18.022  0.00  0.00    +0.000 C 
ATOM     22  O   UNL     1       3.023   2.156  17.821  0.00  0.00    +0.000 OA
ATOM     23  N   UNL     1       4.910   3.203  17.058  0.00  0.00    +0.000 N 
ATOM     24  C   UNL     1       5.617   4.409  17.411  0.00  0.00    +0.000 C 
ATOM     25  C   UNL     1       7.094   4.338  17.052  0.00  0.00    +0.000 C 
ATOM     26  C   UNL     1       5.359   4.401  18.933  0.00  0.00    +0.000 C 
ATOM     27  O   UNL     1       5.901   5.110  19.770  0.00  0.00    +0.000 OA
ATOM     28  H   UNL     1       4.750   2.890  16.110  0.00  0.00    +0.000 HD
BRANCH  24  29
ATOM     29  C   UNL     1       4.964   5.645  16.793  0.00  0.00    +0.000 C 
ATOM     30  C   UNL     1       5.341   6.164  15.414  0.00  0.00    +0.000 C 
ATOM     31  C   UNL     1       5.664   6.981  16.630  0.00  0.00    +0.000 C 
ENDBRANCH  24  29
ENDBRANCH  19  20
ENDBRANCH   2  19
TORSDOF 6
ENDMDL
MODEL 4
REMARK VINA RESULT:      -8.6      1.310      3.319
REMARK  Name = 
REMARK  8 active torsions:
REMARK  status: ('A' for Active; 'I' for Inactive)
REMARK    1  A    between atoms: C_1  and  C_2
REMARK    2  A    between atoms: C_6  and  O_7
REMARK    3  A    between atoms: O_7  and  C_8
REMARK    4  A    between atoms: C_11  and  N_12
REMARK    5  A    between atoms: C_13  and  C_15
REMARK    6  A    between atoms: C_15  and  N_16
REMARK    7  A    between atoms: C_20  and  C_21
REMARK    8  A    between atoms: C_20  and  C_22
REMARK                            x       y       z     vdW  Elec       q    Type
REMARK                         _______ _______ _______ _____ _____    ______ ____
ROOT
ATOM      1  N   UNL     1       3.041   6.488  17.832  0.00  0.00    +0.000 N 
ATOM      2  C   UNL     1       4.319   6.471  17.294  0.00  0.00    +0.000 C 
ATOM      3  O   UNL     1       5.098   7.421  17.266  0.00  0.00    +0.000 OA
ATOM      4  H   UNL     1       2.532   5.613  17.865  0.00  0.00    +0.000 HD
ENDROOT
BRANCH   1   8
ATOM      5  C   UNL     1       1.079   9.751  19.641  0.00  0.00    +0.000 A 
ATOM      6  C   UNL     1       1.528   9.869  18.329  0.00  0.00    +0.000 A 
ATOM      7  C   UNL     1       2.192   8.804  17.720  0.00  0.00    +0.000 A 
ATOM      8  C   UNL     1       2.413   7.607  18.412  0.00  0.00    +0.000 A 
ATOM      9  C   UNL     1       1.986   7.505  19.736  0.00  0.00    +0.000 A 
ATOM     10  C   UNL     1       1.357   8.582  20.362  0.00  0.00    +0.000 A 
BRANCH   5  11
ATOM     11  O   UNL     1       0.415  10.841  20.153  0.00  0.00    +0.000 OA
BRANCH  11  17
ATOM     12  C   UNL     1      -2.994   9.828  16.837  0.00  0.00    +0.000 C 
ATOM     13  C   UNL     1      -2.538  10.631  18.018  0.00  0.00    +0.000 A 
ATOM     14  C   UNL     1      -3.348  11.636  18.562  0.00  0.00    +0.000 A 
ATOM     15  C   UNL     1      -2.928  12.357  19.680  0.00  0.00    +0.000 A 
ATOM     16  C   UNL     1      -1.689  12.087  20.258  0.00  0.00    +0.000 A 
ATOM     17  C   UNL     1      -0.845  11.133  19.683  0.00  0.00    +0.000 A 
ATOM     18  C   UNL     1      -1.285  10.381  18.592  0.00  0.00    +0.000 A 
ENDBRANCH  11  17
ENDBRANCH   5  11
ENDBRANCH   1   8
BRANCH   2  19
ATOM     19  C   UNL     1       4.712   5.151  16.675  0.00  0.00    +0.000 C 
BRANCH  19  20
ATOM     20  N   UNL     1       4.518   4.088  17.631  0.00  0.00    +0.000 N 
ATOM     21  C   UNL     1       5.362   3.806  18.664  0.00  0.00    +0.000 C 
ATOM     22  O   UNL     1       6.450   4.298  18.904  0.00  0.00    +0.000 OA
ATOM     23  N   UNL     1       4.736   2.901  19.495  0.00  0.00    +0.000 N 
ATOM     24  C   UNL     1       3.320   2.856  19.223  0.00  0.00    +0.000 C 
ATOM     25  C   UNL     1       2.761   1.444  19.313  0.00  0.00    +0.000 C 
ATOM     26  C   UNL     1       3.337   3.414  17.783  0.00  0.00    +0.000 C 
ATOM     27  O   UNL     1       2.406   3.413  16.989  0.00  0.00    +0.000 OA
ATOM     28  H   UNL     1       5.152   2.704  20.396  0.00  0.00    +0.000 HD
BRANCH  24  29
ATOM     29  C   UNL     1       2.543   3.811  20.128  0.00  0.00    +0.000 C 
ATOM     30  C   UNL     1       1.810   3.339  21.374  0.00  0.00    +0.000 C 
ATOM     31  C   UNL     1       1.029   3.860  20.204  0.00  0.00    +0.000 C 
ENDBRANCH  24  29
ENDBRANCH  19  20
ENDBRANCH   2  19
TORSDOF 6
ENDMDL
MODEL 5
REMARK VINA RESULT:      -8.5      1.908      2.893
REMARK  Name = 
REMARK  8 active torsions:
REMARK  status: ('A' for Active; 'I' for Inactive)
REMARK    1  A    between atoms: C_1  and  C_2
REMARK    2  A    between atoms: C_6  and  O_7
REMARK    3  A    between atoms: O_7  and  C_8
REMARK    4  A    between atoms: C_11  and  N_12
REMARK    5  A    between atoms: C_13  and  C_15
REMARK    6  A    between atoms: C_15  and  N_16
REMARK    7  A    between atoms: C_20  and  C_21
REMARK    8  A    between atoms: C_20  and  C_22
REMARK                            x       y       z     vdW  Elec       q    Type
REMARK                         _______ _______ _______ _____ _____    ______ ____
ROOT
ATOM      1  N   UNL     1       2.959   6.188  19.793  0.00  0.00    +0.000 N 
ATOM      2  C   UNL     1       2.386   4.957  20.071  0.00  0.00    +0.000 C 
ATOM      3  O   UNL     1       1.182   4.719  20.113  0.00  0.00    +0.000 OA
ATOM      4  H   UNL     1       3.968   6.231  19.708  0.00  0.00    +0.000 HD
ENDROOT
BRANCH   1   8
ATOM      5  C   UNL     1       0.939   9.790  18.946  0.00  0.00    +0.000 A 
ATOM      6  C   UNL     1       0.930   9.294  20.246  0.00  0.00    +0.000 A 
ATOM      7  C   UNL     1       1.581   8.096  20.541  0.00  0.00    +0.000 A 
ATOM      8  C   UNL     1       2.252   7.380  19.543  0.00  0.00    +0.000 A 
ATOM      9  C   UNL     1       2.235   7.868  18.236  0.00  0.00    +0.000 A 
ATOM     10  C   UNL     1       1.551   9.045  17.929  0.00  0.00    +0.000 A 
BRANCH   5  11
ATOM     11  O   UNL     1       0.293  10.988  18.751  0.00  0.00    +0.000 OA
BRANCH  11  17
ATOM     12  C   UNL     1       0.403  15.380  20.832  0.00  0.00    +0.000 C 
ATOM     13  C   UNL     1       1.041  14.355  19.945  0.00  0.00    +0.000 A 
ATOM     14  C   UNL     1       2.258  14.615  19.303  0.00  0.00    +0.000 A 
ATOM     15  C   UNL     1       2.860  13.643  18.504  0.00  0.00    +0.000 A 
ATOM     16  C   UNL     1       2.244  12.404  18.331  0.00  0.00    +0.000 A 
ATOM     17  C   UNL     1       0.998  12.159  18.913  0.00  0.00    +0.000 A 
ATOM     18  C   UNL     1       0.419  13.115  19.749  0.00  0.00    +0.000 A 
ENDBRANCH  11  17
ENDBRANCH   5  11
ENDBRANCH   1   8
BRANCH   2  19
ATOM     19  C   UNL     1       3.385   3.863  20.368  0.00  0.00    +0.000 C 
BRANCH  19  20
ATOM     20  N   UNL     1       4.258   3.678  19.236  0.00  0.00    +0.000 N 
ATOM     21  C   UNL     1       4.000   2.857  18.179  0.00  0.00    +0.000 C 
ATOM     22  O   UNL     1       3.081   2.069  18.044  0.00  0.00    +0.000 OA
ATOM     23  N   UNL     1       4.925   3.123  17.191  0.00  0.00    +0.000 N 
ATOM     24  C   UNL     1       5.578   4.386  17.434  0.00  0.00    +0.000 C 
ATOM     25  C   UNL     1       7.058   4.346  17.085  0.00  0.00    +0.000 C 
ATOM     26  C   UNL     1       5.311   4.504  18.950  0.00  0.00    +0.000 C 
ATOM     27  O   UNL     1       5.819   5.309  19.720  0.00  0.00    +0.000 OA
ATOM     28  H   UNL     1       4.783   2.719  16.275  0.00  0.00    +0.000 HD
BRANCH  24  29
ATOM     29  C   UNL     1       4.875   5.531  16.705  0.00  0.00    +0.000 C 
ATOM     30  C   UNL     1       5.340   6.044  15.351  0.00  0.00    +0.000 C 
ATOM     31  C   UNL     1       5.456   6.924  16.560  0.00  0.00    +0.000 C 
ENDBRANCH  24  29
ENDBRANCH  19  20
ENDBRANCH   2  19
TORSDOF 6
ENDMDL
MODEL 6
REMARK VINA RESULT:      -8.4      1.908      2.960
REMARK  Name = 
REMARK  8 active torsions:
REMARK  status: ('A' for Active; 'I' for Inactive)
REMARK    1  A    between atoms: C_1  and  C_2
REMARK    2  A    between atoms: C_6  and  O_7
REMARK    3  A    between atoms: O_7  and  C_8
REMARK    4  A    between atoms: C_11  and  N_12
REMARK    5  A    between atoms: C_13  and  C_15
REMARK    6  A    between atoms: C_15  and  N_16
REMARK    7  A    between atoms: C_20  and  C_21
REMARK    8  A    between atoms: C_20  and  C_22
REMARK                            x       y       z     vdW  Elec       q    Type
REMARK                         _______ _______ _______ _____ _____    ______ ____
ROOT
ATOM      1  N   UNL     1       2.937   6.071  19.931  0.00  0.00    +0.000 N 
ATOM      2  C   UNL     1       2.356   4.817  20.043  0.00  0.00    +0.000 C 
ATOM      3  O   UNL     1       1.152   4.578  20.009  0.00  0.00    +0.000 OA
ATOM      4  H   UNL     1       3.948   6.121  19.893  0.00  0.00    +0.000 HD
ENDROOT
BRANCH   1   8
ATOM      5  C   UNL     1       0.743   9.655  19.593  0.00  0.00    +0.000 A 
ATOM      6  C   UNL     1       1.467   9.194  18.498  0.00  0.00    +0.000 A 
ATOM      7  C   UNL     1       2.210   8.018  18.597  0.00  0.00    +0.000 A 
ATOM      8  C   UNL     1       2.237   7.285  19.789  0.00  0.00    +0.000 A 
ATOM      9  C   UNL     1       1.532   7.767  20.892  0.00  0.00    +0.000 A 
ATOM     10  C   UNL     1       0.819   8.963  20.810  0.00  0.00    +0.000 A 
BRANCH   5  11
ATOM     11  O   UNL     1       0.021  10.809  19.399  0.00  0.00    +0.000 OA
BRANCH  11  17
ATOM     12  C   UNL     1      -1.259  13.560  23.197  0.00  0.00    +0.000 C 
ATOM     13  C   UNL     1      -0.333  13.293  22.049  0.00  0.00    +0.000 A 
ATOM     14  C   UNL     1       0.735  14.155  21.769  0.00  0.00    +0.000 A 
ATOM     15  C   UNL     1       1.609  13.880  20.718  0.00  0.00    +0.000 A 
ATOM     16  C   UNL     1       1.419  12.747  19.930  0.00  0.00    +0.000 A 
ATOM     17  C   UNL     1       0.318  11.917  20.159  0.00  0.00    +0.000 A 
ATOM     18  C   UNL     1      -0.530  12.167  21.240  0.00  0.00    +0.000 A 
ENDBRANCH  11  17
ENDBRANCH   5  11
ENDBRANCH   1   8
BRANCH   2  19
ATOM     19  C   UNL     1       3.345   3.695  20.256  0.00  0.00    +0.000 C 
BRANCH  19  20
ATOM     20  N   UNL     1       4.219   3.592  19.113  0.00  0.00    +0.000 N 
ATOM     21  C   UNL     1       3.959   2.852  17.998  0.00  0.00    +0.000 C 
ATOM     22  O   UNL     1       3.038   2.080  17.804  0.00  0.00    +0.000 OA
ATOM     23  N   UNL     1       4.886   3.188  17.034  0.00  0.00    +0.000 N 
ATOM     24  C   UNL     1       5.543   4.427  17.370  0.00  0.00    +0.000 C 
ATOM     25  C   UNL     1       7.023   4.408  17.021  0.00  0.00    +0.000 C 
ATOM     26  C   UNL     1       5.275   4.433  18.891  0.00  0.00    +0.000 C 
ATOM     27  O   UNL     1       5.784   5.177  19.719  0.00  0.00    +0.000 OA
ATOM     28  H   UNL     1       4.744   2.853  16.090  0.00  0.00    +0.000 HD
BRANCH  24  29
ATOM     29  C   UNL     1       4.844   5.625  16.728  0.00  0.00    +0.000 C 
ATOM     30  C   UNL     1       5.317   6.241  15.421  0.00  0.00    +0.000 C 
ATOM     31  C   UNL     1       5.426   7.025  16.694  0.00  0.00    +0.000 C 
ENDBRANCH  24  29
ENDBRANCH  19  20
ENDBRANCH   2  19
TORSDOF 6
ENDMDL
MODEL 7
REMARK VINA RESULT:      -8.3      2.189      4.163
REMARK  Name = 
REMARK  8 active torsions:
REMARK  status: ('A' for Active; 'I' for Inactive)
REMARK    1  A    between atoms: C_1  and  C_2
REMARK    2  A    between atoms: C_6  and  O_7
REMARK    3  A    between atoms: O_7  and  C_8
REMARK    4  A    between atoms: C_11  and  N_12
REMARK    5  A    between atoms: C_13  and  C_15
REMARK    6  A    between atoms: C_15  and  N_16
REMARK    7  A    between atoms: C_20  and  C_21
REMARK    8  A    between atoms: C_20  and  C_22
REMARK                            x       y       z     vdW  Elec       q    Type
REMARK                         _______ _______ _______ _____ _____    ______ ____
ROOT
ATOM      1  N   UNL     1       2.884   6.534  17.936  0.00  0.00    +0.000 N 
ATOM      2  C   UNL     1       4.180   6.582  17.444  0.00  0.00    +0.000 C 
ATOM      3  O   UNL     1       4.933   7.551  17.497  0.00  0.00    +0.000 OA
ATOM      4  H   UNL     1       2.399   5.646  17.901  0.00  0.00    +0.000 HD
ENDROOT
BRANCH   1   8
ATOM      5  C   UNL     1       0.912   9.821  19.690  0.00  0.00    +0.000 A 
ATOM      6  C   UNL     1       1.315   8.761  20.495  0.00  0.00    +0.000 A 
ATOM      7  C   UNL     1       1.956   7.658  19.929  0.00  0.00    +0.000 A 
ATOM      8  C   UNL     1       2.206   7.603  18.553  0.00  0.00    +0.000 A 
ATOM      9  C   UNL     1       1.775   8.657  17.747  0.00  0.00    +0.000 A 
ATOM     10  C   UNL     1       1.098   9.743  18.303  0.00  0.00    +0.000 A 
BRANCH   5  11
ATOM     11  O   UNL     1       0.310  10.876  20.336  0.00  0.00    +0.000 OA
BRANCH  11  17
ATOM     12  C   UNL     1       3.379  14.634  20.031  0.00  0.00    +0.000 C 
ATOM     13  C   UNL     1       2.043  14.028  19.721  0.00  0.00    +0.000 A 
ATOM     14  C   UNL     1       1.067  14.752  19.025  0.00  0.00    +0.000 A 
ATOM     15  C   UNL     1      -0.160  14.169  18.714  0.00  0.00    +0.000 A 
ATOM     16  C   UNL     1      -0.429  12.859  19.106  0.00  0.00    +0.000 A 
ATOM     17  C   UNL     1       0.511  12.151  19.860  0.00  0.00    +0.000 A 
ATOM     18  C   UNL     1       1.758  12.719  20.131  0.00  0.00    +0.000 A 
ENDBRANCH  11  17
ENDBRANCH   5  11
ENDBRANCH   1   8
BRANCH   2  19
ATOM     19  C   UNL     1       4.631   5.309  16.768  0.00  0.00    +0.000 C 
BRANCH  19  20
ATOM     20  N   UNL     1       4.470   4.194  17.669  0.00  0.00    +0.000 N 
ATOM     21  C   UNL     1       5.339   3.869  18.668  0.00  0.00    +0.000 C 
ATOM     22  O   UNL     1       6.426   4.361  18.911  0.00  0.00    +0.000 OA
ATOM     23  N   UNL     1       4.742   2.913  19.463  0.00  0.00    +0.000 N 
ATOM     24  C   UNL     1       3.321   2.865  19.218  0.00  0.00    +0.000 C 
ATOM     25  C   UNL     1       2.779   1.444  19.245  0.00  0.00    +0.000 C 
ATOM     26  C   UNL     1       3.300   3.499  17.811  0.00  0.00    +0.000 C 
ATOM     27  O   UNL     1       2.352   3.529  17.038  0.00  0.00    +0.000 OA
ATOM     28  H   UNL     1       5.179   2.674  20.343  0.00  0.00    +0.000 HD
BRANCH  24  29
ATOM     29  C   UNL     1       2.553   3.761  20.190  0.00  0.00    +0.000 C 
ATOM     30  C   UNL     1       1.913   3.227  21.461  0.00  0.00    +0.000 C 
ATOM     31  C   UNL     1       1.045   3.738  20.350  0.00  0.00    +0.000 C 
ENDBRANCH  24  29
ENDBRANCH  19  20
ENDBRANCH   2  19
TORSDOF 6
ENDMDL
MODEL 8
REMARK VINA RESULT:      -8.3      1.863      2.929
REMARK  Name = 
REMARK  8 active torsions:
REMARK  status: ('A' for Active; 'I' for Inactive)
REMARK    1  A    between atoms: C_1  and  C_2
REMARK    2  A    between atoms: C_6  and  O_7
REMARK    3  A    between atoms: O_7  and  C_8
REMARK    4  A    between atoms: C_11  and  N_12
REMARK    5  A    between atoms: C_13  and  C_15
REMARK    6  A    between atoms: C_15  and  N_16
REMARK    7  A    between atoms: C_20  and  C_21
REMARK    8  A    between atoms: C_20  and  C_22
REMARK                            x       y       z     vdW  Elec       q    Type
REMARK                         _______ _______ _______ _____ _____    ______ ____
ROOT
ATOM      1  N   UNL     1       2.997   6.057  19.821  0.00  0.00    +0.000 N 
ATOM      2  C   UNL     1       2.422   4.826  20.097  0.00  0.00    +0.000 C 
ATOM      3  O   UNL     1       1.220   4.606  20.219  0.00  0.00    +0.000 OA
ATOM      4  H   UNL     1       3.997   6.087  19.664  0.00  0.00    +0.000 HD
ENDROOT
BRANCH   1   8
ATOM      5  C   UNL     1       0.800   9.636  19.444  0.00  0.00    +0.000 A 
ATOM      6  C   UNL     1       1.498   9.146  18.344  0.00  0.00    +0.000 A 
ATOM      7  C   UNL     1       2.242   7.971  18.455  0.00  0.00    +0.000 A 
ATOM      8  C   UNL     1       2.295   7.269  19.665  0.00  0.00    +0.000 A 
ATOM      9  C   UNL     1       1.616   7.779  20.771  0.00  0.00    +0.000 A 
ATOM     10  C   UNL     1       0.903   8.974  20.675  0.00  0.00    +0.000 A 
BRANCH   5  11
ATOM     11  O   UNL     1       0.075  10.786  19.237  0.00  0.00    +0.000 OA
BRANCH  11  17
ATOM     12  C   UNL     1       3.340  14.202  20.382  0.00  0.00    +0.000 C 
ATOM     13  C   UNL     1       1.987  13.588  20.583  0.00  0.00    +0.000 A 
ATOM     14  C   UNL     1       1.094  14.106  21.529  0.00  0.00    +0.000 A 
ATOM     15  C   UNL     1      -0.174  13.548  21.687  0.00  0.00    +0.000 A 
ATOM     16  C   UNL     1      -0.558  12.459  20.907  0.00  0.00    +0.000 A 
ATOM     17  C   UNL     1       0.349  11.893  20.007  0.00  0.00    +0.000 A 
ATOM     18  C   UNL     1       1.601  12.480  19.817  0.00  0.00    +0.000 A 
ENDBRANCH  11  17
ENDBRANCH   5  11
ENDBRANCH   1   8
BRANCH   2  19
ATOM     19  C   UNL     1       3.419   3.706  20.283  0.00  0.00    +0.000 C 
BRANCH  19  20
ATOM     20  N   UNL     1       4.263   3.606  19.117  0.00  0.00    +0.000 N 
ATOM     21  C   UNL     1       3.941   2.928  17.980  0.00  0.00    +0.000 C 
ATOM     22  O   UNL     1       2.976   2.213  17.776  0.00  0.00    +0.000 OA
ATOM     23  N   UNL     1       4.864   3.255  17.008  0.00  0.00    +0.000 N 
ATOM     24  C   UNL     1       5.592   4.443  17.380  0.00  0.00    +0.000 C 
ATOM     25  C   UNL     1       7.062   4.362  16.995  0.00  0.00    +0.000 C 
ATOM     26  C   UNL     1       5.357   4.399  18.905  0.00  0.00    +0.000 C 
ATOM     27  O   UNL     1       5.922   5.080  19.750  0.00  0.00    +0.000 OA
ATOM     28  H   UNL     1       4.685   2.967  16.055  0.00  0.00    +0.000 HD
BRANCH  24  29
ATOM     29  C   UNL     1       4.945   5.702  16.802  0.00  0.00    +0.000 C 
ATOM     30  C   UNL     1       5.340   6.276  15.451  0.00  0.00    +0.000 C 
ATOM     31  C   UNL     1       5.645   7.043  16.704  0.00  0.00    +0.000 C 
ENDBRANCH  24  29
ENDBRANCH  19  20
ENDBRANCH   2  19
TORSDOF 6
ENDMDL
MODEL 9
REMARK VINA RESULT:      -8.2      1.440      3.581
REMARK  Name = 
REMARK  8 active torsions:
REMARK  status: ('A' for Active; 'I' for Inactive)
REMARK    1  A    between atoms: C_1  and  C_2
REMARK    2  A    between atoms: C_6  and  O_7
REMARK    3  A    between atoms: O_7  and  C_8
REMARK    4  A    between atoms: C_11  and  N_12
REMARK    5  A    between atoms: C_13  and  C_15
REMARK    6  A    between atoms: C_15  and  N_16
REMARK    7  A    between atoms: C_20  and  C_21
REMARK    8  A    between atoms: C_20  and  C_22
REMARK                            x       y       z     vdW  Elec       q    Type
REMARK                         _______ _______ _______ _____ _____    ______ ____
ROOT
ATOM      1  N   UNL     1       3.042   6.477  17.868  0.00  0.00    +0.000 N 
ATOM      2  C   UNL     1       4.332   6.534  17.364  0.00  0.00    +0.000 C 
ATOM      3  O   UNL     1       5.065   7.520  17.380  0.00  0.00    +0.000 OA
ATOM      4  H   UNL     1       2.574   5.578  17.866  0.00  0.00    +0.000 HD
ENDROOT
BRANCH   1   8
ATOM      5  C   UNL     1       1.030   9.781  19.542  0.00  0.00    +0.000 A 
ATOM      6  C   UNL     1       1.313   8.679  20.343  0.00  0.00    +0.000 A 
ATOM      7  C   UNL     1       1.966   7.571  19.802  0.00  0.00    +0.000 A 
ATOM      8  C   UNL     1       2.346   7.551  18.455  0.00  0.00    +0.000 A 
ATOM      9  C   UNL     1       2.034   8.647  17.650  0.00  0.00    +0.000 A 
ATOM     10  C   UNL     1       1.347   9.740  18.178  0.00  0.00    +0.000 A 
BRANCH   5  11
ATOM     11  O   UNL     1       0.406  10.836  20.165  0.00  0.00    +0.000 OA
BRANCH  11  17
ATOM     12  C   UNL     1      -3.449  13.679  20.999  0.00  0.00    +0.000 C 
ATOM     13  C   UNL     1      -2.778  12.619  20.178  0.00  0.00    +0.000 A 
ATOM     14  C   UNL     1      -3.431  12.032  19.086  0.00  0.00    +0.000 A 
ATOM     15  C   UNL     1      -2.787  11.070  18.309  0.00  0.00    +0.000 A 
ATOM     16  C   UNL     1      -1.488  10.676  18.623  0.00  0.00    +0.000 A 
ATOM     17  C   UNL     1      -0.852  11.206  19.749  0.00  0.00    +0.000 A 
ATOM     18  C   UNL     1      -1.480  12.203  20.499  0.00  0.00    +0.000 A 
ENDBRANCH  11  17
ENDBRANCH   5  11
ENDBRANCH   1   8
BRANCH   2  19
ATOM     19  C   UNL     1       4.805   5.249  16.727  0.00  0.00    +0.000 C 
BRANCH  19  20
ATOM     20  N   UNL     1       4.610   4.151  17.640  0.00  0.00    +0.000 N 
ATOM     21  C   UNL     1       5.421   3.864  18.697  0.00  0.00    +0.000 C 
ATOM     22  O   UNL     1       6.482   4.382  18.996  0.00  0.00    +0.000 OA
ATOM     23  N   UNL     1       4.794   2.913  19.475  0.00  0.00    +0.000 N 
ATOM     24  C   UNL     1       3.392   2.830  19.145  0.00  0.00    +0.000 C 
ATOM     25  C   UNL     1       2.877   1.399  19.169  0.00  0.00    +0.000 C 
ATOM     26  C   UNL     1       3.447   3.435  17.725  0.00  0.00    +0.000 C 
ATOM     27  O   UNL     1       2.548   3.429  16.894  0.00  0.00    +0.000 OA
ATOM     28  H   UNL     1       5.180   2.700  20.385  0.00  0.00    +0.000 HD
BRANCH  24  29
ATOM     29  C   UNL     1       2.549   3.731  20.047  0.00  0.00    +0.000 C 
ATOM     30  C   UNL     1       2.168   3.338  21.466  0.00  0.00    +0.000 C 
ATOM     31  C   UNL     1       1.105   3.446  20.413  0.00  0.00    +0.000 C 
ENDBRANCH  24  29
ENDBRANCH  19  20
ENDBRANCH   2  19
TORSDOF 6
ENDMDL
