MODEL 1
REMARK VINA RESULT:      -8.0      0.000      0.000
REMARK  Name = 
REMARK  3 active torsions:
REMARK  status: ('A' for Active; 'I' for Inactive)
REMARK    1  A    between atoms: C_2  and  C_20
REMARK    2  A    between atoms: N_3  and  C_4
REMARK    3  A    between atoms: C_6  and  C_7
REMARK                            x       y       z     vdW  Elec       q    Type
REMARK                         _______ _______ _______ _____ _____    ______ ____
ROOT
ATOM      1  C   UNL     1       0.655  10.107  19.972  0.00  0.00    +0.000 A 
ATOM      2  C   UNL     1       1.059   8.802  20.241  0.00  0.00    +0.000 A 
ATOM      3  C   UNL     1       1.875   8.089  19.353  0.00  0.00    +0.000 A 
ATOM      4  C   UNL     1       2.246   8.689  18.145  0.00  0.00    +0.000 A 
ATOM      5  C   UNL     1       1.820   9.985  17.843  0.00  0.00    +0.000 A 
ATOM      6  C   UNL     1       1.030  10.683  18.754  0.00  0.00    +0.000 A 
ATOM      7  F   UNL     1       0.646  11.936  18.464  0.00  0.00    +0.000 F 
ENDROOT
BRANCH   3   8
ATOM      8  C   UNL     1       2.315   6.739  19.698  0.00  0.00    +0.000 A 
ATOM      9  N   UNL     1       3.250   6.031  19.092  0.00  0.00    +0.000 NA
ATOM     10  C   UNL     1       3.259   4.809  19.721  0.00  0.00    +0.000 A 
ATOM     11  C   UNL     1       4.021   3.666  19.449  0.00  0.00    +0.000 A 
ATOM     12  C   UNL     1       3.833   2.531  20.248  0.00  0.00    +0.000 A 
ATOM     13  C   UNL     1       2.907   2.533  21.294  0.00  0.00    +0.000 A 
ATOM     14  C   UNL     1       2.136   3.664  21.581  0.00  0.00    +0.000 A 
ATOM     15  C   UNL     1       2.342   4.778  20.764  0.00  0.00    +0.000 A 
ATOM     16  N   UNL     1       1.776   6.021  20.744  0.00  0.00    +0.000 N 
ATOM     17  H   UNL     1       1.061   6.353  21.375  0.00  0.00    +0.000 HD
ENDBRANCH   3   8
BRANCH   1  20
ATOM     18  O   UNL     1       1.417  12.487  21.493  0.00  0.00    +0.000 OA
ATOM     19  C   UNL     1       0.308  11.962  21.592  0.00  0.00    +0.000 C 
ATOM     20  N   UNL     1      -0.126  10.856  20.879  0.00  0.00    +0.000 N 
ATOM     21  H   UNL     1      -1.114  10.623  20.895  0.00  0.00    +0.000 HD
BRANCH  19  22
ATOM     22  C   UNL     1      -0.714  12.550  22.557  0.00  0.00    +0.000 C 
ATOM     23  C   UNL     1      -2.104  11.964  22.267  0.00  0.00    +0.000 C 
ATOM     24  C   UNL     1      -3.114  12.268  23.370  0.00  0.00    +0.000 C 
ATOM     25  C   UNL     1      -3.761  13.645  23.248  0.00  0.00    +0.000 C 
ATOM     26  O   UNL     1      -2.902  14.681  22.793  0.00  0.00    +0.000 OA
ATOM     27  C   UNL     1      -1.645  14.758  23.449  0.00  0.00    +0.000 C 
ATOM     28  C   UNL     1      -0.607  14.079  22.572  0.00  0.00    +0.000 C 
ENDBRANCH  19  22
ENDBRANCH   1  20
TORSDOF 3
ENDMDL
MODEL 2
REMARK VINA RESULT:      -7.9      4.269      6.390
REMARK  Name = 
REMARK  3 active torsions:
REMARK  status: ('A' for Active; 'I' for Inactive)
REMARK    1  A    between atoms: C_2  and  C_20
REMARK    2  A    between atoms: N_3  and  C_4
REMARK    3  A    between atoms: C_6  and  C_7
REMARK                            x       y       z     vdW  Elec       q    Type
REMARK                         _______ _______ _______ _____ _____    ______ ____
ROOT
ATOM      1  C   UNL     1       3.285   5.462  19.335  0.00  0.00    +0.000 A 
ATOM      2  C   UNL     1       4.063   5.496  18.180  0.00  0.00    +0.000 A 
ATOM      3  C   UNL     1       4.553   4.324  17.590  0.00  0.00    +0.000 A 
ATOM      4  C   UNL     1       4.297   3.096  18.210  0.00  0.00    +0.000 A 
ATOM      5  C   UNL     1       3.548   3.046  19.389  0.00  0.00    +0.000 A 
ATOM      6  C   UNL     1       3.050   4.224  19.942  0.00  0.00    +0.000 A 
ATOM      7  F   UNL     1       2.311   4.162  21.061  0.00  0.00    +0.000 F 
ENDROOT
BRANCH   3   8
ATOM      8  C   UNL     1       5.325   4.402  16.352  0.00  0.00    +0.000 A 
ATOM      9  N   UNL     1       6.352   5.194  16.107  0.00  0.00    +0.000 NA
ATOM     10  C   UNL     1       6.697   4.963  14.797  0.00  0.00    +0.000 A 
ATOM     11  C   UNL     1       7.686   5.567  14.010  0.00  0.00    +0.000 A 
ATOM     12  C   UNL     1       7.833   5.148  12.682  0.00  0.00    +0.000 A 
ATOM     13  C   UNL     1       7.015   4.149  12.148  0.00  0.00    +0.000 A 
ATOM     14  C   UNL     1       6.021   3.534  12.918  0.00  0.00    +0.000 A 
ATOM     15  C   UNL     1       5.896   3.977  14.236  0.00  0.00    +0.000 A 
ATOM     16  N   UNL     1       5.052   3.621  15.250  0.00  0.00    +0.000 N 
ATOM     17  H   UNL     1       4.329   2.918  15.194  0.00  0.00    +0.000 HD
ENDBRANCH   3   8
BRANCH   1  20
ATOM     18  O   UNL     1       1.951   7.697  18.001  0.00  0.00    +0.000 OA
ATOM     19  C   UNL     1       2.146   7.669  19.216  0.00  0.00    +0.000 C 
ATOM     20  N   UNL     1       2.742   6.630  19.912  0.00  0.00    +0.000 N 
ATOM     21  H   UNL     1       2.681   6.624  20.926  0.00  0.00    +0.000 HD
BRANCH  19  22
ATOM     22  C   UNL     1       1.699   8.847  20.072  0.00  0.00    +0.000 C 
ATOM     23  C   UNL     1       1.024   8.336  21.354  0.00  0.00    +0.000 C 
ATOM     24  C   UNL     1       0.823   9.435  22.393  0.00  0.00    +0.000 C 
ATOM     25  C   UNL     1      -0.432  10.273  22.166  0.00  0.00    +0.000 C 
ATOM     26  O   UNL     1      -0.744  10.543  20.807  0.00  0.00    +0.000 OA
ATOM     27  C   UNL     1       0.340  11.012  20.018  0.00  0.00    +0.000 C 
ATOM     28  C   UNL     1       0.895   9.841  19.226  0.00  0.00    +0.000 C 
ENDBRANCH  19  22
ENDBRANCH   1  20
TORSDOF 3
ENDMDL
MODEL 3
REMARK VINA RESULT:      -7.8      4.175      6.274
REMARK  Name = 
REMARK  3 active torsions:
REMARK  status: ('A' for Active; 'I' for Inactive)
REMARK    1  A    between atoms: C_2  and  C_20
REMARK    2  A    between atoms: N_3  and  C_4
REMARK    3  A    between atoms: C_6  and  C_7
REMARK                            x       y       z     vdW  Elec       q    Type
REMARK                         _______ _______ _______ _____ _____    ______ ____
ROOT
ATOM      1  C   UNL     1       3.013   6.141  18.963  0.00  0.00    +0.000 A 
ATOM      2  C   UNL     1       3.782   6.023  17.808  0.00  0.00    +0.000 A 
ATOM      3  C   UNL     1       4.515   4.862  17.529  0.00  0.00    +0.000 A 
ATOM      4  C   UNL     1       4.512   3.820  18.463  0.00  0.00    +0.000 A 
ATOM      5  C   UNL     1       3.775   3.936  19.645  0.00  0.00    +0.000 A 
ATOM      6  C   UNL     1       3.034   5.091  19.886  0.00  0.00    +0.000 A 
ATOM      7  F   UNL     1       2.310   5.181  21.013  0.00  0.00    +0.000 F 
ENDROOT
BRANCH   3   8
ATOM      8  C   UNL     1       5.269   4.763  16.282  0.00  0.00    +0.000 A 
ATOM      9  N   UNL     1       6.351   5.444  15.954  0.00  0.00    +0.000 NA
ATOM     10  C   UNL     1       6.655   5.063  14.668  0.00  0.00    +0.000 A 
ATOM     11  C   UNL     1       7.674   5.511  13.818  0.00  0.00    +0.000 A 
ATOM     12  C   UNL     1       7.766   4.958  12.534  0.00  0.00    +0.000 A 
ATOM     13  C   UNL     1       6.864   3.980  12.106  0.00  0.00    +0.000 A 
ATOM     14  C   UNL     1       5.839   3.521  12.940  0.00  0.00    +0.000 A 
ATOM     15  C   UNL     1       5.770   4.095  14.212  0.00  0.00    +0.000 A 
ATOM     16  N   UNL     1       4.918   3.904  15.262  0.00  0.00    +0.000 N 
ATOM     17  H   UNL     1       4.142   3.259  15.281  0.00  0.00    +0.000 HD
ENDBRANCH   3   8
BRANCH   1  20
ATOM     18  O   UNL     1       2.533   8.463  17.250  0.00  0.00    +0.000 OA
ATOM     19  C   UNL     1       2.067   8.367  18.385  0.00  0.00    +0.000 C 
ATOM     20  N   UNL     1       2.230   7.284  19.234  0.00  0.00    +0.000 N 
ATOM     21  H   UNL     1       1.651   7.225  20.066  0.00  0.00    +0.000 HD
BRANCH  19  22
ATOM     22  C   UNL     1       1.221   9.504  18.944  0.00  0.00    +0.000 C 
ATOM     23  C   UNL     1       1.815  10.855  18.516  0.00  0.00    +0.000 C 
ATOM     24  C   UNL     1       0.867  12.024  18.777  0.00  0.00    +0.000 C 
ATOM     25  C   UNL     1       0.920  12.549  20.209  0.00  0.00    +0.000 C 
ATOM     26  O   UNL     1       1.087  11.558  21.213  0.00  0.00    +0.000 OA
ATOM     27  C   UNL     1       0.223  10.436  21.106  0.00  0.00    +0.000 C 
ATOM     28  C   UNL     1       0.993   9.304  20.446  0.00  0.00    +0.000 C 
ENDBRANCH  19  22
ENDBRANCH   1  20
TORSDOF 3
ENDMDL
MODEL 4
REMARK VINA RESULT:      -7.7      4.261      6.376
REMARK  Name = 
REMARK  3 active torsions:
REMARK  status: ('A' for Active; 'I' for Inactive)
REMARK    1  A    between atoms: C_2  and  C_20
REMARK    2  A    between atoms: N_3  and  C_4
REMARK    3  A    between atoms: C_6  and  C_7
REMARK                            x       y       z     vdW  Elec       q    Type
REMARK                         _______ _______ _______ _____ _____    ______ ____
ROOT
ATOM      1  C   UNL     1       3.250   5.471  19.340  0.00  0.00    +0.000 A 
ATOM      2  C   UNL     1       3.936   5.497  18.128  0.00  0.00    +0.000 A 
ATOM      3  C   UNL     1       4.424   4.325  17.536  0.00  0.00    +0.000 A 
ATOM      4  C   UNL     1       4.263   3.109  18.209  0.00  0.00    +0.000 A 
ATOM      5  C   UNL     1       3.609   3.069  19.443  0.00  0.00    +0.000 A 
ATOM      6  C   UNL     1       3.110   4.246  19.999  0.00  0.00    +0.000 A 
ATOM      7  F   UNL     1       2.462   4.192  21.173  0.00  0.00    +0.000 F 
ENDROOT
BRANCH   3   8
ATOM      8  C   UNL     1       5.095   4.393  16.240  0.00  0.00    +0.000 A 
ATOM      9  N   UNL     1       4.798   3.702  15.156  0.00  0.00    +0.000 NA
ATOM     10  C   UNL     1       5.743   4.050  14.220  0.00  0.00    +0.000 A 
ATOM     11  C   UNL     1       5.927   3.580  12.914  0.00  0.00    +0.000 A 
ATOM     12  C   UNL     1       6.984   4.102  12.158  0.00  0.00    +0.000 A 
ATOM     13  C   UNL     1       7.839   5.072  12.689  0.00  0.00    +0.000 A 
ATOM     14  C   UNL     1       7.671   5.553  13.992  0.00  0.00    +0.000 A 
ATOM     15  C   UNL     1       6.612   5.010  14.722  0.00  0.00    +0.000 A 
ATOM     16  N   UNL     1       6.165   5.228  15.994  0.00  0.00    +0.000 N 
ATOM     17  H   UNL     1       6.567   5.875  16.657  0.00  0.00    +0.000 HD
ENDBRANCH   3   8
BRANCH   1  20
ATOM     18  O   UNL     1       1.962   7.739  18.016  0.00  0.00    +0.000 OA
ATOM     19  C   UNL     1       2.136   7.691  19.233  0.00  0.00    +0.000 C 
ATOM     20  N   UNL     1       2.709   6.636  19.925  0.00  0.00    +0.000 N 
ATOM     21  H   UNL     1       2.631   6.617  20.937  0.00  0.00    +0.000 HD
BRANCH  19  22
ATOM     22  C   UNL     1       1.686   8.862  20.098  0.00  0.00    +0.000 C 
ATOM     23  C   UNL     1       0.952   8.340  21.343  0.00  0.00    +0.000 C 
ATOM     24  C   UNL     1       0.738   9.422  22.398  0.00  0.00    +0.000 C 
ATOM     25  C   UNL     1      -0.487  10.295  22.144  0.00  0.00    +0.000 C 
ATOM     26  O   UNL     1      -0.742  10.602  20.780  0.00  0.00    +0.000 OA
ATOM     27  C   UNL     1       0.381  11.060  20.042  0.00  0.00    +0.000 C 
ATOM     28  C   UNL     1       0.937   9.893  19.245  0.00  0.00    +0.000 C 
ENDBRANCH  19  22
ENDBRANCH   1  20
TORSDOF 3
ENDMDL
MODEL 5
REMARK VINA RESULT:      -7.7      4.249      6.358
REMARK  Name = 
REMARK  3 active torsions:
REMARK  status: ('A' for Active; 'I' for Inactive)
REMARK    1  A    between atoms: C_2  and  C_20
REMARK    2  A    between atoms: N_3  and  C_4
REMARK    3  A    between atoms: C_6  and  C_7
REMARK                            x       y       z     vdW  Elec       q    Type
REMARK                         _______ _______ _______ _____ _____    ______ ____
ROOT
ATOM      1  C   UNL     1       3.093   6.089  18.909  0.00  0.00    +0.000 A 
ATOM      2  C   UNL     1       3.763   5.974  17.694  0.00  0.00    +0.000 A 
ATOM      3  C   UNL     1       4.537   4.847  17.386  0.00  0.00    +0.000 A 
ATOM      4  C   UNL     1       4.679   3.841  18.347  0.00  0.00    +0.000 A 
ATOM      5  C   UNL     1       4.042   3.956  19.586  0.00  0.00    +0.000 A 
ATOM      6  C   UNL     1       3.257   5.075  19.858  0.00  0.00    +0.000 A 
ATOM      7  F   UNL     1       2.631   5.164  21.042  0.00  0.00    +0.000 F 
ENDROOT
BRANCH   3   8
ATOM      8  C   UNL     1       5.183   4.747  16.080  0.00  0.00    +0.000 A 
ATOM      9  N   UNL     1       4.855   3.935  15.092  0.00  0.00    +0.000 NA
ATOM     10  C   UNL     1       5.786   4.152  14.105  0.00  0.00    +0.000 A 
ATOM     11  C   UNL     1       5.937   3.525  12.862  0.00  0.00    +0.000 A 
ATOM     12  C   UNL     1       6.988   3.934  12.030  0.00  0.00    +0.000 A 
ATOM     13  C   UNL     1       7.867   4.944  12.426  0.00  0.00    +0.000 A 
ATOM     14  C   UNL     1       7.733   5.582  13.664  0.00  0.00    +0.000 A 
ATOM     15  C   UNL     1       6.680   5.149  14.472  0.00  0.00    +0.000 A 
ATOM     16  N   UNL     1       6.261   5.527  15.717  0.00  0.00    +0.000 N 
ATOM     17  H   UNL     1       6.686   6.242  16.289  0.00  0.00    +0.000 HD
ENDBRANCH   3   8
BRANCH   1  20
ATOM     18  O   UNL     1       2.605   8.488  17.309  0.00  0.00    +0.000 OA
ATOM     19  C   UNL     1       2.105   8.318  18.420  0.00  0.00    +0.000 C 
ATOM     20  N   UNL     1       2.270   7.194  19.214  0.00  0.00    +0.000 N 
ATOM     21  H   UNL     1       1.665   7.074  20.021  0.00  0.00    +0.000 HD
BRANCH  19  22
ATOM     22  C   UNL     1       1.209   9.400  19.010  0.00  0.00    +0.000 C 
ATOM     23  C   UNL     1       1.709  10.786  18.577  0.00  0.00    +0.000 C 
ATOM     24  C   UNL     1       0.703  11.895  18.872  0.00  0.00    +0.000 C 
ATOM     25  C   UNL     1       0.764  12.414  20.305  0.00  0.00    +0.000 C 
ATOM     26  O   UNL     1       1.016  11.429  21.298  0.00  0.00    +0.000 OA
ATOM     27  C   UNL     1       0.218  10.258  21.206  0.00  0.00    +0.000 C 
ATOM     28  C   UNL     1       1.034   9.177  20.517  0.00  0.00    +0.000 C 
ENDBRANCH  19  22
ENDBRANCH   1  20
TORSDOF 3
ENDMDL
MODEL 6
REMARK VINA RESULT:      -7.6      3.546      8.820
REMARK  Name = 
REMARK  3 active torsions:
REMARK  status: ('A' for Active; 'I' for Inactive)
REMARK    1  A    between atoms: C_2  and  C_20
REMARK    2  A    between atoms: N_3  and  C_4
REMARK    3  A    between atoms: C_6  and  C_7
REMARK                            x       y       z     vdW  Elec       q    Type
REMARK                         _______ _______ _______ _____ _____    ______ ____
ROOT
ATOM      1  C   UNL     1       0.623  10.570  18.773  0.00  0.00    +0.000 A 
ATOM      2  C   UNL     1      -0.747  10.725  18.974  0.00  0.00    +0.000 A 
ATOM      3  C   UNL     1      -1.364  11.980  18.885  0.00  0.00    +0.000 A 
ATOM      4  C   UNL     1      -0.573  13.107  18.639  0.00  0.00    +0.000 A 
ATOM      5  C   UNL     1       0.808  12.975  18.469  0.00  0.00    +0.000 A 
ATOM      6  C   UNL     1       1.394  11.712  18.538  0.00  0.00    +0.000 A 
ATOM      7  F   UNL     1       2.718  11.593  18.349  0.00  0.00    +0.000 F 
ENDROOT
BRANCH   3   8
ATOM      8  C   UNL     1      -2.811  12.090  19.056  0.00  0.00    +0.000 A 
ATOM      9  N   UNL     1      -3.456  12.406  20.163  0.00  0.00    +0.000 NA
ATOM     10  C   UNL     1      -4.792  12.312  19.855  0.00  0.00    +0.000 A 
ATOM     11  C   UNL     1      -5.915  12.493  20.672  0.00  0.00    +0.000 A 
ATOM     12  C   UNL     1      -7.187  12.331  20.107  0.00  0.00    +0.000 A 
ATOM     13  C   UNL     1      -7.338  11.998  18.759  0.00  0.00    +0.000 A 
ATOM     14  C   UNL     1      -6.228  11.812  17.927  0.00  0.00    +0.000 A 
ATOM     15  C   UNL     1      -4.975  11.975  18.521  0.00  0.00    +0.000 A 
ATOM     16  N   UNL     1      -3.704  11.865  18.031  0.00  0.00    +0.000 N 
ATOM     17  H   UNL     1      -3.458  11.632  17.079  0.00  0.00    +0.000 HD
ENDBRANCH   3   8
BRANCH   1  20
ATOM     18  O   UNL     1       1.235   8.913  21.103  0.00  0.00    +0.000 OA
ATOM     19  C   UNL     1       1.539   8.585  19.957  0.00  0.00    +0.000 C 
ATOM     20  N   UNL     1       1.251   9.307  18.810  0.00  0.00    +0.000 N 
ATOM     21  H   UNL     1       1.376   8.858  17.907  0.00  0.00    +0.000 HD
BRANCH  19  22
ATOM     22  C   UNL     1       2.283   7.275  19.726  0.00  0.00    +0.000 C 
ATOM     23  C   UNL     1       2.432   7.018  18.219  0.00  0.00    +0.000 C 
ATOM     24  C   UNL     1       3.418   5.895  17.908  0.00  0.00    +0.000 C 
ATOM     25  C   UNL     1       2.808   4.499  18.001  0.00  0.00    +0.000 C 
ATOM     26  O   UNL     1       1.863   4.317  19.046  0.00  0.00    +0.000 OA
ATOM     27  C   UNL     1       2.273   4.789  20.322  0.00  0.00    +0.000 C 
ATOM     28  C   UNL     1       1.644   6.152  20.551  0.00  0.00    +0.000 C 
ENDBRANCH  19  22
ENDBRANCH   1  20
TORSDOF 3
ENDMDL
MODEL 7
REMARK VINA RESULT:      -7.6      1.322      1.942
REMARK  Name = 
REMARK  3 active torsions:
REMARK  status: ('A' for Active; 'I' for Inactive)
REMARK    1  A    between atoms: C_2  and  C_20
REMARK    2  A    between atoms: N_3  and  C_4
REMARK    3  A    between atoms: C_6  and  C_7
REMARK                            x       y       z     vdW  Elec       q    Type
REMARK                         _______ _______ _______ _____ _____    ______ ____
ROOT
ATOM      1  C   UNL     1       0.755  10.187  19.747  0.00  0.00    +0.000 A 
ATOM      2  C   UNL     1       1.021   8.854  20.048  0.00  0.00    +0.000 A 
ATOM      3  C   UNL     1       1.918   8.094  19.287  0.00  0.00    +0.000 A 
ATOM      4  C   UNL     1       2.519   8.679  18.167  0.00  0.00    +0.000 A 
ATOM      5  C   UNL     1       2.237  10.006  17.829  0.00  0.00    +0.000 A 
ATOM      6  C   UNL     1       1.360  10.748  18.618  0.00  0.00    +0.000 A 
ATOM      7  F   UNL     1       1.115  12.028  18.299  0.00  0.00    +0.000 F 
ENDROOT
BRANCH   3   8
ATOM      8  C   UNL     1       2.203   6.712  19.667  0.00  0.00    +0.000 A 
ATOM      9  N   UNL     1       1.614   6.014  20.618  0.00  0.00    +0.000 NA
ATOM     10  C   UNL     1       2.263   4.803  20.649  0.00  0.00    +0.000 A 
ATOM     11  C   UNL     1       2.074   3.706  21.500  0.00  0.00    +0.000 A 
ATOM     12  C   UNL     1       2.883   2.576  21.323  0.00  0.00    +0.000 A 
ATOM     13  C   UNL     1       3.855   2.537  20.321  0.00  0.00    +0.000 A 
ATOM     14  C   UNL     1       4.059   3.622  19.462  0.00  0.00    +0.000 A 
ATOM     15  C   UNL     1       3.242   4.736  19.667  0.00  0.00    +0.000 A 
ATOM     16  N   UNL     1       3.166   5.948  19.042  0.00  0.00    +0.000 N 
ATOM     17  H   UNL     1       3.740   6.248  18.266  0.00  0.00    +0.000 HD
ENDBRANCH   3   8
BRANCH   1  20
ATOM     18  O   UNL     1      -1.886  11.236  19.055  0.00  0.00    +0.000 OA
ATOM     19  C   UNL     1      -1.340  11.470  20.133  0.00  0.00    +0.000 C 
ATOM     20  N   UNL     1      -0.108  10.980  20.534  0.00  0.00    +0.000 N 
ATOM     21  H   UNL     1       0.161  11.076  21.509  0.00  0.00    +0.000 HD
BRANCH  19  22
ATOM     22  C   UNL     1      -2.045  12.357  21.151  0.00  0.00    +0.000 C 
ATOM     23  C   UNL     1      -1.790  11.827  22.571  0.00  0.00    +0.000 C 
ATOM     24  C   UNL     1      -2.205  12.820  23.653  0.00  0.00    +0.000 C 
ATOM     25  C   UNL     1      -3.691  12.773  23.993  0.00  0.00    +0.000 C 
ATOM     26  O   UNL     1      -4.560  12.552  22.891  0.00  0.00    +0.000 OA
ATOM     27  C   UNL     1      -4.315  13.368  21.754  0.00  0.00    +0.000 C 
ATOM     28  C   UNL     1      -3.511  12.558  20.751  0.00  0.00    +0.000 C 
ENDBRANCH  19  22
ENDBRANCH   1  20
TORSDOF 3
ENDMDL
MODEL 8
REMARK VINA RESULT:      -7.6      1.479      1.714
REMARK  Name = 
REMARK  3 active torsions:
REMARK  status: ('A' for Active; 'I' for Inactive)
REMARK    1  A    between atoms: C_2  and  C_20
REMARK    2  A    between atoms: N_3  and  C_4
REMARK    3  A    between atoms: C_6  and  C_7
REMARK                            x       y       z     vdW  Elec       q    Type
REMARK                         _______ _______ _______ _____ _____    ______ ____
ROOT
ATOM      1  C   UNL     1       0.640  10.494  19.717  0.00  0.00    +0.000 A 
ATOM      2  C   UNL     1       0.881   9.135  19.902  0.00  0.00    +0.000 A 
ATOM      3  C   UNL     1       1.804   8.440  19.110  0.00  0.00    +0.000 A 
ATOM      4  C   UNL     1       2.457   9.120  18.076  0.00  0.00    +0.000 A 
ATOM      5  C   UNL     1       2.200  10.475  17.854  0.00  0.00    +0.000 A 
ATOM      6  C   UNL     1       1.297  11.151  18.672  0.00  0.00    +0.000 A 
ATOM      7  F   UNL     1       1.076  12.458  18.465  0.00  0.00    +0.000 F 
ENDROOT
BRANCH   3   8
ATOM      8  C   UNL     1       2.062   7.025  19.370  0.00  0.00    +0.000 A 
ATOM      9  N   UNL     1       2.442   6.114  18.494  0.00  0.00    +0.000 NA
ATOM     10  C   UNL     1       2.485   4.927  19.185  0.00  0.00    +0.000 A 
ATOM     11  C   UNL     1       2.780   3.635  18.730  0.00  0.00    +0.000 A 
ATOM     12  C   UNL     1       2.749   2.579  19.650  0.00  0.00    +0.000 A 
ATOM     13  C   UNL     1       2.434   2.804  20.993  0.00  0.00    +0.000 A 
ATOM     14  C   UNL     1       2.136   4.086  21.465  0.00  0.00    +0.000 A 
ATOM     15  C   UNL     1       2.169   5.117  20.524  0.00  0.00    +0.000 A 
ATOM     16  N   UNL     1       1.930   6.458  20.620  0.00  0.00    +0.000 N 
ATOM     17  H   UNL     1       1.674   6.952  21.463  0.00  0.00    +0.000 HD
ENDBRANCH   3   8
BRANCH   1  20
ATOM     18  O   UNL     1      -2.075  11.396  19.106  0.00  0.00    +0.000 OA
ATOM     19  C   UNL     1      -1.518  11.643  20.176  0.00  0.00    +0.000 C 
ATOM     20  N   UNL     1      -0.249  11.220  20.539  0.00  0.00    +0.000 N 
ATOM     21  H   UNL     1       0.037  11.315  21.509  0.00  0.00    +0.000 HD
BRANCH  19  22
ATOM     22  C   UNL     1      -2.249  12.468  21.227  0.00  0.00    +0.000 C 
ATOM     23  C   UNL     1      -1.953  11.911  22.627  0.00  0.00    +0.000 C 
ATOM     24  C   UNL     1      -2.399  12.853  23.743  0.00  0.00    +0.000 C 
ATOM     25  C   UNL     1      -3.877  12.729  24.097  0.00  0.00    +0.000 C 
ATOM     26  O   UNL     1      -4.749  12.500  22.999  0.00  0.00    +0.000 OA
ATOM     27  C   UNL     1      -4.555  13.358  21.884  0.00  0.00    +0.000 C 
ATOM     28  C   UNL     1      -3.728  12.615  20.849  0.00  0.00    +0.000 C 
ENDBRANCH  19  22
ENDBRANCH   1  20
TORSDOF 3
ENDMDL
MODEL 9
REMARK VINA RESULT:      -7.5      3.334      4.061
REMARK  Name = 
REMARK  3 active torsions:
REMARK  status: ('A' for Active; 'I' for Inactive)
REMARK    1  A    between atoms: C_2  and  C_20
REMARK    2  A    between atoms: N_3  and  C_4
REMARK    3  A    between atoms: C_6  and  C_7
REMARK                            x       y       z     vdW  Elec       q    Type
REMARK                         _______ _______ _______ _____ _____    ______ ____
ROOT
ATOM      1  C   UNL     1      -0.815  11.726  18.826  0.00  0.00    +0.000 A 
ATOM      2  C   UNL     1      -0.190  10.482  18.811  0.00  0.00    +0.000 A 
ATOM      3  C   UNL     1       1.196  10.359  18.653  0.00  0.00    +0.000 A 
ATOM      4  C   UNL     1       1.959  11.514  18.452  0.00  0.00    +0.000 A 
ATOM      5  C   UNL     1       1.344  12.769  18.429  0.00  0.00    +0.000 A 
ATOM      6  C   UNL     1      -0.034  12.866  18.614  0.00  0.00    +0.000 A 
ATOM      7  F   UNL     1      -0.611  14.078  18.614  0.00  0.00    +0.000 F 
ENDROOT
BRANCH   3   8
ATOM      8  C   UNL     1       1.816   9.036  18.691  0.00  0.00    +0.000 A 
ATOM      9  N   UNL     1       2.563   8.483  17.755  0.00  0.00    +0.000 NA
ATOM     10  C   UNL     1       2.854   7.219  18.208  0.00  0.00    +0.000 A 
ATOM     11  C   UNL     1       3.573   6.188  17.589  0.00  0.00    +0.000 A 
ATOM     12  C   UNL     1       3.723   4.974  18.272  0.00  0.00    +0.000 A 
ATOM     13  C   UNL     1       3.172   4.790  19.542  0.00  0.00    +0.000 A 
ATOM     14  C   UNL     1       2.450   5.807  20.176  0.00  0.00    +0.000 A 
ATOM     15  C   UNL     1       2.313   7.003  19.468  0.00  0.00    +0.000 A 
ATOM     16  N   UNL     1       1.682   8.178  19.762  0.00  0.00    +0.000 N 
ATOM     17  H   UNL     1       1.178   8.379  20.614  0.00  0.00    +0.000 HD
ENDBRANCH   3   8
BRANCH   1  20
ATOM     18  O   UNL     1      -2.993  11.307  16.919  0.00  0.00    +0.000 OA
ATOM     19  C   UNL     1      -3.186  11.682  18.075  0.00  0.00    +0.000 C 
ATOM     20  N   UNL     1      -2.204  11.869  19.035  0.00  0.00    +0.000 N 
ATOM     21  H   UNL     1      -2.486  11.994  20.002  0.00  0.00    +0.000 HD
BRANCH  19  22
ATOM     22  C   UNL     1      -4.608  11.964  18.542  0.00  0.00    +0.000 C 
ATOM     23  C   UNL     1      -4.593  12.443  20.002  0.00  0.00    +0.000 C 
ATOM     24  C   UNL     1      -5.932  13.029  20.443  0.00  0.00    +0.000 C 
ATOM     25  C   UNL     1      -6.946  11.978  20.885  0.00  0.00    +0.000 C 
ATOM     26  O   UNL     1      -6.935  10.770  20.138  0.00  0.00    +0.000 OA
ATOM     27  C   UNL     1      -6.940  10.932  18.726  0.00  0.00    +0.000 C 
ATOM     28  C   UNL     1      -5.515  10.770  18.223  0.00  0.00    +0.000 C 
ENDBRANCH  19  22
ENDBRANCH   1  20
TORSDOF 3
ENDMDL
