MODEL 1
REMARK VINA RESULT:      -9.1      0.000      0.000
REMARK  Name = 
REMARK  5 active torsions:
REMARK  status: ('A' for Active; 'I' for Inactive)
REMARK    1  A    between atoms: C_1  and  C_2
REMARK    2  A    between atoms: C_8  and  C_9
REMARK    3  A    between atoms: C_11  and  C_12
REMARK    4  A    between atoms: C_16  and  C_17
REMARK    5  A    between atoms: C_17  and  N_18
REMARK                            x       y       z     vdW  Elec       q    Type
REMARK                         _______ _______ _______ _____ _____    ______ ____
ROOT
ATOM      1  C   UNL     1       3.108   6.604  18.385  0.00  0.00    +0.000 A 
ATOM      2  N   UNL     1       2.258   7.124  19.230  0.00  0.00    +0.000 NA
ATOM      3  C   UNL     1       1.983   8.346  18.663  0.00  0.00    +0.000 A 
ATOM      4  N   UNL     1       2.639   8.566  17.508  0.00  0.00    +0.000 NA
ATOM      5  O   UNL     1       3.392   7.411  17.326  0.00  0.00    +0.000 OA
ENDROOT
BRANCH   1  13
ATOM      6  C   UNL     1       5.826   4.278  14.237  0.00  0.00    +0.000 C 
ATOM      7  C   UNL     1       6.339   4.496  15.609  0.00  0.00    +0.000 A 
ATOM      8  N   UNL     1       7.658   4.491  15.858  0.00  0.00    +0.000 NA
ATOM      9  N   UNL     1       7.747   4.749  17.175  0.00  0.00    +0.000 N 
ATOM     10  C   UNL     1       6.530   4.909  17.769  0.00  0.00    +0.000 A 
ATOM     11  C   UNL     1       5.593   4.737  16.785  0.00  0.00    +0.000 A 
ATOM     12  C   UNL     1       4.136   4.806  17.004  0.00  0.00    +0.000 C 
ATOM     13  C   UNL     1       3.751   5.261  18.428  0.00  0.00    +0.000 C 
ATOM     14  C   UNL     1       4.816   5.193  19.558  0.00  0.00    +0.000 C 
ATOM     15  C   UNL     1       6.306   5.245  19.184  0.00  0.00    +0.000 C 
ATOM     16  H   UNL     1       8.669   4.800  17.595  0.00  0.00    +0.000 HD
ENDBRANCH   1  13
BRANCH   3  17
ATOM     17  C   UNL     1       1.069   9.295  19.281  0.00  0.00    +0.000 A 
ATOM     18  C   UNL     1       0.885   9.312  20.670  0.00  0.00    +0.000 A 
ATOM     19  C   UNL     1      -0.017  10.199  21.254  0.00  0.00    +0.000 A 
ATOM     20  C   UNL     1      -0.724  11.098  20.458  0.00  0.00    +0.000 A 
ATOM     21  C   UNL     1      -0.528  11.137  19.072  0.00  0.00    +0.000 A 
ATOM     22  C   UNL     1       0.360  10.215  18.489  0.00  0.00    +0.000 A 
BRANCH  21  23
ATOM     23  C   UNL     1      -1.220  12.168  18.214  0.00  0.00    +0.000 C 
BRANCH  23  24
ATOM     24  N   UNL     1      -2.469  11.688  17.654  0.00  0.00    +0.000 N 
ATOM     25  C   UNL     1      -3.667  11.586  18.306  0.00  0.00    +0.000 A 
ATOM     26  C   UNL     1      -4.495  10.930  17.425  0.00  0.00    +0.000 A 
ATOM     27  N   UNL     1      -3.832  10.634  16.262  0.00  0.00    +0.000 NA
ATOM     28  C   UNL     1      -2.615  11.103  16.428  0.00  0.00    +0.000 A 
ENDBRANCH  23  24
ENDBRANCH  21  23
ENDBRANCH   3  17
TORSDOF 4
ENDMDL
MODEL 2
REMARK VINA RESULT:      -8.9      6.251      8.722
REMARK  Name = 
REMARK  5 active torsions:
REMARK  status: ('A' for Active; 'I' for Inactive)
REMARK    1  A    between atoms: C_1  and  C_2
REMARK    2  A    between atoms: C_8  and  C_9
REMARK    3  A    between atoms: C_11  and  C_12
REMARK    4  A    between atoms: C_16  and  C_17
REMARK    5  A    between atoms: C_17  and  N_18
REMARK                            x       y       z     vdW  Elec       q    Type
REMARK                         _______ _______ _______ _____ _____    ______ ____
ROOT
ATOM      1  C   UNL     1       7.770   6.923  18.204  0.00  0.00    +0.000 A 
ATOM      2  N   UNL     1       8.531   7.680  18.949  0.00  0.00    +0.000 NA
ATOM      3  C   UNL     1       8.440   8.901  18.325  0.00  0.00    +0.000 A 
ATOM      4  N   UNL     1       7.647   8.895  17.237  0.00  0.00    +0.000 NA
ATOM      5  O   UNL     1       7.207   7.578  17.151  0.00  0.00    +0.000 OA
ENDROOT
BRANCH   1  13
ATOM      6  C   UNL     1       2.978   5.029  20.063  0.00  0.00    +0.000 C 
ATOM      7  C   UNL     1       3.643   4.642  18.797  0.00  0.00    +0.000 A 
ATOM      8  N   UNL     1       2.945   4.076  17.799  0.00  0.00    +0.000 NA
ATOM      9  N   UNL     1       3.851   3.897  16.821  0.00  0.00    +0.000 N 
ATOM     10  C   UNL     1       5.099   4.325  17.168  0.00  0.00    +0.000 A 
ATOM     11  C   UNL     1       5.003   4.800  18.449  0.00  0.00    +0.000 A 
ATOM     12  C   UNL     1       6.138   5.342  19.221  0.00  0.00    +0.000 C 
ATOM     13  C   UNL     1       7.432   5.484  18.389  0.00  0.00    +0.000 C 
ATOM     14  C   UNL     1       7.560   4.708  17.050  0.00  0.00    +0.000 C 
ATOM     15  C   UNL     1       6.282   4.304  16.295  0.00  0.00    +0.000 C 
ATOM     16  H   UNL     1       3.542   3.480  15.950  0.00  0.00    +0.000 HD
ENDBRANCH   1  13
BRANCH   3  17
ATOM     17  C   UNL     1       9.152  10.073  18.814  0.00  0.00    +0.000 A 
ATOM     18  C   UNL     1       9.256  10.326  20.188  0.00  0.00    +0.000 A 
ATOM     19  C   UNL     1       9.909  11.468  20.650  0.00  0.00    +0.000 A 
ATOM     20  C   UNL     1      10.488  12.353  19.745  0.00  0.00    +0.000 A 
ATOM     21  C   UNL     1      10.442  12.104  18.367  0.00  0.00    +0.000 A 
ATOM     22  C   UNL     1       9.752  10.967  17.910  0.00  0.00    +0.000 A 
BRANCH  21  23
ATOM     23  C   UNL     1      11.145  13.008  17.385  0.00  0.00    +0.000 C 
BRANCH  23  24
ATOM     24  N   UNL     1      10.575  14.341  17.338  0.00  0.00    +0.000 N 
ATOM     25  C   UNL     1      11.209  15.484  16.935  0.00  0.00    +0.000 A 
ATOM     26  C   UNL     1      10.328  16.499  17.227  0.00  0.00    +0.000 A 
ATOM     27  N   UNL     1       9.182  16.002  17.792  0.00  0.00    +0.000 NA
ATOM     28  C   UNL     1       9.358  14.701  17.846  0.00  0.00    +0.000 A 
ENDBRANCH  23  24
ENDBRANCH  21  23
ENDBRANCH   3  17
TORSDOF 4
ENDMDL
MODEL 3
REMARK VINA RESULT:      -8.8      2.152      3.303
REMARK  Name = 
REMARK  5 active torsions:
REMARK  status: ('A' for Active; 'I' for Inactive)
REMARK    1  A    between atoms: C_1  and  C_2
REMARK    2  A    between atoms: C_8  and  C_9
REMARK    3  A    between atoms: C_11  and  C_12
REMARK    4  A    between atoms: C_16  and  C_17
REMARK    5  A    between atoms: C_17  and  N_18
REMARK                            x       y       z     vdW  Elec       q    Type
REMARK                         _______ _______ _______ _____ _____    ______ ____
ROOT
ATOM      1  C   UNL     1       3.095   6.998  18.634  0.00  0.00    +0.000 A 
ATOM      2  N   UNL     1       2.271   7.563  19.476  0.00  0.00    +0.000 NA
ATOM      3  C   UNL     1       1.812   8.646  18.763  0.00  0.00    +0.000 A 
ATOM      4  N   UNL     1       2.335   8.739  17.525  0.00  0.00    +0.000 NA
ATOM      5  O   UNL     1       3.193   7.647  17.442  0.00  0.00    +0.000 OA
ENDROOT
BRANCH   1  13
ATOM      6  C   UNL     1       1.467   2.630  21.511  0.00  0.00    +0.000 C 
ATOM      7  C   UNL     1       1.913   2.633  20.099  0.00  0.00    +0.000 A 
ATOM      8  N   UNL     1       1.595   1.623  19.274  0.00  0.00    +0.000 NA
ATOM      9  N   UNL     1       2.132   1.977  18.093  0.00  0.00    +0.000 N 
ATOM     10  C   UNL     1       2.784   3.174  18.143  0.00  0.00    +0.000 A 
ATOM     11  C   UNL     1       2.675   3.620  19.433  0.00  0.00    +0.000 A 
ATOM     12  C   UNL     1       3.265   4.879  19.929  0.00  0.00    +0.000 C 
ATOM     13  C   UNL     1       3.884   5.747  18.813  0.00  0.00    +0.000 C 
ATOM     14  C   UNL     1       4.208   5.096  17.440  0.00  0.00    +0.000 C 
ATOM     15  C   UNL     1       3.429   3.844  17.004  0.00  0.00    +0.000 C 
ATOM     16  H   UNL     1       2.010   1.354  17.302  0.00  0.00    +0.000 HD
ENDBRANCH   1  13
BRANCH   3  17
ATOM     17  C   UNL     1       0.858   9.591  19.323  0.00  0.00    +0.000 A 
ATOM     18  C   UNL     1       0.691   9.705  20.710  0.00  0.00    +0.000 A 
ATOM     19  C   UNL     1      -0.249  10.586  21.241  0.00  0.00    +0.000 A 
ATOM     20  C   UNL     1      -1.014  11.382  20.391  0.00  0.00    +0.000 A 
ATOM     21  C   UNL     1      -0.838  11.326  19.003  0.00  0.00    +0.000 A 
ATOM     22  C   UNL     1       0.090  10.409  18.477  0.00  0.00    +0.000 A 
BRANCH  21  23
ATOM     23  C   UNL     1      -1.595  12.250  18.082  0.00  0.00    +0.000 C 
BRANCH  23  24
ATOM     24  N   UNL     1      -2.678  11.585  17.382  0.00  0.00    +0.000 N 
ATOM     25  C   UNL     1      -2.628  11.054  16.122  0.00  0.00    +0.000 A 
ATOM     26  C   UNL     1      -3.925  10.695  15.838  0.00  0.00    +0.000 A 
ATOM     27  N   UNL     1      -4.754  10.992  16.888  0.00  0.00    +0.000 NA
ATOM     28  C   UNL     1      -3.976  11.526  17.803  0.00  0.00    +0.000 A 
ENDBRANCH  23  24
ENDBRANCH  21  23
ENDBRANCH   3  17
TORSDOF 4
ENDMDL
MODEL 4
REMARK VINA RESULT:      -8.8      2.520      3.091
REMARK  Name = 
REMARK  5 active torsions:
REMARK  status: ('A' for Active; 'I' for Inactive)
REMARK    1  A    between atoms: C_1  and  C_2
REMARK    2  A    between atoms: C_8  and  C_9
REMARK    3  A    between atoms: C_11  and  C_12
REMARK    4  A    between atoms: C_16  and  C_17
REMARK    5  A    between atoms: C_17  and  N_18
REMARK                            x       y       z     vdW  Elec       q    Type
REMARK                         _______ _______ _______ _____ _____    ______ ____
ROOT
ATOM      1  C   UNL     1       2.295   7.864  18.220  0.00  0.00    +0.000 A 
ATOM      2  N   UNL     1       1.773   7.889  19.418  0.00  0.00    +0.000 NA
ATOM      3  C   UNL     1       1.312   9.181  19.516  0.00  0.00    +0.000 A 
ATOM      4  N   UNL     1       1.541   9.922  18.415  0.00  0.00    +0.000 NA
ATOM      5  O   UNL     1       2.200   9.049  17.556  0.00  0.00    +0.000 OA
ENDROOT
BRANCH   1  13
ATOM      6  C   UNL     1       7.689   7.077  17.691  0.00  0.00    +0.000 C 
ATOM      7  C   UNL     1       6.712   6.112  18.245  0.00  0.00    +0.000 A 
ATOM      8  N   UNL     1       7.115   5.097  19.026  0.00  0.00    +0.000 NA
ATOM      9  N   UNL     1       5.977   4.464  19.360  0.00  0.00    +0.000 N 
ATOM     10  C   UNL     1       4.868   5.039  18.813  0.00  0.00    +0.000 A 
ATOM     11  C   UNL     1       5.310   6.102  18.071  0.00  0.00    +0.000 A 
ATOM     12  C   UNL     1       4.430   6.990  17.287  0.00  0.00    +0.000 C 
ATOM     13  C   UNL     1       2.927   6.717  17.511  0.00  0.00    +0.000 C 
ATOM     14  C   UNL     1       2.489   5.367  18.142  0.00  0.00    +0.000 C 
ATOM     15  C   UNL     1       3.481   4.602  19.033  0.00  0.00    +0.000 C 
ATOM     16  H   UNL     1       6.038   3.651  19.964  0.00  0.00    +0.000 HD
ENDBRANCH   1  13
BRANCH   3  17
ATOM     17  C   UNL     1       0.651   9.675  20.714  0.00  0.00    +0.000 A 
ATOM     18  C   UNL     1       0.716   8.960  21.917  0.00  0.00    +0.000 A 
ATOM     19  C   UNL     1       0.052   9.419  23.052  0.00  0.00    +0.000 A 
ATOM     20  C   UNL     1      -0.663  10.613  23.005  0.00  0.00    +0.000 A 
ATOM     21  C   UNL     1      -0.710  11.376  21.831  0.00  0.00    +0.000 A 
ATOM     22  C   UNL     1      -0.063  10.886  20.682  0.00  0.00    +0.000 A 
BRANCH  21  23
ATOM     23  C   UNL     1      -1.403  12.716  21.797  0.00  0.00    +0.000 C 
BRANCH  23  24
ATOM     24  N   UNL     1      -2.841  12.601  21.639  0.00  0.00    +0.000 N 
ATOM     25  C   UNL     1      -3.542  12.694  20.468  0.00  0.00    +0.000 A 
ATOM     26  C   UNL     1      -4.864  12.692  20.846  0.00  0.00    +0.000 A 
ATOM     27  N   UNL     1      -4.981  12.600  22.209  0.00  0.00    +0.000 NA
ATOM     28  C   UNL     1      -3.748  12.545  22.660  0.00  0.00    +0.000 A 
ENDBRANCH  23  24
ENDBRANCH  21  23
ENDBRANCH   3  17
TORSDOF 4
ENDMDL
MODEL 5
REMARK VINA RESULT:      -8.8      1.657      2.220
REMARK  Name = 
REMARK  5 active torsions:
REMARK  status: ('A' for Active; 'I' for Inactive)
REMARK    1  A    between atoms: C_1  and  C_2
REMARK    2  A    between atoms: C_8  and  C_9
REMARK    3  A    between atoms: C_11  and  C_12
REMARK    4  A    between atoms: C_16  and  C_17
REMARK    5  A    between atoms: C_17  and  N_18
REMARK                            x       y       z     vdW  Elec       q    Type
REMARK                         _______ _______ _______ _____ _____    ______ ____
ROOT
ATOM      1  C   UNL     1       2.524   6.764  18.870  0.00  0.00    +0.000 A 
ATOM      2  N   UNL     1       2.017   7.958  19.036  0.00  0.00    +0.000 NA
ATOM      3  C   UNL     1       1.481   7.881  20.300  0.00  0.00    +0.000 A 
ATOM      4  N   UNL     1       1.656   6.683  20.890  0.00  0.00    +0.000 NA
ATOM      5  O   UNL     1       2.342   5.938  19.937  0.00  0.00    +0.000 OA
ENDROOT
BRANCH   1  13
ATOM      6  C   UNL     1       7.900   7.410  18.048  0.00  0.00    +0.000 C 
ATOM      7  C   UNL     1       7.164   6.125  18.069  0.00  0.00    +0.000 A 
ATOM      8  N   UNL     1       7.811   4.965  18.271  0.00  0.00    +0.000 NA
ATOM      9  N   UNL     1       6.838   4.037  18.258  0.00  0.00    +0.000 N 
ATOM     10  C   UNL     1       5.599   4.568  18.048  0.00  0.00    +0.000 A 
ATOM     11  C   UNL     1       5.776   5.919  17.907  0.00  0.00    +0.000 A 
ATOM     12  C   UNL     1       4.685   6.876  17.640  0.00  0.00    +0.000 C 
ATOM     13  C   UNL     1       3.281   6.236  17.701  0.00  0.00    +0.000 C 
ATOM     14  C   UNL     1       3.148   4.691  17.607  0.00  0.00    +0.000 C 
ATOM     15  C   UNL     1       4.337   3.812  18.028  0.00  0.00    +0.000 C 
ATOM     16  H   UNL     1       7.096   3.067  18.400  0.00  0.00    +0.000 HD
ENDBRANCH   1  13
BRANCH   3  17
ATOM     17  C   UNL     1       0.788   9.004  20.913  0.00  0.00    +0.000 A 
ATOM     18  C   UNL     1       0.535   9.024  22.291  0.00  0.00    +0.000 A 
ATOM     19  C   UNL     1      -0.160  10.085  22.868  0.00  0.00    +0.000 A 
ATOM     20  C   UNL     1      -0.585  11.151  22.078  0.00  0.00    +0.000 A 
ATOM     21  C   UNL     1      -0.307  11.182  20.705  0.00  0.00    +0.000 A 
ATOM     22  C   UNL     1       0.365  10.091  20.128  0.00  0.00    +0.000 A 
BRANCH  21  23
ATOM     23  C   UNL     1      -0.682  12.374  19.860  0.00  0.00    +0.000 C 
BRANCH  23  24
ATOM     24  N   UNL     1      -1.883  12.154  19.077  0.00  0.00    +0.000 N 
ATOM     25  C   UNL     1      -3.171  12.178  19.538  0.00  0.00    +0.000 A 
ATOM     26  C   UNL     1      -3.935  11.750  18.476  0.00  0.00    +0.000 A 
ATOM     27  N   UNL     1      -3.146  11.469  17.391  0.00  0.00    +0.000 NA
ATOM     28  C   UNL     1      -1.917  11.723  17.781  0.00  0.00    +0.000 A 
ENDBRANCH  23  24
ENDBRANCH  21  23
ENDBRANCH   3  17
TORSDOF 4
ENDMDL
MODEL 6
REMARK VINA RESULT:      -8.7      1.570      2.080
REMARK  Name = 
REMARK  5 active torsions:
REMARK  status: ('A' for Active; 'I' for Inactive)
REMARK    1  A    between atoms: C_1  and  C_2
REMARK    2  A    between atoms: C_8  and  C_9
REMARK    3  A    between atoms: C_11  and  C_12
REMARK    4  A    between atoms: C_16  and  C_17
REMARK    5  A    between atoms: C_17  and  N_18
REMARK                            x       y       z     vdW  Elec       q    Type
REMARK                         _______ _______ _______ _____ _____    ______ ____
ROOT
ATOM      1  C   UNL     1       2.462   7.048  18.682  0.00  0.00    +0.000 A 
ATOM      2  N   UNL     1       1.818   8.182  18.595  0.00  0.00    +0.000 NA
ATOM      3  C   UNL     1       1.363   8.365  19.881  0.00  0.00    +0.000 A 
ATOM      4  N   UNL     1       1.719   7.380  20.726  0.00  0.00    +0.000 NA
ATOM      5  O   UNL     1       2.444   6.500  19.928  0.00  0.00    +0.000 OA
ENDROOT
BRANCH   1  13
ATOM      6  C   UNL     1       7.865   7.416  17.862  0.00  0.00    +0.000 C 
ATOM      7  C   UNL     1       7.091   6.169  18.062  0.00  0.00    +0.000 A 
ATOM      8  N   UNL     1       7.700   5.035  18.444  0.00  0.00    +0.000 NA
ATOM      9  N   UNL     1       6.700   4.142  18.553  0.00  0.00    +0.000 N 
ATOM     10  C   UNL     1       5.480   4.670  18.246  0.00  0.00    +0.000 A 
ATOM     11  C   UNL     1       5.699   5.979  17.909  0.00  0.00    +0.000 A 
ATOM     12  C   UNL     1       4.640   6.916  17.485  0.00  0.00    +0.000 C 
ATOM     13  C   UNL     1       3.217   6.331  17.617  0.00  0.00    +0.000 C 
ATOM     14  C   UNL     1       3.039   4.794  17.752  0.00  0.00    +0.000 C 
ATOM     15  C   UNL     1       4.197   3.955  18.318  0.00  0.00    +0.000 C 
ATOM     16  H   UNL     1       6.928   3.197  18.842  0.00  0.00    +0.000 HD
ENDBRANCH   1  13
BRANCH   3  17
ATOM     17  C   UNL     1       0.566   9.523  20.259  0.00  0.00    +0.000 A 
ATOM     18  C   UNL     1       0.423   9.885  21.605  0.00  0.00    +0.000 A 
ATOM     19  C   UNL     1      -0.370  10.974  21.965  0.00  0.00    +0.000 A 
ATOM     20  C   UNL     1      -1.004  11.728  20.981  0.00  0.00    +0.000 A 
ATOM     21  C   UNL     1      -0.844  11.420  19.624  0.00  0.00    +0.000 A 
ATOM     22  C   UNL     1      -0.069  10.299  19.274  0.00  0.00    +0.000 A 
BRANCH  21  23
ATOM     23  C   UNL     1      -1.452  12.286  18.549  0.00  0.00    +0.000 C 
BRANCH  23  24
ATOM     24  N   UNL     1      -2.579  11.656  17.889  0.00  0.00    +0.000 N 
ATOM     25  C   UNL     1      -2.605  11.168  16.611  0.00  0.00    +0.000 A 
ATOM     26  C   UNL     1      -3.921  10.831  16.388  0.00  0.00    +0.000 A 
ATOM     27  N   UNL     1      -4.686  11.100  17.493  0.00  0.00    +0.000 NA
ATOM     28  C   UNL     1      -3.853  11.594  18.381  0.00  0.00    +0.000 A 
ENDBRANCH  23  24
ENDBRANCH  21  23
ENDBRANCH   3  17
TORSDOF 4
ENDMDL
MODEL 7
REMARK VINA RESULT:      -8.7      1.544      2.195
REMARK  Name = 
REMARK  5 active torsions:
REMARK  status: ('A' for Active; 'I' for Inactive)
REMARK    1  A    between atoms: C_1  and  C_2
REMARK    2  A    between atoms: C_8  and  C_9
REMARK    3  A    between atoms: C_11  and  C_12
REMARK    4  A    between atoms: C_16  and  C_17
REMARK    5  A    between atoms: C_17  and  N_18
REMARK                            x       y       z     vdW  Elec       q    Type
REMARK                         _______ _______ _______ _____ _____    ______ ____
ROOT
ATOM      1  C   UNL     1       3.980   4.943  18.007  0.00  0.00    +0.000 A 
ATOM      2  N   UNL     1       3.887   6.028  18.730  0.00  0.00    +0.000 NA
ATOM      3  C   UNL     1       2.531   6.257  18.752  0.00  0.00    +0.000 A 
ATOM      4  N   UNL     1       1.817   5.342  18.069  0.00  0.00    +0.000 NA
ATOM      5  O   UNL     1       2.780   4.473  17.567  0.00  0.00    +0.000 OA
ENDROOT
BRANCH   1  13
ATOM      6  C   UNL     1       5.452   3.541  12.921  0.00  0.00    +0.000 C 
ATOM      7  C   UNL     1       6.281   4.278  13.902  0.00  0.00    +0.000 A 
ATOM      8  N   UNL     1       7.333   5.009  13.502  0.00  0.00    +0.000 NA
ATOM      9  N   UNL     1       7.814   5.547  14.637  0.00  0.00    +0.000 N 
ATOM     10  C   UNL     1       7.106   5.177  15.742  0.00  0.00    +0.000 A 
ATOM     11  C   UNL     1       6.113   4.342  15.304  0.00  0.00    +0.000 A 
ATOM     12  C   UNL     1       5.126   3.691  16.186  0.00  0.00    +0.000 C 
ATOM     13  C   UNL     1       5.203   4.172  17.652  0.00  0.00    +0.000 C 
ATOM     14  C   UNL     1       6.483   4.905  18.141  0.00  0.00    +0.000 C 
ATOM     15  C   UNL     1       7.362   5.639  17.115  0.00  0.00    +0.000 C 
ATOM     16  H   UNL     1       8.623   6.155  14.576  0.00  0.00    +0.000 HD
ENDBRANCH   1  13
BRANCH   3  17
ATOM     17  C   UNL     1       1.952   7.394  19.450  0.00  0.00    +0.000 A 
ATOM     18  C   UNL     1       1.756   7.361  20.837  0.00  0.00    +0.000 A 
ATOM     19  C   UNL     1       1.169   8.439  21.496  0.00  0.00    +0.000 A 
ATOM     20  C   UNL     1       0.797   9.574  20.780  0.00  0.00    +0.000 A 
ATOM     21  C   UNL     1       1.022   9.658  19.400  0.00  0.00    +0.000 A 
ATOM     22  C   UNL     1       1.584   8.550  18.739  0.00  0.00    +0.000 A 
BRANCH  21  23
ATOM     23  C   UNL     1       0.707  10.918  18.632  0.00  0.00    +0.000 C 
BRANCH  23  24
ATOM     24  N   UNL     1      -0.711  11.082  18.376  0.00  0.00    +0.000 N 
ATOM     25  C   UNL     1      -1.495  12.128  18.780  0.00  0.00    +0.000 A 
ATOM     26  C   UNL     1      -2.778  11.755  18.453  0.00  0.00    +0.000 A 
ATOM     27  N   UNL     1      -2.790  10.518  17.863  0.00  0.00    +0.000 NA
ATOM     28  C   UNL     1      -1.533  10.137  17.829  0.00  0.00    +0.000 A 
ENDBRANCH  23  24
ENDBRANCH  21  23
ENDBRANCH   3  17
TORSDOF 4
ENDMDL
MODEL 8
REMARK VINA RESULT:      -8.7      2.729      8.829
REMARK  Name = 
REMARK  5 active torsions:
REMARK  status: ('A' for Active; 'I' for Inactive)
REMARK    1  A    between atoms: C_1  and  C_2
REMARK    2  A    between atoms: C_8  and  C_9
REMARK    3  A    between atoms: C_11  and  C_12
REMARK    4  A    between atoms: C_16  and  C_17
REMARK    5  A    between atoms: C_17  and  N_18
REMARK                            x       y       z     vdW  Elec       q    Type
REMARK                         _______ _______ _______ _____ _____    ______ ____
ROOT
ATOM      1  C   UNL     1       1.281   9.463  18.998  0.00  0.00    +0.000 A 
ATOM      2  N   UNL     1       1.706   8.244  19.201  0.00  0.00    +0.000 NA
ATOM      3  C   UNL     1       2.470   8.005  18.082  0.00  0.00    +0.000 A 
ATOM      4  N   UNL     1       2.514   9.042  17.225  0.00  0.00    +0.000 NA
ATOM      5  O   UNL     1       1.719  10.009  17.830  0.00  0.00    +0.000 OA
ENDROOT
BRANCH   1  13
ATOM      6  C   UNL     1       2.290  14.690  20.287  0.00  0.00    +0.000 C 
ATOM      7  C   UNL     1       1.038  14.157  19.703  0.00  0.00    +0.000 A 
ATOM      8  N   UNL     1       0.169  14.968  19.078  0.00  0.00    +0.000 NA
ATOM      9  N   UNL     1      -0.810  14.147  18.660  0.00  0.00    +0.000 N 
ATOM     10  C   UNL     1      -0.595  12.845  19.005  0.00  0.00    +0.000 A 
ATOM     11  C   UNL     1       0.587  12.817  19.696  0.00  0.00    +0.000 A 
ATOM     12  C   UNL     1       1.183  11.598  20.275  0.00  0.00    +0.000 C 
ATOM     13  C   UNL     1       0.432  10.305  19.885  0.00  0.00    +0.000 C 
ATOM     14  C   UNL     1      -1.016  10.408  19.331  0.00  0.00    +0.000 C 
ATOM     15  C   UNL     1      -1.464  11.712  18.650  0.00  0.00    +0.000 C 
ATOM     16  H   UNL     1      -1.588  14.547  18.147  0.00  0.00    +0.000 HD
ENDBRANCH   1  13
BRANCH   3  17
ATOM     17  C   UNL     1       3.148   6.735  17.868  0.00  0.00    +0.000 A 
ATOM     18  C   UNL     1       4.481   6.697  17.439  0.00  0.00    +0.000 A 
ATOM     19  C   UNL     1       5.115   5.479  17.202  0.00  0.00    +0.000 A 
ATOM     20  C   UNL     1       4.432   4.285  17.419  0.00  0.00    +0.000 A 
ATOM     21  C   UNL     1       3.114   4.288  17.893  0.00  0.00    +0.000 A 
ATOM     22  C   UNL     1       2.473   5.523  18.097  0.00  0.00    +0.000 A 
BRANCH  21  23
ATOM     23  C   UNL     1       2.398   3.000  18.219  0.00  0.00    +0.000 C 
BRANCH  23  24
ATOM     24  N   UNL     1       2.223   2.799  19.645  0.00  0.00    +0.000 N 
ATOM     25  C   UNL     1       1.049   2.888  20.341  0.00  0.00    +0.000 A 
ATOM     26  C   UNL     1       1.414   2.787  21.664  0.00  0.00    +0.000 A 
ATOM     27  N   UNL     1       2.771   2.637  21.785  0.00  0.00    +0.000 NA
ATOM     28  C   UNL     1       3.232   2.647  20.554  0.00  0.00    +0.000 A 
ENDBRANCH  23  24
ENDBRANCH  21  23
ENDBRANCH   3  17
TORSDOF 4
ENDMDL
MODEL 9
REMARK VINA RESULT:      -8.6      2.752      3.910
REMARK  Name = 
REMARK  5 active torsions:
REMARK  status: ('A' for Active; 'I' for Inactive)
REMARK    1  A    between atoms: C_1  and  C_2
REMARK    2  A    between atoms: C_8  and  C_9
REMARK    3  A    between atoms: C_11  and  C_12
REMARK    4  A    between atoms: C_16  and  C_17
REMARK    5  A    between atoms: C_17  and  N_18
REMARK                            x       y       z     vdW  Elec       q    Type
REMARK                         _______ _______ _______ _____ _____    ______ ____
ROOT
ATOM      1  C   UNL     1       2.346   7.809  18.197  0.00  0.00    +0.000 A 
ATOM      2  N   UNL     1       1.848   7.825  19.405  0.00  0.00    +0.000 NA
ATOM      3  C   UNL     1       1.330   9.096  19.497  0.00  0.00    +0.000 A 
ATOM      4  N   UNL     1       1.501   9.832  18.383  0.00  0.00    +0.000 NA
ATOM      5  O   UNL     1       2.183   8.980  17.520  0.00  0.00    +0.000 OA
ENDROOT
BRANCH   1  13
ATOM      6  C   UNL     1       7.765   7.088  17.850  0.00  0.00    +0.000 C 
ATOM      7  C   UNL     1       6.778   6.102  18.348  0.00  0.00    +0.000 A 
ATOM      8  N   UNL     1       7.164   5.075  19.123  0.00  0.00    +0.000 NA
ATOM      9  N   UNL     1       6.021   4.423  19.402  0.00  0.00    +0.000 N 
ATOM     10  C   UNL     1       4.927   4.998  18.826  0.00  0.00    +0.000 A 
ATOM     11  C   UNL     1       5.384   6.081  18.123  0.00  0.00    +0.000 A 
ATOM     12  C   UNL     1       4.524   6.976  17.325  0.00  0.00    +0.000 C 
ATOM     13  C   UNL     1       3.016   6.683  17.488  0.00  0.00    +0.000 C 
ATOM     14  C   UNL     1       2.570   5.316  18.075  0.00  0.00    +0.000 C 
ATOM     15  C   UNL     1       3.537   4.543  18.987  0.00  0.00    +0.000 C 
ATOM     16  H   UNL     1       6.069   3.599  19.992  0.00  0.00    +0.000 HD
ENDBRANCH   1  13
BRANCH   3  17
ATOM     17  C   UNL     1       0.671   9.575  20.703  0.00  0.00    +0.000 A 
ATOM     18  C   UNL     1       0.888   8.946  21.936  0.00  0.00    +0.000 A 
ATOM     19  C   UNL     1       0.228   9.386  23.082  0.00  0.00    +0.000 A 
ATOM     20  C   UNL     1      -0.636  10.477  23.012  0.00  0.00    +0.000 A 
ATOM     21  C   UNL     1      -0.838  11.156  21.803  0.00  0.00    +0.000 A 
ATOM     22  C   UNL     1      -0.192  10.683  20.647  0.00  0.00    +0.000 A 
BRANCH  21  23
ATOM     23  C   UNL     1      -1.699  12.393  21.737  0.00  0.00    +0.000 C 
BRANCH  23  24
ATOM     24  N   UNL     1      -1.218  13.460  22.595  0.00  0.00    +0.000 N 
ATOM     25  C   UNL     1      -1.868  13.990  23.676  0.00  0.00    +0.000 A 
ATOM     26  C   UNL     1      -1.104  15.071  24.053  0.00  0.00    +0.000 A 
ATOM     27  N   UNL     1      -0.014  15.206  23.232  0.00  0.00    +0.000 NA
ATOM     28  C   UNL     1      -0.108  14.223  22.365  0.00  0.00    +0.000 A 
ENDBRANCH  23  24
ENDBRANCH  21  23
ENDBRANCH   3  17
TORSDOF 4
ENDMDL
