MODEL 1
REMARK VINA RESULT:      -8.5      0.000      0.000
REMARK  Name = 
REMARK  3 active torsions:
REMARK  status: ('A' for Active; 'I' for Inactive)
REMARK    1  A    between atoms: N_3  and  C_4
REMARK    2  A    between atoms: N_10  and  C_11
REMARK    3  A    between atoms: C_14  and  C_15
REMARK                            x       y       z     vdW  Elec       q    Type
REMARK                         _______ _______ _______ _____ _____    ______ ____
ROOT
ATOM      1  C   UNL     1       7.304   7.655  17.583  0.00  0.00    +0.000 A 
ATOM      2  C   UNL     1       7.702   6.504  18.265  0.00  0.00    +0.000 A 
ATOM      3  C   UNL     1       6.834   5.415  18.402  0.00  0.00    +0.000 A 
ATOM      4  C   UNL     1       5.543   5.459  17.870  0.00  0.00    +0.000 A 
ATOM      5  C   UNL     1       5.124   6.644  17.253  0.00  0.00    +0.000 A 
ATOM      6  C   UNL     1       6.001   7.719  17.084  0.00  0.00    +0.000 A 
ENDROOT
BRANCH   4   7
ATOM      7  C   UNL     1       4.683   4.279  17.978  0.00  0.00    +0.000 A 
ATOM      8  N   UNL     1       4.680   3.260  17.139  0.00  0.00    +0.000 NA
ATOM      9  N   UNL     1       3.762   2.339  17.566  0.00  0.00    +0.000 NA
ATOM     10  C   UNL     1       3.187   2.805  18.654  0.00  0.00    +0.000 A 
ATOM     11  N   UNL     1       3.694   4.056  18.917  0.00  0.00    +0.000 N 
ATOM     12  C   UNL     1       3.256   4.979  19.944  0.00  0.00    +0.000 C 
ATOM     13  C   UNL     1       1.763   4.954  20.238  0.00  0.00    +0.000 C 
ATOM     14  C   UNL     1       1.336   3.801  21.141  0.00  0.00    +0.000 C 
ATOM     15  C   UNL     1       2.064   2.478  20.903  0.00  0.00    +0.000 C 
ATOM     16  C   UNL     1       2.141   2.084  19.433  0.00  0.00    +0.000 C 
ENDBRANCH   4   7
BRANCH   1  20
ATOM     17  O   UNL     1       8.835   9.181  19.537  0.00  0.00    +0.000 OA
ATOM     18  C   UNL     1       8.793   9.500  18.355  0.00  0.00    +0.000 C 
ATOM     19  N   UNL     1       9.379  10.640  17.828  0.00  0.00    +0.000 N 
ATOM     20  N   UNL     1       8.124   8.782  17.379  0.00  0.00    +0.000 N 
ATOM     21  H   UNL     1       9.125  10.886  16.886  0.00  0.00    +0.000 HD
ATOM     22  H   UNL     1       8.286   9.057  16.424  0.00  0.00    +0.000 HD
BRANCH  19  23
ATOM     23  C   UNL     1      10.074  11.624  18.563  0.00  0.00    +0.000 A 
ATOM     24  C   UNL     1      11.455  11.595  18.785  0.00  0.00    +0.000 A 
ATOM     25  C   UNL     1      12.072  12.559  19.577  0.00  0.00    +0.000 A 
ATOM     26  C   UNL     1      11.316  13.574  20.154  0.00  0.00    +0.000 A 
ATOM     27  C   UNL     1       9.944  13.639  19.916  0.00  0.00    +0.000 A 
ATOM     28  C   UNL     1       9.327  12.670  19.118  0.00  0.00    +0.000 A 
ENDBRANCH  19  23
ENDBRANCH   1  20
TORSDOF 3
ENDMDL
MODEL 2
REMARK VINA RESULT:      -8.5      0.760      1.390
REMARK  Name = 
REMARK  3 active torsions:
REMARK  status: ('A' for Active; 'I' for Inactive)
REMARK    1  A    between atoms: N_3  and  C_4
REMARK    2  A    between atoms: N_10  and  C_11
REMARK    3  A    between atoms: C_14  and  C_15
REMARK                            x       y       z     vdW  Elec       q    Type
REMARK                         _______ _______ _______ _____ _____    ______ ____
ROOT
ATOM      1  C   UNL     1       6.740   7.452  17.363  0.00  0.00    +0.000 A 
ATOM      2  C   UNL     1       5.386   7.435  17.023  0.00  0.00    +0.000 A 
ATOM      3  C   UNL     1       4.619   6.278  17.195  0.00  0.00    +0.000 A 
ATOM      4  C   UNL     1       5.192   5.107  17.698  0.00  0.00    +0.000 A 
ATOM      5  C   UNL     1       6.567   5.109  17.965  0.00  0.00    +0.000 A 
ATOM      6  C   UNL     1       7.328   6.273  17.828  0.00  0.00    +0.000 A 
ENDROOT
BRANCH   4   7
ATOM      7  C   UNL     1       4.346   3.933  17.921  0.00  0.00    +0.000 A 
ATOM      8  N   UNL     1       4.289   2.876  17.133  0.00  0.00    +0.000 NA
ATOM      9  N   UNL     1       3.406   1.976  17.667  0.00  0.00    +0.000 NA
ATOM     10  C   UNL     1       2.905   2.493  18.768  0.00  0.00    +0.000 A 
ATOM     11  N   UNL     1       3.425   3.755  18.936  0.00  0.00    +0.000 N 
ATOM     12  C   UNL     1       3.055   4.726  19.946  0.00  0.00    +0.000 C 
ATOM     13  C   UNL     1       1.586   4.715  20.342  0.00  0.00    +0.000 C 
ATOM     14  C   UNL     1       1.227   3.606  21.327  0.00  0.00    +0.000 C 
ATOM     15  C   UNL     1       1.942   2.273  21.102  0.00  0.00    +0.000 C 
ATOM     16  C   UNL     1       1.919   1.810  19.651  0.00  0.00    +0.000 C 
ENDBRANCH   4   7
BRANCH   1  20
ATOM     17  O   UNL     1       8.787   8.411  19.201  0.00  0.00    +0.000 OA
ATOM     18  C   UNL     1       8.502   9.019  18.177  0.00  0.00    +0.000 C 
ATOM     19  N   UNL     1       9.036  10.245  17.816  0.00  0.00    +0.000 N 
ATOM     20  N   UNL     1       7.575   8.581  17.246  0.00  0.00    +0.000 N 
ATOM     21  H   UNL     1       8.594  10.724  17.050  0.00  0.00    +0.000 HD
ATOM     22  H   UNL     1       7.536   9.085  16.376  0.00  0.00    +0.000 HD
BRANCH  19  23
ATOM     23  C   UNL     1       9.952  11.001  18.578  0.00  0.00    +0.000 A 
ATOM     24  C   UNL     1       9.814  11.233  19.950  0.00  0.00    +0.000 A 
ATOM     25  C   UNL     1      10.716  12.046  20.632  0.00  0.00    +0.000 A 
ATOM     26  C   UNL     1      11.776  12.633  19.951  0.00  0.00    +0.000 A 
ATOM     27  C   UNL     1      11.949  12.385  18.590  0.00  0.00    +0.000 A 
ATOM     28  C   UNL     1      11.044  11.567  17.908  0.00  0.00    +0.000 A 
ENDBRANCH  19  23
ENDBRANCH   1  20
TORSDOF 3
ENDMDL
MODEL 3
REMARK VINA RESULT:      -8.3      1.102      1.705
REMARK  Name = 
REMARK  3 active torsions:
REMARK  status: ('A' for Active; 'I' for Inactive)
REMARK    1  A    between atoms: N_3  and  C_4
REMARK    2  A    between atoms: N_10  and  C_11
REMARK    3  A    between atoms: C_14  and  C_15
REMARK                            x       y       z     vdW  Elec       q    Type
REMARK                         _______ _______ _______ _____ _____    ______ ____
ROOT
ATOM      1  C   UNL     1       7.814   7.404  18.406  0.00  0.00    +0.000 A 
ATOM      2  C   UNL     1       6.834   7.519  17.418  0.00  0.00    +0.000 A 
ATOM      3  C   UNL     1       5.880   6.514  17.234  0.00  0.00    +0.000 A 
ATOM      4  C   UNL     1       5.892   5.363  18.026  0.00  0.00    +0.000 A 
ATOM      5  C   UNL     1       6.922   5.218  18.964  0.00  0.00    +0.000 A 
ATOM      6  C   UNL     1       7.855   6.238  19.173  0.00  0.00    +0.000 A 
ENDROOT
BRANCH   4   7
ATOM      7  C   UNL     1       4.841   4.358  17.847  0.00  0.00    +0.000 A 
ATOM      8  N   UNL     1       4.749   3.529  16.825  0.00  0.00    +0.000 NA
ATOM      9  N   UNL     1       3.654   2.727  17.005  0.00  0.00    +0.000 NA
ATOM     10  C   UNL     1       3.064   3.082  18.126  0.00  0.00    +0.000 A 
ATOM     11  N   UNL     1       3.744   4.150  18.662  0.00  0.00    +0.000 N 
ATOM     12  C   UNL     1       3.371   4.933  19.822  0.00  0.00    +0.000 C 
ATOM     13  C   UNL     1       1.874   5.126  20.013  0.00  0.00    +0.000 C 
ATOM     14  C   UNL     1       1.177   3.923  20.643  0.00  0.00    +0.000 C 
ATOM     15  C   UNL     1       1.694   2.557  20.194  0.00  0.00    +0.000 C 
ATOM     16  C   UNL     1       1.844   2.432  18.683  0.00  0.00    +0.000 C 
ENDBRANCH   4   7
BRANCH   1  20
ATOM     17  O   UNL     1       7.730  10.268  17.879  0.00  0.00    +0.000 OA
ATOM     18  C   UNL     1       8.720   9.727  18.356  0.00  0.00    +0.000 C 
ATOM     19  N   UNL     1       9.918  10.371  18.617  0.00  0.00    +0.000 N 
ATOM     20  N   UNL     1       8.794   8.381  18.673  0.00  0.00    +0.000 N 
ATOM     21  H   UNL     1      10.708   9.787  18.838  0.00  0.00    +0.000 HD
ATOM     22  H   UNL     1       9.599   8.083  19.197  0.00  0.00    +0.000 HD
BRANCH  19  23
ATOM     23  C   UNL     1      10.203  11.725  18.344  0.00  0.00    +0.000 A 
ATOM     24  C   UNL     1       9.542  12.796  18.955  0.00  0.00    +0.000 A 
ATOM     25  C   UNL     1       9.820  14.110  18.591  0.00  0.00    +0.000 A 
ATOM     26  C   UNL     1      10.772  14.375  17.613  0.00  0.00    +0.000 A 
ATOM     27  C   UNL     1      11.466  13.322  17.017  0.00  0.00    +0.000 A 
ATOM     28  C   UNL     1      11.186  12.003  17.386  0.00  0.00    +0.000 A 
ENDBRANCH  19  23
ENDBRANCH   1  20
TORSDOF 3
ENDMDL
MODEL 4
REMARK VINA RESULT:      -7.9      5.798      8.606
REMARK  Name = 
REMARK  3 active torsions:
REMARK  status: ('A' for Active; 'I' for Inactive)
REMARK    1  A    between atoms: N_3  and  C_4
REMARK    2  A    between atoms: N_10  and  C_11
REMARK    3  A    between atoms: C_14  and  C_15
REMARK                            x       y       z     vdW  Elec       q    Type
REMARK                         _______ _______ _______ _____ _____    ______ ____
ROOT
ATOM      1  C   UNL     1       1.485   8.967  19.643  0.00  0.00    +0.000 A 
ATOM      2  C   UNL     1       1.793   7.819  20.375  0.00  0.00    +0.000 A 
ATOM      3  C   UNL     1       2.341   6.695  19.749  0.00  0.00    +0.000 A 
ATOM      4  C   UNL     1       2.581   6.689  18.372  0.00  0.00    +0.000 A 
ATOM      5  C   UNL     1       2.199   7.815  17.632  0.00  0.00    +0.000 A 
ATOM      6  C   UNL     1       1.685   8.953  18.261  0.00  0.00    +0.000 A 
ENDROOT
BRANCH   4   7
ATOM      7  C   UNL     1       3.211   5.518  17.759  0.00  0.00    +0.000 A 
ATOM      8  N   UNL     1       2.720   4.293  17.778  0.00  0.00    +0.000 NA
ATOM      9  N   UNL     1       3.570   3.467  17.093  0.00  0.00    +0.000 NA
ATOM     10  C   UNL     1       4.592   4.182  16.675  0.00  0.00    +0.000 A 
ATOM     11  N   UNL     1       4.438   5.473  17.125  0.00  0.00    +0.000 N 
ATOM     12  C   UNL     1       5.386   6.561  17.002  0.00  0.00    +0.000 C 
ATOM     13  C   UNL     1       6.850   6.154  17.092  0.00  0.00    +0.000 C 
ATOM     14  C   UNL     1       7.403   5.571  15.795  0.00  0.00    +0.000 C 
ATOM     15  C   UNL     1       6.436   4.685  15.009  0.00  0.00    +0.000 C 
ATOM     16  C   UNL     1       5.727   3.648  15.872  0.00  0.00    +0.000 C 
ENDBRANCH   4   7
BRANCH   1  20
ATOM     17  O   UNL     1      -0.992   9.337  21.133  0.00  0.00    +0.000 OA
ATOM     18  C   UNL     1      -0.254  10.276  20.861  0.00  0.00    +0.000 C 
ATOM     19  N   UNL     1      -0.535  11.603  21.142  0.00  0.00    +0.000 N 
ATOM     20  N   UNL     1       0.957  10.148  20.202  0.00  0.00    +0.000 N 
ATOM     21  H   UNL     1       0.059  12.293  20.713  0.00  0.00    +0.000 HD
ATOM     22  H   UNL     1       1.543  10.966  20.170  0.00  0.00    +0.000 HD
BRANCH  19  23
ATOM     23  C   UNL     1      -1.718  12.086  21.741  0.00  0.00    +0.000 A 
ATOM     24  C   UNL     1      -1.985  11.997  23.112  0.00  0.00    +0.000 A 
ATOM     25  C   UNL     1      -3.201  12.429  23.633  0.00  0.00    +0.000 A 
ATOM     26  C   UNL     1      -4.168  12.967  22.790  0.00  0.00    +0.000 A 
ATOM     27  C   UNL     1      -3.906  13.095  21.427  0.00  0.00    +0.000 A 
ATOM     28  C   UNL     1      -2.683  12.662  20.906  0.00  0.00    +0.000 A 
ENDBRANCH  19  23
ENDBRANCH   1  20
TORSDOF 3
ENDMDL
MODEL 5
REMARK VINA RESULT:      -7.9      6.272      8.339
REMARK  Name = 
REMARK  3 active torsions:
REMARK  status: ('A' for Active; 'I' for Inactive)
REMARK    1  A    between atoms: N_3  and  C_4
REMARK    2  A    between atoms: N_10  and  C_11
REMARK    3  A    between atoms: C_14  and  C_15
REMARK                            x       y       z     vdW  Elec       q    Type
REMARK                         _______ _______ _______ _____ _____    ______ ____
ROOT
ATOM      1  C   UNL     1       0.689   9.777  19.447  0.00  0.00    +0.000 A 
ATOM      2  C   UNL     1       1.230   9.666  18.165  0.00  0.00    +0.000 A 
ATOM      3  C   UNL     1       2.064   8.595  17.828  0.00  0.00    +0.000 A 
ATOM      4  C   UNL     1       2.386   7.616  18.771  0.00  0.00    +0.000 A 
ATOM      5  C   UNL     1       1.902   7.773  20.076  0.00  0.00    +0.000 A 
ATOM      6  C   UNL     1       1.040   8.823  20.405  0.00  0.00    +0.000 A 
ENDROOT
BRANCH   4   7
ATOM      7  C   UNL     1       3.213   6.476  18.368  0.00  0.00    +0.000 A 
ATOM      8  N   UNL     1       4.360   6.560  17.721  0.00  0.00    +0.000 NA
ATOM      9  N   UNL     1       4.852   5.297  17.530  0.00  0.00    +0.000 NA
ATOM     10  C   UNL     1       3.995   4.439  18.041  0.00  0.00    +0.000 A 
ATOM     11  N   UNL     1       2.913   5.137  18.527  0.00  0.00    +0.000 N 
ATOM     12  C   UNL     1       1.685   4.585  19.061  0.00  0.00    +0.000 C 
ATOM     13  C   UNL     1       1.215   3.299  18.397  0.00  0.00    +0.000 C 
ATOM     14  C   UNL     1       1.947   2.054  18.887  0.00  0.00    +0.000 C 
ATOM     15  C   UNL     1       3.439   2.238  19.167  0.00  0.00    +0.000 C 
ATOM     16  C   UNL     1       4.180   2.961  18.050  0.00  0.00    +0.000 C 
ENDBRANCH   4   7
BRANCH   1  20
ATOM     17  O   UNL     1       0.314  10.899  22.110  0.00  0.00    +0.000 OA
ATOM     18  C   UNL     1      -0.351  11.271  21.151  0.00  0.00    +0.000 C 
ATOM     19  N   UNL     1      -1.394  12.181  21.224  0.00  0.00    +0.000 N 
ATOM     20  N   UNL     1      -0.179  10.808  19.858  0.00  0.00    +0.000 N 
ATOM     21  H   UNL     1      -1.976  12.269  20.408  0.00  0.00    +0.000 HD
ATOM     22  H   UNL     1      -0.679  11.295  19.133  0.00  0.00    +0.000 HD
BRANCH  19  23
ATOM     23  C   UNL     1      -1.876  12.788  22.403  0.00  0.00    +0.000 A 
ATOM     24  C   UNL     1      -3.042  12.384  23.062  0.00  0.00    +0.000 A 
ATOM     25  C   UNL     1      -3.504  13.068  24.183  0.00  0.00    +0.000 A 
ATOM     26  C   UNL     1      -2.800  14.166  24.667  0.00  0.00    +0.000 A 
ATOM     27  C   UNL     1      -1.618  14.562  24.043  0.00  0.00    +0.000 A 
ATOM     28  C   UNL     1      -1.156  13.872  22.919  0.00  0.00    +0.000 A 
ENDBRANCH  19  23
ENDBRANCH   1  20
TORSDOF 3
ENDMDL
MODEL 6
REMARK VINA RESULT:      -7.9      6.357      7.682
REMARK  Name = 
REMARK  3 active torsions:
REMARK  status: ('A' for Active; 'I' for Inactive)
REMARK    1  A    between atoms: N_3  and  C_4
REMARK    2  A    between atoms: N_10  and  C_11
REMARK    3  A    between atoms: C_14  and  C_15
REMARK                            x       y       z     vdW  Elec       q    Type
REMARK                         _______ _______ _______ _____ _____    ______ ____
ROOT
ATOM      1  C   UNL     1       0.739   9.753  19.491  0.00  0.00    +0.000 A 
ATOM      2  C   UNL     1       1.208   9.679  18.178  0.00  0.00    +0.000 A 
ATOM      3  C   UNL     1       2.014   8.614  17.764  0.00  0.00    +0.000 A 
ATOM      4  C   UNL     1       2.381   7.604  18.658  0.00  0.00    +0.000 A 
ATOM      5  C   UNL     1       1.971   7.724  19.992  0.00  0.00    +0.000 A 
ATOM      6  C   UNL     1       1.135   8.768  20.399  0.00  0.00    +0.000 A 
ENDROOT
BRANCH   4   7
ATOM      7  C   UNL     1       3.175   6.473  18.176  0.00  0.00    +0.000 A 
ATOM      8  N   UNL     1       4.254   6.568  17.421  0.00  0.00    +0.000 NA
ATOM      9  N   UNL     1       4.738   5.310  17.183  0.00  0.00    +0.000 NA
ATOM     10  C   UNL     1       3.942   4.444  17.772  0.00  0.00    +0.000 A 
ATOM     11  N   UNL     1       2.906   5.130  18.360  0.00  0.00    +0.000 N 
ATOM     12  C   UNL     1       1.740   4.566  19.009  0.00  0.00    +0.000 C 
ATOM     13  C   UNL     1       1.220   3.277  18.391  0.00  0.00    +0.000 C 
ATOM     14  C   UNL     1       2.008   2.038  18.807  0.00  0.00    +0.000 C 
ATOM     15  C   UNL     1       3.518   2.236  18.943  0.00  0.00    +0.000 C 
ATOM     16  C   UNL     1       4.142   2.967  17.761  0.00  0.00    +0.000 C 
ENDBRANCH   4   7
BRANCH   1  20
ATOM     17  O   UNL     1       1.433  12.048  21.147  0.00  0.00    +0.000 OA
ATOM     18  C   UNL     1       0.279  11.821  20.806  0.00  0.00    +0.000 C 
ATOM     19  N   UNL     1      -0.821  12.553  21.223  0.00  0.00    +0.000 N 
ATOM     20  N   UNL     1      -0.098  10.776  19.980  0.00  0.00    +0.000 N 
ATOM     21  H   UNL     1      -1.727  12.164  21.022  0.00  0.00    +0.000 HD
ATOM     22  H   UNL     1      -1.048  10.780  19.649  0.00  0.00    +0.000 HD
BRANCH  19  23
ATOM     23  C   UNL     1      -0.795  13.638  22.125  0.00  0.00    +0.000 A 
ATOM     24  C   UNL     1      -1.274  13.567  23.438  0.00  0.00    +0.000 A 
ATOM     25  C   UNL     1      -1.285  14.692  24.257  0.00  0.00    +0.000 A 
ATOM     26  C   UNL     1      -0.808  15.907  23.777  0.00  0.00    +0.000 A 
ATOM     27  C   UNL     1      -0.296  15.989  22.483  0.00  0.00    +0.000 A 
ATOM     28  C   UNL     1      -0.284  14.857  21.663  0.00  0.00    +0.000 A 
ENDBRANCH  19  23
ENDBRANCH   1  20
TORSDOF 3
ENDMDL
MODEL 7
REMARK VINA RESULT:      -7.9      5.525      8.216
REMARK  Name = 
REMARK  3 active torsions:
REMARK  status: ('A' for Active; 'I' for Inactive)
REMARK    1  A    between atoms: N_3  and  C_4
REMARK    2  A    between atoms: N_10  and  C_11
REMARK    3  A    between atoms: C_14  and  C_15
REMARK                            x       y       z     vdW  Elec       q    Type
REMARK                         _______ _______ _______ _____ _____    ______ ____
ROOT
ATOM      1  C   UNL     1       3.432   6.279  18.076  0.00  0.00    +0.000 A 
ATOM      2  C   UNL     1       3.068   7.554  17.639  0.00  0.00    +0.000 A 
ATOM      3  C   UNL     1       2.328   8.410  18.462  0.00  0.00    +0.000 A 
ATOM      4  C   UNL     1       1.925   8.004  19.737  0.00  0.00    +0.000 A 
ATOM      5  C   UNL     1       2.228   6.698  20.140  0.00  0.00    +0.000 A 
ATOM      6  C   UNL     1       2.997   5.854  19.334  0.00  0.00    +0.000 A 
ENDROOT
BRANCH   4   7
ATOM      7  C   UNL     1       1.204   8.947  20.595  0.00  0.00    +0.000 A 
ATOM      8  N   UNL     1       1.252   8.965  21.914  0.00  0.00    +0.000 NA
ATOM      9  N   UNL     1       0.468   9.990  22.370  0.00  0.00    +0.000 NA
ATOM     10  C   UNL     1      -0.078  10.585  21.331  0.00  0.00    +0.000 A 
ATOM     11  N   UNL     1       0.310   9.921  20.191  0.00  0.00    +0.000 N 
ATOM     12  C   UNL     1      -0.152  10.160  18.839  0.00  0.00    +0.000 C 
ATOM     13  C   UNL     1      -1.610  10.578  18.722  0.00  0.00    +0.000 C 
ATOM     14  C   UNL     1      -1.850  12.053  19.028  0.00  0.00    +0.000 C 
ATOM     15  C   UNL     1      -1.004  12.634  20.161  0.00  0.00    +0.000 C 
ATOM     16  C   UNL     1      -0.986  11.764  21.411  0.00  0.00    +0.000 C 
ENDBRANCH   4   7
BRANCH   1  20
ATOM     17  O   UNL     1       5.053   6.776  15.707  0.00  0.00    +0.000 OA
ATOM     18  C   UNL     1       4.913   5.652  16.171  0.00  0.00    +0.000 C 
ATOM     19  N   UNL     1       5.420   4.497  15.597  0.00  0.00    +0.000 N 
ATOM     20  N   UNL     1       4.197   5.368  17.321  0.00  0.00    +0.000 N 
ATOM     21  H   UNL     1       5.089   3.622  15.970  0.00  0.00    +0.000 HD
ATOM     22  H   UNL     1       4.279   4.434  17.686  0.00  0.00    +0.000 HD
BRANCH  19  23
ATOM     23  C   UNL     1       6.135   4.425  14.383  0.00  0.00    +0.000 A 
ATOM     24  C   UNL     1       7.287   5.171  14.116  0.00  0.00    +0.000 A 
ATOM     25  C   UNL     1       7.908   5.107  12.871  0.00  0.00    +0.000 A 
ATOM     26  C   UNL     1       7.388   4.288  11.875  0.00  0.00    +0.000 A 
ATOM     27  C   UNL     1       6.260   3.511  12.134  0.00  0.00    +0.000 A 
ATOM     28  C   UNL     1       5.640   3.575  13.386  0.00  0.00    +0.000 A 
ENDBRANCH  19  23
ENDBRANCH   1  20
TORSDOF 3
ENDMDL
MODEL 8
REMARK VINA RESULT:      -7.9      5.893      8.734
REMARK  Name = 
REMARK  3 active torsions:
REMARK  status: ('A' for Active; 'I' for Inactive)
REMARK    1  A    between atoms: N_3  and  C_4
REMARK    2  A    between atoms: N_10  and  C_11
REMARK    3  A    between atoms: C_14  and  C_15
REMARK                            x       y       z     vdW  Elec       q    Type
REMARK                         _______ _______ _______ _____ _____    ______ ____
ROOT
ATOM      1  C   UNL     1       1.458   9.245  19.527  0.00  0.00    +0.000 A 
ATOM      2  C   UNL     1       1.798   9.190  18.174  0.00  0.00    +0.000 A 
ATOM      3  C   UNL     1       2.356   8.032  17.622  0.00  0.00    +0.000 A 
ATOM      4  C   UNL     1       2.597   6.906  18.414  0.00  0.00    +0.000 A 
ATOM      5  C   UNL     1       2.323   6.994  19.785  0.00  0.00    +0.000 A 
ATOM      6  C   UNL     1       1.733   8.137  20.331  0.00  0.00    +0.000 A 
ENDROOT
BRANCH   4   7
ATOM      7  C   UNL     1       3.124   5.691  17.791  0.00  0.00    +0.000 A 
ATOM      8  N   UNL     1       2.517   4.519  17.775  0.00  0.00    +0.000 NA
ATOM      9  N   UNL     1       3.298   3.626  17.092  0.00  0.00    +0.000 NA
ATOM     10  C   UNL     1       4.394   4.246  16.709  0.00  0.00    +0.000 A 
ATOM     11  N   UNL     1       4.355   5.537  17.182  0.00  0.00    +0.000 N 
ATOM     12  C   UNL     1       5.407   6.530  17.100  0.00  0.00    +0.000 C 
ATOM     13  C   UNL     1       6.821   5.980  17.212  0.00  0.00    +0.000 C 
ATOM     14  C   UNL     1       7.345   5.370  15.916  0.00  0.00    +0.000 C 
ATOM     15  C   UNL     1       6.315   4.596  15.093  0.00  0.00    +0.000 C 
ATOM     16  C   UNL     1       5.490   3.617  15.920  0.00  0.00    +0.000 C 
ENDBRANCH   4   7
BRANCH   1  20
ATOM     17  O   UNL     1      -1.134   9.448  20.842  0.00  0.00    +0.000 OA
ATOM     18  C   UNL     1      -0.392  10.415  20.723  0.00  0.00    +0.000 C 
ATOM     19  N   UNL     1      -0.714  11.706  21.108  0.00  0.00    +0.000 N 
ATOM     20  N   UNL     1       0.869  10.361  20.153  0.00  0.00    +0.000 N 
ATOM     21  H   UNL     1      -0.099  12.439  20.797  0.00  0.00    +0.000 HD
ATOM     22  H   UNL     1       1.444  11.182  20.248  0.00  0.00    +0.000 HD
BRANCH  19  23
ATOM     23  C   UNL     1      -1.948  12.118  21.656  0.00  0.00    +0.000 A 
ATOM     24  C   UNL     1      -2.981  12.683  20.901  0.00  0.00    +0.000 A 
ATOM     25  C   UNL     1      -4.148  13.134  21.511  0.00  0.00    +0.000 A 
ATOM     26  C   UNL     1      -4.303  13.020  22.888  0.00  0.00    +0.000 A 
ATOM     27  C   UNL     1      -3.298  12.428  23.652  0.00  0.00    +0.000 A 
ATOM     28  C   UNL     1      -2.128  11.974  23.037  0.00  0.00    +0.000 A 
ENDBRANCH  19  23
ENDBRANCH   1  20
TORSDOF 3
ENDMDL
MODEL 9
REMARK VINA RESULT:      -7.8      6.344      8.289
REMARK  Name = 
REMARK  3 active torsions:
REMARK  status: ('A' for Active; 'I' for Inactive)
REMARK    1  A    between atoms: N_3  and  C_4
REMARK    2  A    between atoms: N_10  and  C_11
REMARK    3  A    between atoms: C_14  and  C_15
REMARK                            x       y       z     vdW  Elec       q    Type
REMARK                         _______ _______ _______ _____ _____    ______ ____
ROOT
ATOM      1  C   UNL     1       0.756   9.841  19.562  0.00  0.00    +0.000 A 
ATOM      2  C   UNL     1       1.157   8.839  20.448  0.00  0.00    +0.000 A 
ATOM      3  C   UNL     1       1.941   7.767  20.010  0.00  0.00    +0.000 A 
ATOM      4  C   UNL     1       2.331   7.666  18.672  0.00  0.00    +0.000 A 
ATOM      5  C   UNL     1       1.862   8.633  17.774  0.00  0.00    +0.000 A 
ATOM      6  C   UNL     1       1.109   9.724  18.216  0.00  0.00    +0.000 A 
ENDROOT
BRANCH   4   7
ATOM      7  C   UNL     1       3.202   6.563  18.260  0.00  0.00    +0.000 A 
ATOM      8  N   UNL     1       4.351   6.698  17.626  0.00  0.00    +0.000 NA
ATOM      9  N   UNL     1       4.891   5.456  17.422  0.00  0.00    +0.000 NA
ATOM     10  C   UNL     1       4.060   4.560  17.910  0.00  0.00    +0.000 A 
ATOM     11  N   UNL     1       2.949   5.211  18.395  0.00  0.00    +0.000 N 
ATOM     12  C   UNL     1       1.736   4.607  18.908  0.00  0.00    +0.000 C 
ATOM     13  C   UNL     1       1.319   3.316  18.219  0.00  0.00    +0.000 C 
ATOM     14  C   UNL     1       2.091   2.090  18.699  0.00  0.00    +0.000 C 
ATOM     15  C   UNL     1       3.572   2.323  18.997  0.00  0.00    +0.000 C 
ATOM     16  C   UNL     1       4.298   3.090  17.899  0.00  0.00    +0.000 C 
ENDBRANCH   4   7
BRANCH   1  20
ATOM     17  O   UNL     1       0.209  10.894  22.224  0.00  0.00    +0.000 OA
ATOM     18  C   UNL     1      -0.277  11.395  21.217  0.00  0.00    +0.000 C 
ATOM     19  N   UNL     1      -1.189  12.437  21.221  0.00  0.00    +0.000 N 
ATOM     20  N   UNL     1      -0.010  10.966  19.928  0.00  0.00    +0.000 N 
ATOM     21  H   UNL     1      -1.650  12.640  20.349  0.00  0.00    +0.000 HD
ATOM     22  H   UNL     1      -0.346  11.547  19.179  0.00  0.00    +0.000 HD
BRANCH  19  23
ATOM     23  C   UNL     1      -1.728  13.057  22.368  0.00  0.00    +0.000 A 
ATOM     24  C   UNL     1      -1.098  14.099  23.056  0.00  0.00    +0.000 A 
ATOM     25  C   UNL     1      -1.648  14.623  24.222  0.00  0.00    +0.000 A 
ATOM     26  C   UNL     1      -2.844  14.115  24.716  0.00  0.00    +0.000 A 
ATOM     27  C   UNL     1      -3.504  13.099  24.027  0.00  0.00    +0.000 A 
ATOM     28  C   UNL     1      -2.951  12.577  22.854  0.00  0.00    +0.000 A 
ENDBRANCH  19  23
ENDBRANCH   1  20
TORSDOF 3
ENDMDL
