MODEL 1
REMARK VINA RESULT:      -8.7      0.000      0.000
REMARK  Name = 
REMARK  6 active torsions:
REMARK  status: ('A' for Active; 'I' for Inactive)
REMARK    1  A    between atoms: C_2  and  C_18
REMARK    2  A    between atoms: N_3  and  C_4
REMARK    3  A    between atoms: C_4  and  C_5
REMARK    4  A    between atoms: C_5  and  C_6
REMARK    5  A    between atoms: C_10  and  C_11
REMARK    6  A    between atoms: C_22  and  C_23
REMARK                            x       y       z     vdW  Elec       q    Type
REMARK                         _______ _______ _______ _____ _____    ______ ____
ROOT
ATOM      1  O   UNL     1       2.185   9.499  17.583  0.00  0.00    +0.000 OA
ATOM      2  C   UNL     1       2.007   8.723  18.511  0.00  0.00    +0.000 C 
ATOM      3  N   UNL     1       2.602   7.471  18.588  0.00  0.00    +0.000 N 
ATOM      4  H   UNL     1       2.400   6.906  19.408  0.00  0.00    +0.000 HD
ENDROOT
BRANCH   2   5
ATOM      5  C   UNL     1       1.168   9.014  19.665  0.00  0.00    +0.000 A 
ATOM      6  N   UNL     1       1.487   8.513  20.928  0.00  0.00    +0.000 NA
ATOM      7  C   UNL     1       0.516   8.949  21.688  0.00  0.00    +0.000 A 
ATOM      8  O   UNL     1      -0.410   9.708  21.058  0.00  0.00    +0.000 OA
ATOM      9  C   UNL     1       0.001   9.763  19.745  0.00  0.00    +0.000 A 
BRANCH   9  10
ATOM     10  C   UNL     1      -0.795  10.461  18.629  0.00  0.00    +0.000 C 
ATOM     11  C   UNL     1      -2.152  11.110  19.095  0.00  0.00    +0.000 C 
ATOM     12  C   UNL     1      -2.704  11.710  17.814  0.00  0.00    +0.000 C 
ATOM     13  N   UNL     1      -1.489  12.342  17.275  0.00  0.00    +0.000 NA
ATOM     14  C   UNL     1      -0.511  11.998  18.348  0.00  0.00    +0.000 C 
ATOM     15  C   UNL     1      -1.321  12.310  19.636  0.00  0.00    +0.000 C 
ATOM     16  H   UNL     1      -1.649  13.344  17.169  0.00  0.00    +0.000 HD
ENDBRANCH   9  10
ENDBRANCH   2   5
BRANCH   3  17
ATOM     17  C   UNL     1       3.476   7.037  17.540  0.00  0.00    +0.000 C 
BRANCH  17  18
ATOM     18  C   UNL     1       4.252   5.742  17.753  0.00  0.00    +0.000 C 
ATOM     19  C   UNL     1       5.654   5.740  18.345  0.00  0.00    +0.000 C 
ATOM     20  C   UNL     1       5.461   5.407  16.893  0.00  0.00    +0.000 C 
BRANCH  18  21
ATOM     21  C   UNL     1       3.285   4.627  18.138  0.00  0.00    +0.000 A 
ATOM     22  C   UNL     1       2.944   3.612  17.230  0.00  0.00    +0.000 A 
ATOM     23  C   UNL     1       2.334   2.433  17.659  0.00  0.00    +0.000 A 
ATOM     24  C   UNL     1       2.060   2.244  19.014  0.00  0.00    +0.000 A 
ATOM     25  C   UNL     1       2.349   3.252  19.941  0.00  0.00    +0.000 A 
ATOM     26  C   UNL     1       2.916   4.452  19.483  0.00  0.00    +0.000 A 
BRANCH  25  27
ATOM     27  C   UNL     1       2.145   3.047  21.420  0.00  0.00    +0.000 C 
ATOM     28  F   UNL     1       3.004   2.144  21.970  0.00  0.00    +0.000 F 
ATOM     29  F   UNL     1       2.316   4.199  22.129  0.00  0.00    +0.000 F 
ATOM     30  F   UNL     1       0.893   2.607  21.722  0.00  0.00    +0.000 F 
ENDBRANCH  25  27
ENDBRANCH  18  21
ENDBRANCH  17  18
ENDBRANCH   3  17
TORSDOF 6
ENDMDL
MODEL 2
REMARK VINA RESULT:      -8.6      3.193      4.289
REMARK  Name = 
REMARK  6 active torsions:
REMARK  status: ('A' for Active; 'I' for Inactive)
REMARK    1  A    between atoms: C_2  and  C_18
REMARK    2  A    between atoms: N_3  and  C_4
REMARK    3  A    between atoms: C_4  and  C_5
REMARK    4  A    between atoms: C_5  and  C_6
REMARK    5  A    between atoms: C_10  and  C_11
REMARK    6  A    between atoms: C_22  and  C_23
REMARK                            x       y       z     vdW  Elec       q    Type
REMARK                         _______ _______ _______ _____ _____    ______ ____
ROOT
ATOM      1  O   UNL     1       2.035  10.466  17.621  0.00  0.00    +0.000 OA
ATOM      2  C   UNL     1       1.427   9.809  18.452  0.00  0.00    +0.000 C 
ATOM      3  N   UNL     1       1.657   8.459  18.683  0.00  0.00    +0.000 N 
ATOM      4  H   UNL     1       1.106   8.006  19.405  0.00  0.00    +0.000 HD
ENDROOT
BRANCH   2   5
ATOM      5  C   UNL     1       0.398  10.355  19.326  0.00  0.00    +0.000 A 
ATOM      6  N   UNL     1       0.549  10.334  20.713  0.00  0.00    +0.000 NA
ATOM      7  C   UNL     1      -0.559  10.873  21.154  0.00  0.00    +0.000 A 
ATOM      8  O   UNL     1      -1.426  11.269  20.194  0.00  0.00    +0.000 OA
ATOM      9  C   UNL     1      -0.818  10.944  19.002  0.00  0.00    +0.000 A 
BRANCH   9  10
ATOM     10  C   UNL     1      -1.477  11.140  17.626  0.00  0.00    +0.000 C 
ATOM     11  C   UNL     1      -2.012   9.819  16.957  0.00  0.00    +0.000 C 
ATOM     12  C   UNL     1      -2.595  10.311  15.643  0.00  0.00    +0.000 C 
ATOM     13  N   UNL     1      -3.328  11.499  16.109  0.00  0.00    +0.000 NA
ATOM     14  C   UNL     1      -3.037  11.436  17.572  0.00  0.00    +0.000 C 
ATOM     15  C   UNL     1      -3.260   9.930  17.881  0.00  0.00    +0.000 C 
ATOM     16  H   UNL     1      -4.318  11.396  15.882  0.00  0.00    +0.000 HD
ENDBRANCH   9  10
ENDBRANCH   2   5
BRANCH   3  17
ATOM     17  C   UNL     1       2.655   7.772  17.918  0.00  0.00    +0.000 C 
BRANCH  17  18
ATOM     18  C   UNL     1       2.970   6.329  18.297  0.00  0.00    +0.000 C 
ATOM     19  C   UNL     1       1.931   5.224  18.167  0.00  0.00    +0.000 C 
ATOM     20  C   UNL     1       2.348   5.694  19.532  0.00  0.00    +0.000 C 
BRANCH  18  21
ATOM     21  C   UNL     1       4.424   6.020  17.958  0.00  0.00    +0.000 A 
ATOM     22  C   UNL     1       5.380   5.813  18.965  0.00  0.00    +0.000 A 
ATOM     23  C   UNL     1       6.611   5.220  18.682  0.00  0.00    +0.000 A 
ATOM     24  C   UNL     1       6.907   4.814  17.381  0.00  0.00    +0.000 A 
ATOM     25  C   UNL     1       5.994   5.043  16.345  0.00  0.00    +0.000 A 
ATOM     26  C   UNL     1       4.781   5.686  16.640  0.00  0.00    +0.000 A 
BRANCH  25  27
ATOM     27  C   UNL     1       6.244   4.540  14.946  0.00  0.00    +0.000 C 
ATOM     28  F   UNL     1       7.434   4.947  14.424  0.00  0.00    +0.000 F 
ATOM     29  F   UNL     1       6.258   3.178  14.882  0.00  0.00    +0.000 F 
ATOM     30  F   UNL     1       5.289   4.944  14.065  0.00  0.00    +0.000 F 
ENDBRANCH  25  27
ENDBRANCH  18  21
ENDBRANCH  17  18
ENDBRANCH   3  17
TORSDOF 6
ENDMDL
MODEL 3
REMARK VINA RESULT:      -8.6      4.183      7.651
REMARK  Name = 
REMARK  6 active torsions:
REMARK  status: ('A' for Active; 'I' for Inactive)
REMARK    1  A    between atoms: C_2  and  C_18
REMARK    2  A    between atoms: N_3  and  C_4
REMARK    3  A    between atoms: C_4  and  C_5
REMARK    4  A    between atoms: C_5  and  C_6
REMARK    5  A    between atoms: C_10  and  C_11
REMARK    6  A    between atoms: C_22  and  C_23
REMARK                            x       y       z     vdW  Elec       q    Type
REMARK                         _______ _______ _______ _____ _____    ______ ____
ROOT
ATOM      1  O   UNL     1       4.079   2.500  17.166  0.00  0.00    +0.000 OA
ATOM      2  C   UNL     1       4.266   3.634  16.750  0.00  0.00    +0.000 C 
ATOM      3  N   UNL     1       3.427   4.703  17.033  0.00  0.00    +0.000 N 
ATOM      4  H   UNL     1       3.678   5.609  16.649  0.00  0.00    +0.000 HD
ENDROOT
BRANCH   2   5
ATOM      5  C   UNL     1       5.401   4.019  15.923  0.00  0.00    +0.000 A 
ATOM      6  N   UNL     1       5.339   3.927  14.532  0.00  0.00    +0.000 NA
ATOM      7  C   UNL     1       6.523   4.323  14.142  0.00  0.00    +0.000 A 
ATOM      8  O   UNL     1       7.363   4.688  15.138  0.00  0.00    +0.000 OA
ATOM      9  C   UNL     1       6.649   4.500  16.299  0.00  0.00    +0.000 A 
BRANCH   9  10
ATOM     10  C   UNL     1       7.234   4.713  17.706  0.00  0.00    +0.000 C 
ATOM     11  C   UNL     1       7.693   6.188  18.011  0.00  0.00    +0.000 C 
ATOM     12  C   UNL     1       8.215   6.097  19.435  0.00  0.00    +0.000 C 
ATOM     13  N   UNL     1       7.151   5.291  20.054  0.00  0.00    +0.000 NA
ATOM     14  C   UNL     1       6.243   5.103  18.884  0.00  0.00    +0.000 C 
ATOM     15  C   UNL     1       6.199   6.532  18.277  0.00  0.00    +0.000 C 
ATOM     16  H   UNL     1       6.731   5.817  20.821  0.00  0.00    +0.000 HD
ENDBRANCH   9  10
ENDBRANCH   2   5
BRANCH   3  17
ATOM     17  C   UNL     1       2.271   4.498  17.853  0.00  0.00    +0.000 C 
BRANCH  17  18
ATOM     18  C   UNL     1       2.295   5.064  19.268  0.00  0.00    +0.000 C 
ATOM     19  C   UNL     1       3.082   4.392  20.384  0.00  0.00    +0.000 C 
ATOM     20  C   UNL     1       1.581   4.351  20.406  0.00  0.00    +0.000 C 
BRANCH  18  21
ATOM     21  C   UNL     1       2.253   6.587  19.206  0.00  0.00    +0.000 A 
ATOM     22  C   UNL     1       2.385   7.272  17.988  0.00  0.00    +0.000 A 
ATOM     23  C   UNL     1       2.028   8.616  17.871  0.00  0.00    +0.000 A 
ATOM     24  C   UNL     1       1.523   9.301  18.976  0.00  0.00    +0.000 A 
ATOM     25  C   UNL     1       1.418   8.661  20.217  0.00  0.00    +0.000 A 
ATOM     26  C   UNL     1       1.829   7.324  20.326  0.00  0.00    +0.000 A 
BRANCH  25  27
ATOM     27  C   UNL     1       0.798   9.345  21.408  0.00  0.00    +0.000 C 
ATOM     28  F   UNL     1       0.967  10.696  21.412  0.00  0.00    +0.000 F 
ATOM     29  F   UNL     1      -0.549   9.141  21.477  0.00  0.00    +0.000 F 
ATOM     30  F   UNL     1       1.302   8.899  22.591  0.00  0.00    +0.000 F 
ENDBRANCH  25  27
ENDBRANCH  18  21
ENDBRANCH  17  18
ENDBRANCH   3  17
TORSDOF 6
ENDMDL
MODEL 4
REMARK VINA RESULT:      -8.5      2.533      3.652
REMARK  Name = 
REMARK  6 active torsions:
REMARK  status: ('A' for Active; 'I' for Inactive)
REMARK    1  A    between atoms: C_2  and  C_18
REMARK    2  A    between atoms: N_3  and  C_4
REMARK    3  A    between atoms: C_4  and  C_5
REMARK    4  A    between atoms: C_5  and  C_6
REMARK    5  A    between atoms: C_10  and  C_11
REMARK    6  A    between atoms: C_22  and  C_23
REMARK                            x       y       z     vdW  Elec       q    Type
REMARK                         _______ _______ _______ _____ _____    ______ ____
ROOT
ATOM      1  O   UNL     1       2.441   9.677  17.510  0.00  0.00    +0.000 OA
ATOM      2  C   UNL     1       1.839   9.071  18.384  0.00  0.00    +0.000 C 
ATOM      3  N   UNL     1       2.012   7.718  18.638  0.00  0.00    +0.000 N 
ATOM      4  H   UNL     1       1.472   7.310  19.396  0.00  0.00    +0.000 HD
ENDROOT
BRANCH   2   5
ATOM      5  C   UNL     1       0.878   9.690  19.287  0.00  0.00    +0.000 A 
ATOM      6  N   UNL     1       1.133   9.776  20.656  0.00  0.00    +0.000 NA
ATOM      7  C   UNL     1       0.061  10.353  21.136  0.00  0.00    +0.000 A 
ATOM      8  O   UNL     1      -0.876  10.677  20.216  0.00  0.00    +0.000 OA
ATOM      9  C   UNL     1      -0.359  10.257  19.011  0.00  0.00    +0.000 A 
BRANCH   9  10
ATOM     10  C   UNL     1      -1.120  10.349  17.677  0.00  0.00    +0.000 C 
ATOM     11  C   UNL     1      -2.611   9.844  17.732  0.00  0.00    +0.000 C 
ATOM     12  C   UNL     1      -3.097  10.050  16.308  0.00  0.00    +0.000 C 
ATOM     13  N   UNL     1      -2.564  11.395  16.040  0.00  0.00    +0.000 NA
ATOM     14  C   UNL     1      -1.909  11.688  17.349  0.00  0.00    +0.000 C 
ATOM     15  C   UNL     1      -2.987  11.216  18.363  0.00  0.00    +0.000 C 
ATOM     16  H   UNL     1      -3.334  12.025  15.815  0.00  0.00    +0.000 HD
ENDBRANCH   9  10
ENDBRANCH   2   5
BRANCH   3  17
ATOM     17  C   UNL     1       2.940   6.963  17.850  0.00  0.00    +0.000 C 
BRANCH  17  18
ATOM     18  C   UNL     1       2.977   5.452  18.051  0.00  0.00    +0.000 C 
ATOM     19  C   UNL     1       1.778   4.573  17.729  0.00  0.00    +0.000 C 
ATOM     20  C   UNL     1       2.173   4.793  19.161  0.00  0.00    +0.000 C 
BRANCH  18  21
ATOM     21  C   UNL     1       4.378   4.933  17.743  0.00  0.00    +0.000 A 
ATOM     22  C   UNL     1       4.692   4.380  16.491  0.00  0.00    +0.000 A 
ATOM     23  C   UNL     1       6.017   4.206  16.089  0.00  0.00    +0.000 A 
ATOM     24  C   UNL     1       7.057   4.593  16.933  0.00  0.00    +0.000 A 
ATOM     25  C   UNL     1       6.781   5.110  18.205  0.00  0.00    +0.000 A 
ATOM     26  C   UNL     1       5.443   5.230  18.611  0.00  0.00    +0.000 A 
BRANCH  25  27
ATOM     27  C   UNL     1       7.877   5.617  19.106  0.00  0.00    +0.000 C 
ATOM     28  F   UNL     1       8.349   6.845  18.756  0.00  0.00    +0.000 F 
ATOM     29  F   UNL     1       7.467   5.734  20.401  0.00  0.00    +0.000 F 
ATOM     30  F   UNL     1       8.959   4.792  19.132  0.00  0.00    +0.000 F 
ENDBRANCH  25  27
ENDBRANCH  18  21
ENDBRANCH  17  18
ENDBRANCH   3  17
TORSDOF 6
ENDMDL
MODEL 5
REMARK VINA RESULT:      -8.4      1.165      1.579
REMARK  Name = 
REMARK  6 active torsions:
REMARK  status: ('A' for Active; 'I' for Inactive)
REMARK    1  A    between atoms: C_2  and  C_18
REMARK    2  A    between atoms: N_3  and  C_4
REMARK    3  A    between atoms: C_4  and  C_5
REMARK    4  A    between atoms: C_5  and  C_6
REMARK    5  A    between atoms: C_10  and  C_11
REMARK    6  A    between atoms: C_22  and  C_23
REMARK                            x       y       z     vdW  Elec       q    Type
REMARK                         _______ _______ _______ _____ _____    ______ ____
ROOT
ATOM      1  O   UNL     1       2.234  10.202  17.852  0.00  0.00    +0.000 OA
ATOM      2  C   UNL     1       1.556   9.425  18.508  0.00  0.00    +0.000 C 
ATOM      3  N   UNL     1       1.633   8.045  18.384  0.00  0.00    +0.000 N 
ATOM      4  H   UNL     1       1.035   7.486  18.984  0.00  0.00    +0.000 HD
ENDROOT
BRANCH   2   5
ATOM      5  C   UNL     1       0.595   9.841  19.520  0.00  0.00    +0.000 A 
ATOM      6  N   UNL     1       0.794   9.534  20.867  0.00  0.00    +0.000 NA
ATOM      7  C   UNL     1      -0.262  10.033  21.458  0.00  0.00    +0.000 A 
ATOM      8  O   UNL     1      -1.136  10.660  20.637  0.00  0.00    +0.000 OA
ATOM      9  C   UNL     1      -0.592  10.547  19.377  0.00  0.00    +0.000 A 
BRANCH   9  10
ATOM     10  C   UNL     1      -1.286  11.051  18.100  0.00  0.00    +0.000 C 
ATOM     11  C   UNL     1      -1.818   9.916  17.147  0.00  0.00    +0.000 C 
ATOM     12  C   UNL     1      -2.439  10.694  15.999  0.00  0.00    +0.000 C 
ATOM     13  N   UNL     1      -3.178  11.723  16.749  0.00  0.00    +0.000 NA
ATOM     14  C   UNL     1      -2.851  11.321  18.148  0.00  0.00    +0.000 C 
ATOM     15  C   UNL     1      -3.045   9.781  18.096  0.00  0.00    +0.000 C 
ATOM     16  H   UNL     1      -4.171  11.658  16.522  0.00  0.00    +0.000 HD
ENDBRANCH   9  10
ENDBRANCH   2   5
BRANCH   3  17
ATOM     17  C   UNL     1       2.547   7.469  17.443  0.00  0.00    +0.000 C 
BRANCH  17  18
ATOM     18  C   UNL     1       3.325   6.232  17.875  0.00  0.00    +0.000 C 
ATOM     19  C   UNL     1       4.717   6.334  18.481  0.00  0.00    +0.000 C 
ATOM     20  C   UNL     1       4.549   5.770  17.099  0.00  0.00    +0.000 C 
BRANCH  18  21
ATOM     21  C   UNL     1       2.356   5.187  18.420  0.00  0.00    +0.000 A 
ATOM     22  C   UNL     1       1.526   4.446  17.564  0.00  0.00    +0.000 A 
ATOM     23  C   UNL     1       0.887   3.286  18.003  0.00  0.00    +0.000 A 
ATOM     24  C   UNL     1       1.075   2.839  19.311  0.00  0.00    +0.000 A 
ATOM     25  C   UNL     1       1.862   3.577  20.203  0.00  0.00    +0.000 A 
ATOM     26  C   UNL     1       2.456   4.768  19.758  0.00  0.00    +0.000 A 
BRANCH  25  27
ATOM     27  C   UNL     1       2.155   3.079  21.595  0.00  0.00    +0.000 C 
ATOM     28  F   UNL     1       2.436   4.073  22.483  0.00  0.00    +0.000 F 
ATOM     29  F   UNL     1       1.106   2.391  22.129  0.00  0.00    +0.000 F 
ATOM     30  F   UNL     1       3.217   2.228  21.636  0.00  0.00    +0.000 F 
ENDBRANCH  25  27
ENDBRANCH  18  21
ENDBRANCH  17  18
ENDBRANCH   3  17
TORSDOF 6
ENDMDL
MODEL 6
REMARK VINA RESULT:      -8.3      3.704      5.175
REMARK  Name = 
REMARK  6 active torsions:
REMARK  status: ('A' for Active; 'I' for Inactive)
REMARK    1  A    between atoms: C_2  and  C_18
REMARK    2  A    between atoms: N_3  and  C_4
REMARK    3  A    between atoms: C_4  and  C_5
REMARK    4  A    between atoms: C_5  and  C_6
REMARK    5  A    between atoms: C_10  and  C_11
REMARK    6  A    between atoms: C_22  and  C_23
REMARK                            x       y       z     vdW  Elec       q    Type
REMARK                         _______ _______ _______ _____ _____    ______ ____
ROOT
ATOM      1  O   UNL     1       2.288   5.508  20.478  0.00  0.00    +0.000 OA
ATOM      2  C   UNL     1       2.225   5.945  19.338  0.00  0.00    +0.000 C 
ATOM      3  N   UNL     1       2.202   5.139  18.208  0.00  0.00    +0.000 N 
ATOM      4  H   UNL     1       2.136   5.600  17.305  0.00  0.00    +0.000 HD
ENDROOT
BRANCH   2   5
ATOM      5  C   UNL     1       2.143   7.362  19.015  0.00  0.00    +0.000 A 
ATOM      6  N   UNL     1       2.629   7.850  17.800  0.00  0.00    +0.000 NA
ATOM      7  C   UNL     1       2.413   9.138  17.875  0.00  0.00    +0.000 A 
ATOM      8  O   UNL     1       1.814   9.554  19.014  0.00  0.00    +0.000 OA
ATOM      9  C   UNL     1       1.629   8.413  19.762  0.00  0.00    +0.000 A 
BRANCH   9  10
ATOM     10  C   UNL     1       1.045   8.411  21.185  0.00  0.00    +0.000 C 
ATOM     11  C   UNL     1       0.862   9.839  21.825  0.00  0.00    +0.000 C 
ATOM     12  C   UNL     1       0.283   9.530  23.195  0.00  0.00    +0.000 C 
ATOM     13  N   UNL     1      -0.725   8.520  22.833  0.00  0.00    +0.000 NA
ATOM     14  C   UNL     1      -0.534   8.471  21.353  0.00  0.00    +0.000 C 
ATOM     15  C   UNL     1      -0.444   9.978  20.989  0.00  0.00    +0.000 C 
ATOM     16  H   UNL     1      -1.648   8.846  23.118  0.00  0.00    +0.000 HD
ENDBRANCH   9  10
ENDBRANCH   2   5
BRANCH   3  17
ATOM     17  C   UNL     1       2.256   3.715  18.353  0.00  0.00    +0.000 C 
BRANCH  17  18
ATOM     18  C   UNL     1       3.625   3.071  18.535  0.00  0.00    +0.000 C 
ATOM     19  C   UNL     1       3.806   1.561  18.523  0.00  0.00    +0.000 C 
ATOM     20  C   UNL     1       3.969   2.317  19.810  0.00  0.00    +0.000 C 
BRANCH  18  21
ATOM     21  C   UNL     1       4.690   3.949  17.884  0.00  0.00    +0.000 A 
ATOM     22  C   UNL     1       5.724   4.523  18.641  0.00  0.00    +0.000 A 
ATOM     23  C   UNL     1       6.863   5.045  18.028  0.00  0.00    +0.000 A 
ATOM     24  C   UNL     1       6.994   4.994  16.640  0.00  0.00    +0.000 A 
ATOM     25  C   UNL     1       5.964   4.467  15.852  0.00  0.00    +0.000 A 
ATOM     26  C   UNL     1       4.803   3.992  16.484  0.00  0.00    +0.000 A 
BRANCH  25  27
ATOM     27  C   UNL     1       6.108   4.318  14.360  0.00  0.00    +0.000 C 
ATOM     28  F   UNL     1       6.416   3.052  13.964  0.00  0.00    +0.000 F 
ATOM     29  F   UNL     1       4.962   4.644  13.696  0.00  0.00    +0.000 F 
ATOM     30  F   UNL     1       7.078   5.120  13.844  0.00  0.00    +0.000 F 
ENDBRANCH  25  27
ENDBRANCH  18  21
ENDBRANCH  17  18
ENDBRANCH   3  17
TORSDOF 6
ENDMDL
MODEL 7
REMARK VINA RESULT:      -8.3      3.712      8.118
REMARK  Name = 
REMARK  6 active torsions:
REMARK  status: ('A' for Active; 'I' for Inactive)
REMARK    1  A    between atoms: C_2  and  C_18
REMARK    2  A    between atoms: N_3  and  C_4
REMARK    3  A    between atoms: C_4  and  C_5
REMARK    4  A    between atoms: C_5  and  C_6
REMARK    5  A    between atoms: C_10  and  C_11
REMARK    6  A    between atoms: C_22  and  C_23
REMARK                            x       y       z     vdW  Elec       q    Type
REMARK                         _______ _______ _______ _____ _____    ______ ____
ROOT
ATOM      1  O   UNL     1       2.178   7.608  18.241  0.00  0.00    +0.000 OA
ATOM      2  C   UNL     1       2.306   7.125  19.356  0.00  0.00    +0.000 C 
ATOM      3  N   UNL     1       2.043   7.819  20.529  0.00  0.00    +0.000 N 
ATOM      4  H   UNL     1       2.169   7.323  21.406  0.00  0.00    +0.000 HD
ENDROOT
BRANCH   2   5
ATOM      5  C   UNL     1       2.729   5.753  19.603  0.00  0.00    +0.000 A 
ATOM      6  N   UNL     1       1.938   4.883  20.354  0.00  0.00    +0.000 NA
ATOM      7  C   UNL     1       2.636   3.777  20.385  0.00  0.00    +0.000 A 
ATOM      8  O   UNL     1       3.809   3.820  19.712  0.00  0.00    +0.000 OA
ATOM      9  C   UNL     1       3.882   5.094  19.195  0.00  0.00    +0.000 A 
BRANCH   9  10
ATOM     10  C   UNL     1       5.093   5.630  18.412  0.00  0.00    +0.000 C 
ATOM     11  C   UNL     1       5.934   4.528  17.664  0.00  0.00    +0.000 C 
ATOM     12  C   UNL     1       7.035   5.332  16.995  0.00  0.00    +0.000 C 
ATOM     13  N   UNL     1       6.250   6.453  16.453  0.00  0.00    +0.000 NA
ATOM     14  C   UNL     1       4.881   6.060  16.897  0.00  0.00    +0.000 C 
ATOM     15  C   UNL     1       4.849   4.547  16.547  0.00  0.00    +0.000 C 
ATOM     16  H   UNL     1       6.361   6.483  15.439  0.00  0.00    +0.000 HD
ENDBRANCH   9  10
ENDBRANCH   2   5
BRANCH   3  17
ATOM     17  C   UNL     1       1.598   9.179  20.461  0.00  0.00    +0.000 C 
BRANCH  17  18
ATOM     18  C   UNL     1       0.247   9.515  21.083  0.00  0.00    +0.000 C 
ATOM     19  C   UNL     1       0.051   9.561  22.591  0.00  0.00    +0.000 C 
ATOM     20  C   UNL     1      -0.570   8.448  21.796  0.00  0.00    +0.000 C 
BRANCH  18  21
ATOM     21  C   UNL     1      -0.472  10.540  20.212  0.00  0.00    +0.000 A 
ATOM     22  C   UNL     1      -0.036  11.872  20.143  0.00  0.00    +0.000 A 
ATOM     23  C   UNL     1      -0.470  12.723  19.125  0.00  0.00    +0.000 A 
ATOM     24  C   UNL     1      -1.345  12.251  18.148  0.00  0.00    +0.000 A 
ATOM     25  C   UNL     1      -1.834  10.940  18.210  0.00  0.00    +0.000 A 
ATOM     26  C   UNL     1      -1.425  10.114  19.270  0.00  0.00    +0.000 A 
BRANCH  25  27
ATOM     27  C   UNL     1      -2.712  10.371  17.125  0.00  0.00    +0.000 C 
ATOM     28  F   UNL     1      -3.422   9.276  17.514  0.00  0.00    +0.000 F 
ATOM     29  F   UNL     1      -3.635  11.273  16.683  0.00  0.00    +0.000 F 
ATOM     30  F   UNL     1      -2.007   9.991  16.025  0.00  0.00    +0.000 F 
ENDBRANCH  25  27
ENDBRANCH  18  21
ENDBRANCH  17  18
ENDBRANCH   3  17
TORSDOF 6
ENDMDL
MODEL 8
REMARK VINA RESULT:      -8.2      3.746      8.244
REMARK  Name = 
REMARK  6 active torsions:
REMARK  status: ('A' for Active; 'I' for Inactive)
REMARK    1  A    between atoms: C_2  and  C_18
REMARK    2  A    between atoms: N_3  and  C_4
REMARK    3  A    between atoms: C_4  and  C_5
REMARK    4  A    between atoms: C_5  and  C_6
REMARK    5  A    between atoms: C_10  and  C_11
REMARK    6  A    between atoms: C_22  and  C_23
REMARK                            x       y       z     vdW  Elec       q    Type
REMARK                         _______ _______ _______ _____ _____    ______ ____
ROOT
ATOM      1  O   UNL     1       3.026   7.940  17.365  0.00  0.00    +0.000 OA
ATOM      2  C   UNL     1       2.595   7.129  18.171  0.00  0.00    +0.000 C 
ATOM      3  N   UNL     1       2.000   7.485  19.374  0.00  0.00    +0.000 N 
ATOM      4  H   UNL     1       1.662   6.735  19.969  0.00  0.00    +0.000 HD
ENDROOT
BRANCH   2   5
ATOM      5  C   UNL     1       2.627   5.687  17.969  0.00  0.00    +0.000 A 
ATOM      6  N   UNL     1       1.470   4.918  18.105  0.00  0.00    +0.000 NA
ATOM      7  C   UNL     1       1.882   3.696  17.882  0.00  0.00    +0.000 A 
ATOM      8  O   UNL     1       3.199   3.579  17.593  0.00  0.00    +0.000 OA
ATOM      9  C   UNL     1       3.695   4.862  17.642  0.00  0.00    +0.000 A 
BRANCH   9  10
ATOM     10  C   UNL     1       5.182   5.210  17.454  0.00  0.00    +0.000 C 
ATOM     11  C   UNL     1       6.011   4.143  16.645  0.00  0.00    +0.000 C 
ATOM     12  C   UNL     1       7.407   4.740  16.620  0.00  0.00    +0.000 C 
ATOM     13  N   UNL     1       7.088   6.139  16.288  0.00  0.00    +0.000 NA
ATOM     14  C   UNL     1       5.603   6.054  16.176  0.00  0.00    +0.000 C 
ATOM     15  C   UNL     1       5.415   4.756  15.344  0.00  0.00    +0.000 C 
ATOM     16  H   UNL     1       7.554   6.394  15.417  0.00  0.00    +0.000 HD
ENDBRANCH   9  10
ENDBRANCH   2   5
BRANCH   3  17
ATOM     17  C   UNL     1       1.871   8.869  19.717  0.00  0.00    +0.000 C 
BRANCH  17  18
ATOM     18  C   UNL     1       0.691   9.277  20.592  0.00  0.00    +0.000 C 
ATOM     19  C   UNL     1       0.788   9.286  22.110  0.00  0.00    +0.000 C 
ATOM     20  C   UNL     1      -0.053   8.246  21.427  0.00  0.00    +0.000 C 
BRANCH  18  21
ATOM     21  C   UNL     1      -0.102  10.378  19.894  0.00  0.00    +0.000 A 
ATOM     22  C   UNL     1       0.359  11.704  19.869  0.00  0.00    +0.000 A 
ATOM     23  C   UNL     1      -0.173  12.637  18.978  0.00  0.00    +0.000 A 
ATOM     24  C   UNL     1      -1.175  12.256  18.086  0.00  0.00    +0.000 A 
ATOM     25  C   UNL     1      -1.687  10.953  18.112  0.00  0.00    +0.000 A 
ATOM     26  C   UNL     1      -1.174  10.042  19.050  0.00  0.00    +0.000 A 
BRANCH  25  27
ATOM     27  C   UNL     1      -2.707  10.484  17.107  0.00  0.00    +0.000 C 
ATOM     28  F   UNL     1      -3.716  11.375  16.896  0.00  0.00    +0.000 F 
ATOM     29  F   UNL     1      -2.155  10.253  15.881  0.00  0.00    +0.000 F 
ATOM     30  F   UNL     1      -3.305   9.317  17.471  0.00  0.00    +0.000 F 
ENDBRANCH  25  27
ENDBRANCH  18  21
ENDBRANCH  17  18
ENDBRANCH   3  17
TORSDOF 6
ENDMDL
MODEL 9
REMARK VINA RESULT:      -8.2      1.624      2.153
REMARK  Name = 
REMARK  6 active torsions:
REMARK  status: ('A' for Active; 'I' for Inactive)
REMARK    1  A    between atoms: C_2  and  C_18
REMARK    2  A    between atoms: N_3  and  C_4
REMARK    3  A    between atoms: C_4  and  C_5
REMARK    4  A    between atoms: C_5  and  C_6
REMARK    5  A    between atoms: C_10  and  C_11
REMARK    6  A    between atoms: C_22  and  C_23
REMARK                            x       y       z     vdW  Elec       q    Type
REMARK                         _______ _______ _______ _____ _____    ______ ____
ROOT
ATOM      1  O   UNL     1       2.269  10.293  17.446  0.00  0.00    +0.000 OA
ATOM      2  C   UNL     1       1.838   9.431  18.197  0.00  0.00    +0.000 C 
ATOM      3  N   UNL     1       2.320   8.130  18.228  0.00  0.00    +0.000 N 
ATOM      4  H   UNL     1       1.902   7.491  18.898  0.00  0.00    +0.000 HD
ENDROOT
BRANCH   2   5
ATOM      5  C   UNL     1       0.778   9.656  19.170  0.00  0.00    +0.000 A 
ATOM      6  N   UNL     1       1.017   9.511  20.537  0.00  0.00    +0.000 NA
ATOM      7  C   UNL     1      -0.145   9.761  21.084  0.00  0.00    +0.000 A 
ATOM      8  O   UNL     1      -1.131  10.079  20.214  0.00  0.00    +0.000 OA
ATOM      9  C   UNL     1      -0.547  10.019  18.968  0.00  0.00    +0.000 A 
BRANCH   9  10
ATOM     10  C   UNL     1      -1.317  10.231  17.653  0.00  0.00    +0.000 C 
ATOM     11  C   UNL     1      -2.871  10.001  17.755  0.00  0.00    +0.000 C 
ATOM     12  C   UNL     1      -3.353  10.275  16.340  0.00  0.00    +0.000 C 
ATOM     13  N   UNL     1      -2.596  11.501  16.039  0.00  0.00    +0.000 NA
ATOM     14  C   UNL     1      -1.864  11.686  17.326  0.00  0.00    +0.000 C 
ATOM     15  C   UNL     1      -2.980  11.425  18.374  0.00  0.00    +0.000 C 
ATOM     16  H   UNL     1      -3.248  12.256  15.824  0.00  0.00    +0.000 HD
ENDBRANCH   9  10
ENDBRANCH   2   5
BRANCH   3  17
ATOM     17  C   UNL     1       3.381   7.747  17.345  0.00  0.00    +0.000 C 
BRANCH  17  18
ATOM     18  C   UNL     1       4.147   6.469  17.668  0.00  0.00    +0.000 C 
ATOM     19  C   UNL     1       5.668   6.436  17.699  0.00  0.00    +0.000 C 
ATOM     20  C   UNL     1       4.933   5.738  16.590  0.00  0.00    +0.000 C 
BRANCH  18  21
ATOM     21  C   UNL     1       3.368   5.656  18.697  0.00  0.00    +0.000 A 
ATOM     22  C   UNL     1       2.790   6.266  19.822  0.00  0.00    +0.000 A 
ATOM     23  C   UNL     1       1.820   5.610  20.581  0.00  0.00    +0.000 A 
ATOM     24  C   UNL     1       1.404   4.328  20.223  0.00  0.00    +0.000 A 
ATOM     25  C   UNL     1       1.990   3.674  19.133  0.00  0.00    +0.000 A 
ATOM     26  C   UNL     1       3.000   4.330  18.411  0.00  0.00    +0.000 A 
BRANCH  25  27
ATOM     27  C   UNL     1       1.505   2.325  18.667  0.00  0.00    +0.000 C 
ATOM     28  F   UNL     1       2.005   1.953  17.456  0.00  0.00    +0.000 F 
ATOM     29  F   UNL     1       1.846   1.327  19.531  0.00  0.00    +0.000 F 
ATOM     30  F   UNL     1       0.150   2.267  18.548  0.00  0.00    +0.000 F 
ENDBRANCH  25  27
ENDBRANCH  18  21
ENDBRANCH  17  18
ENDBRANCH   3  17
TORSDOF 6
ENDMDL
