MODEL 1
REMARK VINA RESULT:      -8.0      0.000      0.000
REMARK  Name = 
REMARK  6 active torsions:
REMARK  status: ('A' for Active; 'I' for Inactive)
REMARK    1  A    between atoms: C_1  and  N_2
REMARK    2  A    between atoms: C_6  and  C_7
REMARK    3  A    between atoms: C_7  and  C_8
REMARK    4  A    between atoms: C_12  and  N_13
REMARK    5  A    between atoms: C_18  and  N_19
REMARK    6  A    between atoms: C_21  and  C_22
REMARK                            x       y       z     vdW  Elec       q    Type
REMARK                         _______ _______ _______ _____ _____    ______ ____
ROOT
ATOM      1  N   UNL     1      -1.694  12.564  18.839  0.00  0.00    +0.000 N 
ATOM      2  C   UNL     1      -0.296  12.165  18.559  0.00  0.00    +0.000 C 
ATOM      3  C   UNL     1       0.028  11.334  19.763  0.00  0.00    +0.000 A 
ATOM      4  C   UNL     1      -0.755  11.810  20.820  0.00  0.00    +0.000 A 
ATOM      5  C   UNL     1      -0.831  11.174  22.049  0.00  0.00    +0.000 A 
ATOM      6  C   UNL     1      -0.065  10.024  22.238  0.00  0.00    +0.000 A 
ATOM      7  C   UNL     1       0.671   9.503  21.156  0.00  0.00    +0.000 A 
ATOM      8  C   UNL     1       0.745  10.150  19.899  0.00  0.00    +0.000 A 
ATOM      9  C   UNL     1      -1.773  12.731  20.244  0.00  0.00    +0.000 C 
ATOM     10  O   UNL     1      -2.615  13.307  20.905  0.00  0.00    +0.000 OA
ENDROOT
BRANCH   1  15
ATOM     11  C   UNL     1      -4.957  11.504  17.585  0.00  0.00    +0.000 A 
ATOM     12  C   UNL     1      -4.531  11.142  16.298  0.00  0.00    +0.000 A 
ATOM     13  C   UNL     1      -3.200  10.817  16.056  0.00  0.00    +0.000 A 
ATOM     14  C   UNL     1      -2.257  10.957  17.066  0.00  0.00    +0.000 A 
ATOM     15  C   UNL     1      -2.623  11.596  18.259  0.00  0.00    +0.000 A 
ATOM     16  C   UNL     1      -3.986  11.705  18.579  0.00  0.00    +0.000 A 
BRANCH  11  17
ATOM     17  C   UNL     1      -6.438  11.611  17.871  0.00  0.00    +0.000 C 
BRANCH  17  23
ATOM     18  C   UNL     1      -7.710  13.011  20.388  0.00  0.00    +0.000 C 
ATOM     19  N   UNL     1      -7.492  11.604  20.196  0.00  0.00    +0.000 N 
ATOM     20  C   UNL     1      -7.867  10.624  21.065  0.00  0.00    +0.000 A 
ATOM     21  N   UNL     1      -7.521   9.454  20.585  0.00  0.00    +0.000 NA
ATOM     22  N   UNL     1      -6.920   9.668  19.368  0.00  0.00    +0.000 NA
ATOM     23  C   UNL     1      -6.911  10.964  19.129  0.00  0.00    +0.000 A 
ENDBRANCH  17  23
ENDBRANCH  11  17
ENDBRANCH   1  15
BRANCH   8  24
ATOM     24  C   UNL     1       1.455   9.457  18.770  0.00  0.00    +0.000 C 
ATOM     25  F   UNL     1       2.404  10.210  18.148  0.00  0.00    +0.000 F 
ATOM     26  F   UNL     1       2.096   8.327  19.178  0.00  0.00    +0.000 F 
ATOM     27  F   UNL     1       0.606   9.060  17.777  0.00  0.00    +0.000 F 
ENDBRANCH   8  24
BRANCH   6  28
ATOM     28  N   UNL     1      -0.266   9.234  23.377  0.00  0.00    +0.000 N 
ATOM     29  H   UNL     1       0.102   9.638  24.234  0.00  0.00    +0.000 HD
ATOM     30  H   UNL     1       0.001   8.261  23.271  0.00  0.00    +0.000 HD
ENDBRANCH   6  28
TORSDOF 5
ENDMDL
MODEL 2
REMARK VINA RESULT:      -7.8      5.927      8.893
REMARK  Name = 
REMARK  6 active torsions:
REMARK  status: ('A' for Active; 'I' for Inactive)
REMARK    1  A    between atoms: C_1  and  N_2
REMARK    2  A    between atoms: C_6  and  C_7
REMARK    3  A    between atoms: C_7  and  C_8
REMARK    4  A    between atoms: C_12  and  N_13
REMARK    5  A    between atoms: C_18  and  N_19
REMARK    6  A    between atoms: C_21  and  C_22
REMARK                            x       y       z     vdW  Elec       q    Type
REMARK                         _______ _______ _______ _____ _____    ______ ____
ROOT
ATOM      1  N   UNL     1       3.976   4.604  19.185  0.00  0.00    +0.000 N 
ATOM      2  C   UNL     1       5.333   5.181  19.320  0.00  0.00    +0.000 C 
ATOM      3  C   UNL     1       5.880   4.994  17.938  0.00  0.00    +0.000 A 
ATOM      4  C   UNL     1       5.246   3.876  17.387  0.00  0.00    +0.000 A 
ATOM      5  C   UNL     1       5.392   3.502  16.060  0.00  0.00    +0.000 A 
ATOM      6  C   UNL     1       6.235   4.267  15.255  0.00  0.00    +0.000 A 
ATOM      7  C   UNL     1       6.822   5.432  15.787  0.00  0.00    +0.000 A 
ATOM      8  C   UNL     1       6.668   5.816  17.141  0.00  0.00    +0.000 A 
ATOM      9  C   UNL     1       4.106   3.523  18.278  0.00  0.00    +0.000 C 
ATOM     10  O   UNL     1       3.347   2.596  18.070  0.00  0.00    +0.000 OA
ENDROOT
BRANCH   1  15
ATOM     11  C   UNL     1       1.874   7.517  19.848  0.00  0.00    +0.000 A 
ATOM     12  C   UNL     1       2.435   8.353  18.870  0.00  0.00    +0.000 A 
ATOM     13  C   UNL     1       3.102   7.815  17.774  0.00  0.00    +0.000 A 
ATOM     14  C   UNL     1       3.316   6.444  17.696  0.00  0.00    +0.000 A 
ATOM     15  C   UNL     1       3.020   5.642  18.807  0.00  0.00    +0.000 A 
ATOM     16  C   UNL     1       2.153   6.142  19.792  0.00  0.00    +0.000 A 
BRANCH  11  17
ATOM     17  C   UNL     1       0.952   8.112  20.888  0.00  0.00    +0.000 C 
BRANCH  17  23
ATOM     18  C   UNL     1      -0.857   9.958  19.089  0.00  0.00    +0.000 C 
ATOM     19  N   UNL     1       0.038  10.373  20.132  0.00  0.00    +0.000 N 
ATOM     20  C   UNL     1       0.204  11.656  20.562  0.00  0.00    +0.000 A 
ATOM     21  N   UNL     1       1.092  11.685  21.526  0.00  0.00    +0.000 NA
ATOM     22  N   UNL     1       1.507  10.394  21.746  0.00  0.00    +0.000 NA
ATOM     23  C   UNL     1       0.865   9.601  20.910  0.00  0.00    +0.000 A 
ENDBRANCH  17  23
ENDBRANCH  11  17
ENDBRANCH   1  15
BRANCH   8  24
ATOM     24  C   UNL     1       7.231   7.138  17.585  0.00  0.00    +0.000 C 
ATOM     25  F   UNL     1       6.300   8.106  17.809  0.00  0.00    +0.000 F 
ATOM     26  F   UNL     1       7.937   7.037  18.745  0.00  0.00    +0.000 F 
ATOM     27  F   UNL     1       8.095   7.676  16.675  0.00  0.00    +0.000 F 
ENDBRANCH   8  24
BRANCH   6  28
ATOM     28  N   UNL     1       6.252   4.059  13.870  0.00  0.00    +0.000 N 
ATOM     29  H   UNL     1       6.849   3.293  13.572  0.00  0.00    +0.000 HD
ATOM     30  H   UNL     1       6.404   4.896  13.317  0.00  0.00    +0.000 HD
ENDBRANCH   6  28
TORSDOF 5
ENDMDL
MODEL 3
REMARK VINA RESULT:      -7.7      5.469      8.063
REMARK  Name = 
REMARK  6 active torsions:
REMARK  status: ('A' for Active; 'I' for Inactive)
REMARK    1  A    between atoms: C_1  and  N_2
REMARK    2  A    between atoms: C_6  and  C_7
REMARK    3  A    between atoms: C_7  and  C_8
REMARK    4  A    between atoms: C_12  and  N_13
REMARK    5  A    between atoms: C_18  and  N_19
REMARK    6  A    between atoms: C_21  and  C_22
REMARK                            x       y       z     vdW  Elec       q    Type
REMARK                         _______ _______ _______ _____ _____    ______ ____
ROOT
ATOM      1  N   UNL     1       2.936   5.652  17.347  0.00  0.00    +0.000 N 
ATOM      2  C   UNL     1       1.839   4.710  17.660  0.00  0.00    +0.000 C 
ATOM      3  C   UNL     1       2.537   3.709  18.528  0.00  0.00    +0.000 A 
ATOM      4  C   UNL     1       3.881   3.690  18.144  0.00  0.00    +0.000 A 
ATOM      5  C   UNL     1       4.857   2.993  18.840  0.00  0.00    +0.000 A 
ATOM      6  C   UNL     1       4.462   2.257  19.957  0.00  0.00    +0.000 A 
ATOM      7  C   UNL     1       3.122   2.327  20.387  0.00  0.00    +0.000 A 
ATOM      8  C   UNL     1       2.128   3.043  19.679  0.00  0.00    +0.000 A 
ATOM      9  C   UNL     1       4.108   4.860  17.250  0.00  0.00    +0.000 C 
ATOM     10  O   UNL     1       5.182   5.131  16.751  0.00  0.00    +0.000 OA
ENDROOT
BRANCH   1  15
ATOM     11  C   UNL     1       1.871   8.857  18.738  0.00  0.00    +0.000 A 
ATOM     12  C   UNL     1       1.480   8.371  19.995  0.00  0.00    +0.000 A 
ATOM     13  C   UNL     1       1.996   7.177  20.486  0.00  0.00    +0.000 A 
ATOM     14  C   UNL     1       2.822   6.396  19.687  0.00  0.00    +0.000 A 
ATOM     15  C   UNL     1       2.976   6.729  18.333  0.00  0.00    +0.000 A 
ATOM     16  C   UNL     1       2.652   8.030  17.915  0.00  0.00    +0.000 A 
BRANCH  11  17
ATOM     17  C   UNL     1       1.489  10.264  18.338  0.00  0.00    +0.000 C 
BRANCH  17  23
ATOM     18  C   UNL     1       0.684  12.175  20.707  0.00  0.00    +0.000 C 
ATOM     19  N   UNL     1      -0.195  11.568  19.747  0.00  0.00    +0.000 N 
ATOM     20  C   UNL     1      -1.539  11.776  19.667  0.00  0.00    +0.000 A 
ATOM     21  N   UNL     1      -2.036  11.073  18.679  0.00  0.00    +0.000 NA
ATOM     22  N   UNL     1      -0.995  10.400  18.086  0.00  0.00    +0.000 NA
ATOM     23  C   UNL     1       0.117  10.705  18.725  0.00  0.00    +0.000 A 
ENDBRANCH  17  23
ENDBRANCH  11  17
ENDBRANCH   1  15
BRANCH   8  24
ATOM     24  C   UNL     1       0.755   3.160  20.281  0.00  0.00    +0.000 C 
ATOM     25  F   UNL     1       0.310   4.437  20.437  0.00  0.00    +0.000 F 
ATOM     26  F   UNL     1      -0.194   2.533  19.532  0.00  0.00    +0.000 F 
ATOM     27  F   UNL     1       0.674   2.598  21.523  0.00  0.00    +0.000 F 
ENDBRANCH   8  24
BRANCH   6  28
ATOM     28  N   UNL     1       5.431   1.712  20.809  0.00  0.00    +0.000 N 
ATOM     29  H   UNL     1       5.959   0.945  20.401  0.00  0.00    +0.000 HD
ATOM     30  H   UNL     1       5.099   1.490  21.742  0.00  0.00    +0.000 HD
ENDBRANCH   6  28
TORSDOF 5
ENDMDL
MODEL 4
REMARK VINA RESULT:      -7.7      0.596      1.356
REMARK  Name = 
REMARK  6 active torsions:
REMARK  status: ('A' for Active; 'I' for Inactive)
REMARK    1  A    between atoms: C_1  and  N_2
REMARK    2  A    between atoms: C_6  and  C_7
REMARK    3  A    between atoms: C_7  and  C_8
REMARK    4  A    between atoms: C_12  and  N_13
REMARK    5  A    between atoms: C_18  and  N_19
REMARK    6  A    between atoms: C_21  and  C_22
REMARK                            x       y       z     vdW  Elec       q    Type
REMARK                         _______ _______ _______ _____ _____    ______ ____
ROOT
ATOM      1  N   UNL     1      -1.820  12.595  18.980  0.00  0.00    +0.000 N 
ATOM      2  C   UNL     1      -0.428  12.216  18.649  0.00  0.00    +0.000 C 
ATOM      3  C   UNL     1      -0.051  11.381  19.834  0.00  0.00    +0.000 A 
ATOM      4  C   UNL     1      -0.802  11.839  20.922  0.00  0.00    +0.000 A 
ATOM      5  C   UNL     1      -0.826  11.194  22.148  0.00  0.00    +0.000 A 
ATOM      6  C   UNL     1      -0.039  10.053  22.302  0.00  0.00    +0.000 A 
ATOM      7  C   UNL     1       0.665   9.549  21.191  0.00  0.00    +0.000 A 
ATOM      8  C   UNL     1       0.686  10.206  19.937  0.00  0.00    +0.000 A 
ATOM      9  C   UNL     1      -1.851  12.751  20.388  0.00  0.00    +0.000 C 
ATOM     10  O   UNL     1      -2.677  13.311  21.083  0.00  0.00    +0.000 OA
ENDROOT
BRANCH   1  15
ATOM     11  C   UNL     1      -5.022  11.578  17.545  0.00  0.00    +0.000 A 
ATOM     12  C   UNL     1      -4.507  11.042  16.354  0.00  0.00    +0.000 A 
ATOM     13  C   UNL     1      -3.185  10.616  16.280  0.00  0.00    +0.000 A 
ATOM     14  C   UNL     1      -2.328  10.822  17.355  0.00  0.00    +0.000 A 
ATOM     15  C   UNL     1      -2.756  11.618  18.427  0.00  0.00    +0.000 A 
ATOM     16  C   UNL     1      -4.132  11.841  18.599  0.00  0.00    +0.000 A 
BRANCH  11  17
ATOM     17  C   UNL     1      -6.511  11.801  17.671  0.00  0.00    +0.000 C 
BRANCH  17  23
ATOM     18  C   UNL     1      -7.048   9.316  19.528  0.00  0.00    +0.000 C 
ATOM     19  N   UNL     1      -7.247  10.701  19.854  0.00  0.00    +0.000 N 
ATOM     20  C   UNL     1      -7.650  11.174  21.067  0.00  0.00    +0.000 A 
ATOM     21  N   UNL     1      -7.729  12.482  21.025  0.00  0.00    +0.000 NA
ATOM     22  N   UNL     1      -7.356  12.878  19.764  0.00  0.00    +0.000 NA
ATOM     23  C   UNL     1      -7.057  11.804  19.059  0.00  0.00    +0.000 A 
ENDBRANCH  17  23
ENDBRANCH  11  17
ENDBRANCH   1  15
BRANCH   8  24
ATOM     24  C   UNL     1       1.365   9.530  18.778  0.00  0.00    +0.000 C 
ATOM     25  F   UNL     1       2.061   8.406  19.105  0.00  0.00    +0.000 F 
ATOM     26  F   UNL     1       0.484   9.145  17.814  0.00  0.00    +0.000 F 
ATOM     27  F   UNL     1       2.267  10.340  18.150  0.00  0.00    +0.000 F 
ENDBRANCH   8  24
BRANCH   6  28
ATOM     28  N   UNL     1      -0.190   9.253  23.441  0.00  0.00    +0.000 N 
ATOM     29  H   UNL     1       0.587   8.619  23.611  0.00  0.00    +0.000 HD
ATOM     30  H   UNL     1      -1.086   8.782  23.513  0.00  0.00    +0.000 HD
ENDBRANCH   6  28
TORSDOF 5
ENDMDL
MODEL 5
REMARK VINA RESULT:      -7.7      5.501      8.176
REMARK  Name = 
REMARK  6 active torsions:
REMARK  status: ('A' for Active; 'I' for Inactive)
REMARK    1  A    between atoms: C_1  and  N_2
REMARK    2  A    between atoms: C_6  and  C_7
REMARK    3  A    between atoms: C_7  and  C_8
REMARK    4  A    between atoms: C_12  and  N_13
REMARK    5  A    between atoms: C_18  and  N_19
REMARK    6  A    between atoms: C_21  and  C_22
REMARK                            x       y       z     vdW  Elec       q    Type
REMARK                         _______ _______ _______ _____ _____    ______ ____
ROOT
ATOM      1  N   UNL     1       2.947   5.629  17.342  0.00  0.00    +0.000 N 
ATOM      2  C   UNL     1       1.846   4.693  17.664  0.00  0.00    +0.000 C 
ATOM      3  C   UNL     1       2.543   3.695  18.536  0.00  0.00    +0.000 A 
ATOM      4  C   UNL     1       3.886   3.669  18.149  0.00  0.00    +0.000 A 
ATOM      5  C   UNL     1       4.861   2.973  18.846  0.00  0.00    +0.000 A 
ATOM      6  C   UNL     1       4.466   2.244  19.968  0.00  0.00    +0.000 A 
ATOM      7  C   UNL     1       3.128   2.322  20.402  0.00  0.00    +0.000 A 
ATOM      8  C   UNL     1       2.134   3.038  19.692  0.00  0.00    +0.000 A 
ATOM      9  C   UNL     1       4.115   4.832  17.248  0.00  0.00    +0.000 C 
ATOM     10  O   UNL     1       5.189   5.097  16.743  0.00  0.00    +0.000 OA
ENDROOT
BRANCH   1  15
ATOM     11  C   UNL     1       1.947   8.878  18.680  0.00  0.00    +0.000 A 
ATOM     12  C   UNL     1       1.504   8.415  19.929  0.00  0.00    +0.000 A 
ATOM     13  C   UNL     1       1.968   7.208  20.443  0.00  0.00    +0.000 A 
ATOM     14  C   UNL     1       2.790   6.395  19.673  0.00  0.00    +0.000 A 
ATOM     15  C   UNL     1       2.993   6.713  18.322  0.00  0.00    +0.000 A 
ATOM     16  C   UNL     1       2.723   8.020  17.885  0.00  0.00    +0.000 A 
BRANCH  11  17
ATOM     17  C   UNL     1       1.622  10.294  18.260  0.00  0.00    +0.000 C 
BRANCH  17  23
ATOM     18  C   UNL     1      -1.526  10.319  18.205  0.00  0.00    +0.000 C 
ATOM     19  N   UNL     1      -0.670  11.010  19.128  0.00  0.00    +0.000 N 
ATOM     20  C   UNL     1      -1.093  11.753  20.189  0.00  0.00    +0.000 A 
ATOM     21  N   UNL     1      -0.056  12.242  20.826  0.00  0.00    +0.000 NA
ATOM     22  N   UNL     1       1.072  11.799  20.179  0.00  0.00    +0.000 NA
ATOM     23  C   UNL     1       0.702  11.049  19.160  0.00  0.00    +0.000 A 
ENDBRANCH  17  23
ENDBRANCH  11  17
ENDBRANCH   1  15
BRANCH   8  24
ATOM     24  C   UNL     1       0.763   3.163  20.297  0.00  0.00    +0.000 C 
ATOM     25  F   UNL     1       0.329   4.443  20.459  0.00  0.00    +0.000 F 
ATOM     26  F   UNL     1      -0.191   2.548  19.547  0.00  0.00    +0.000 F 
ATOM     27  F   UNL     1       0.680   2.597  21.537  0.00  0.00    +0.000 F 
ENDBRANCH   8  24
BRANCH   6  28
ATOM     28  N   UNL     1       5.435   1.701  20.821  0.00  0.00    +0.000 N 
ATOM     29  H   UNL     1       5.090   1.467  21.748  0.00  0.00    +0.000 HD
ATOM     30  H   UNL     1       6.305   2.222  20.861  0.00  0.00    +0.000 HD
ENDBRANCH   6  28
TORSDOF 5
ENDMDL
MODEL 6
REMARK VINA RESULT:      -7.6      5.986      8.884
REMARK  Name = 
REMARK  6 active torsions:
REMARK  status: ('A' for Active; 'I' for Inactive)
REMARK    1  A    between atoms: C_1  and  N_2
REMARK    2  A    between atoms: C_6  and  C_7
REMARK    3  A    between atoms: C_7  and  C_8
REMARK    4  A    between atoms: C_12  and  N_13
REMARK    5  A    between atoms: C_18  and  N_19
REMARK    6  A    between atoms: C_21  and  C_22
REMARK                            x       y       z     vdW  Elec       q    Type
REMARK                         _______ _______ _______ _____ _____    ______ ____
ROOT
ATOM      1  N   UNL     1       4.045   4.423  19.087  0.00  0.00    +0.000 N 
ATOM      2  C   UNL     1       5.395   5.007  19.251  0.00  0.00    +0.000 C 
ATOM      3  C   UNL     1       5.943   4.900  17.861  0.00  0.00    +0.000 A 
ATOM      4  C   UNL     1       5.321   3.805  17.252  0.00  0.00    +0.000 A 
ATOM      5  C   UNL     1       5.470   3.503  15.907  0.00  0.00    +0.000 A 
ATOM      6  C   UNL     1       6.303   4.319  15.143  0.00  0.00    +0.000 A 
ATOM      7  C   UNL     1       6.877   5.461  15.735  0.00  0.00    +0.000 A 
ATOM      8  C   UNL     1       6.721   5.772  17.107  0.00  0.00    +0.000 A 
ATOM      9  C   UNL     1       4.186   3.393  18.124  0.00  0.00    +0.000 C 
ATOM     10  O   UNL     1       3.437   2.470  17.868  0.00  0.00    +0.000 OA
ENDROOT
BRANCH   1  15
ATOM     11  C   UNL     1       2.134   7.452  19.809  0.00  0.00    +0.000 A 
ATOM     12  C   UNL     1       2.583   8.198  18.708  0.00  0.00    +0.000 A 
ATOM     13  C   UNL     1       3.081   7.562  17.576  0.00  0.00    +0.000 A 
ATOM     14  C   UNL     1       3.243   6.182  17.569  0.00  0.00    +0.000 A 
ATOM     15  C   UNL     1       3.076   5.469  18.764  0.00  0.00    +0.000 A 
ATOM     16  C   UNL     1       2.364   6.067  19.816  0.00  0.00    +0.000 A 
BRANCH  11  17
ATOM     17  C   UNL     1       1.377   8.150  20.916  0.00  0.00    +0.000 C 
BRANCH  17  23
ATOM     18  C   UNL     1      -0.414   9.976  22.752  0.00  0.00    +0.000 C 
ATOM     19  N   UNL     1      -0.220  10.098  21.335  0.00  0.00    +0.000 N 
ATOM     20  C   UNL     1      -0.742  11.083  20.551  0.00  0.00    +0.000 A 
ATOM     21  N   UNL     1      -0.370  10.900  19.307  0.00  0.00    +0.000 NA
ATOM     22  N   UNL     1       0.426   9.780  19.275  0.00  0.00    +0.000 NA
ATOM     23  C   UNL     1       0.523   9.301  20.500  0.00  0.00    +0.000 A 
ENDBRANCH  17  23
ENDBRANCH  11  17
ENDBRANCH   1  15
BRANCH   8  24
ATOM     24  C   UNL     1       7.269   7.075  17.620  0.00  0.00    +0.000 C 
ATOM     25  F   UNL     1       8.133   7.700  16.774  0.00  0.00    +0.000 F 
ATOM     26  F   UNL     1       6.289   7.984  17.877  0.00  0.00    +0.000 F 
ATOM     27  F   UNL     1       7.956   6.933  18.792  0.00  0.00    +0.000 F 
ENDBRANCH   8  24
BRANCH   6  28
ATOM     28  N   UNL     1       6.321   4.184  13.749  0.00  0.00    +0.000 N 
ATOM     29  H   UNL     1       6.527   5.046  13.250  0.00  0.00    +0.000 HD
ATOM     30  H   UNL     1       5.517   3.703  13.360  0.00  0.00    +0.000 HD
ENDBRANCH   6  28
TORSDOF 5
ENDMDL
MODEL 7
REMARK VINA RESULT:      -7.5      5.291      7.777
REMARK  Name = 
REMARK  6 active torsions:
REMARK  status: ('A' for Active; 'I' for Inactive)
REMARK    1  A    between atoms: C_1  and  N_2
REMARK    2  A    between atoms: C_6  and  C_7
REMARK    3  A    between atoms: C_7  and  C_8
REMARK    4  A    between atoms: C_12  and  N_13
REMARK    5  A    between atoms: C_18  and  N_19
REMARK    6  A    between atoms: C_21  and  C_22
REMARK                            x       y       z     vdW  Elec       q    Type
REMARK                         _______ _______ _______ _____ _____    ______ ____
ROOT
ATOM      1  N   UNL     1       2.727   6.041  17.518  0.00  0.00    +0.000 N 
ATOM      2  C   UNL     1       1.687   5.016  17.758  0.00  0.00    +0.000 C 
ATOM      3  C   UNL     1       2.452   3.981  18.524  0.00  0.00    +0.000 A 
ATOM      4  C   UNL     1       3.789   4.071  18.123  0.00  0.00    +0.000 A 
ATOM      5  C   UNL     1       4.812   3.369  18.741  0.00  0.00    +0.000 A 
ATOM      6  C   UNL     1       4.477   2.515  19.791  0.00  0.00    +0.000 A 
ATOM      7  C   UNL     1       3.143   2.473  20.243  0.00  0.00    +0.000 A 
ATOM      8  C   UNL     1       2.099   3.194  19.615  0.00  0.00    +0.000 A 
ATOM      9  C   UNL     1       3.937   5.326  17.335  0.00  0.00    +0.000 C 
ATOM     10  O   UNL     1       4.986   5.700  16.849  0.00  0.00    +0.000 OA
ENDROOT
BRANCH   1  15
ATOM     11  C   UNL     1       1.535   9.061  19.191  0.00  0.00    +0.000 A 
ATOM     12  C   UNL     1       1.170   8.449  20.400  0.00  0.00    +0.000 A 
ATOM     13  C   UNL     1       1.738   7.238  20.782  0.00  0.00    +0.000 A 
ATOM     14  C   UNL     1       2.592   6.568  19.915  0.00  0.00    +0.000 A 
ATOM     15  C   UNL     1       2.726   7.026  18.597  0.00  0.00    +0.000 A 
ATOM     16  C   UNL     1       2.346   8.344  18.296  0.00  0.00    +0.000 A 
BRANCH  11  17
ATOM     17  C   UNL     1       1.092  10.481  18.919  0.00  0.00    +0.000 C 
BRANCH  17  23
ATOM     18  C   UNL     1      -0.928  12.731  19.798  0.00  0.00    +0.000 C 
ATOM     19  N   UNL     1      -1.168  11.668  18.862  0.00  0.00    +0.000 N 
ATOM     20  C   UNL     1      -2.312  11.496  18.143  0.00  0.00    +0.000 A 
ATOM     21  N   UNL     1      -2.200  10.433  17.384  0.00  0.00    +0.000 NA
ATOM     22  N   UNL     1      -0.950   9.903  17.597  0.00  0.00    +0.000 NA
ATOM     23  C   UNL     1      -0.324  10.653  18.483  0.00  0.00    +0.000 A 
ENDBRANCH  17  23
ENDBRANCH  11  17
ENDBRANCH   1  15
BRANCH   8  24
ATOM     24  C   UNL     1       0.733   3.181  20.242  0.00  0.00    +0.000 C 
ATOM     25  F   UNL     1       0.681   2.615  21.479  0.00  0.00    +0.000 F 
ATOM     26  F   UNL     1       0.221   4.433  20.393  0.00  0.00    +0.000 F 
ATOM     27  F   UNL     1      -0.183   2.496  19.496  0.00  0.00    +0.000 F 
ENDBRANCH   8  24
BRANCH   6  28
ATOM     28  N   UNL     1       5.488   1.951  20.579  0.00  0.00    +0.000 N 
ATOM     29  H   UNL     1       5.149   1.447  21.394  0.00  0.00    +0.000 HD
ATOM     30  H   UNL     1       6.246   2.583  20.812  0.00  0.00    +0.000 HD
ENDBRANCH   6  28
TORSDOF 5
ENDMDL
MODEL 8
REMARK VINA RESULT:      -7.5      1.968      2.443
REMARK  Name = 
REMARK  6 active torsions:
REMARK  status: ('A' for Active; 'I' for Inactive)
REMARK    1  A    between atoms: C_1  and  N_2
REMARK    2  A    between atoms: C_6  and  C_7
REMARK    3  A    between atoms: C_7  and  C_8
REMARK    4  A    between atoms: C_12  and  N_13
REMARK    5  A    between atoms: C_18  and  N_19
REMARK    6  A    between atoms: C_21  and  C_22
REMARK                            x       y       z     vdW  Elec       q    Type
REMARK                         _______ _______ _______ _____ _____    ______ ____
ROOT
ATOM      1  N   UNL     1      -0.305  11.433  18.471  0.00  0.00    +0.000 N 
ATOM      2  C   UNL     1       0.465  10.642  19.457  0.00  0.00    +0.000 C 
ATOM      3  C   UNL     1       0.009  11.243  20.751  0.00  0.00    +0.000 A 
ATOM      4  C   UNL     1      -0.346  12.571  20.491  0.00  0.00    +0.000 A 
ATOM      5  C   UNL     1      -0.963  13.385  21.428  0.00  0.00    +0.000 A 
ATOM      6  C   UNL     1      -1.210  12.854  22.693  0.00  0.00    +0.000 A 
ATOM      7  C   UNL     1      -0.918  11.498  22.938  0.00  0.00    +0.000 A 
ATOM      8  C   UNL     1      -0.292  10.665  21.979  0.00  0.00    +0.000 A 
ATOM      9  C   UNL     1      -0.396  12.739  19.012  0.00  0.00    +0.000 C 
ATOM     10  O   UNL     1      -0.684  13.783  18.460  0.00  0.00    +0.000 OA
ENDROOT
BRANCH   1  15
ATOM     11  C   UNL     1      -3.870  11.407  17.671  0.00  0.00    +0.000 A 
ATOM     12  C   UNL     1      -3.767  10.677  16.478  0.00  0.00    +0.000 A 
ATOM     13  C   UNL     1      -2.671   9.852  16.242  0.00  0.00    +0.000 A 
ATOM     14  C   UNL     1      -1.612   9.831  17.141  0.00  0.00    +0.000 A 
ATOM     15  C   UNL     1      -1.577  10.775  18.177  0.00  0.00    +0.000 A 
ATOM     16  C   UNL     1      -2.766  11.429  18.539  0.00  0.00    +0.000 A 
BRANCH  11  17
ATOM     17  C   UNL     1      -5.174  12.095  18.006  0.00  0.00    +0.000 C 
BRANCH  17  23
ATOM     18  C   UNL     1      -6.514  13.359  20.560  0.00  0.00    +0.000 C 
ATOM     19  N   UNL     1      -6.631  12.003  20.100  0.00  0.00    +0.000 N 
ATOM     20  C   UNL     1      -7.409  11.042  20.674  0.00  0.00    +0.000 A 
ATOM     21  N   UNL     1      -7.287   9.920  20.006  0.00  0.00    +0.000 NA
ATOM     22  N   UNL     1      -6.424  10.153  18.962  0.00  0.00    +0.000 NA
ATOM     23  C   UNL     1      -6.035  11.412  19.015  0.00  0.00    +0.000 A 
ENDBRANCH  17  23
ENDBRANCH  11  17
ENDBRANCH   1  15
BRANCH   8  24
ATOM     24  C   UNL     1      -0.130   9.202  22.288  0.00  0.00    +0.000 C 
ATOM     25  F   UNL     1       1.130   8.719  22.109  0.00  0.00    +0.000 F 
ATOM     26  F   UNL     1      -0.453   8.907  23.577  0.00  0.00    +0.000 F 
ATOM     27  F   UNL     1      -0.931   8.409  21.518  0.00  0.00    +0.000 F 
ENDBRANCH   8  24
BRANCH   6  28
ATOM     28  N   UNL     1      -2.014  13.558  23.598  0.00  0.00    +0.000 N 
ATOM     29  H   UNL     1      -2.559  14.305  23.176  0.00  0.00    +0.000 HD
ATOM     30  H   UNL     1      -1.536  13.866  24.439  0.00  0.00    +0.000 HD
ENDBRANCH   6  28
TORSDOF 5
ENDMDL
MODEL 9
REMARK VINA RESULT:      -7.4      5.766      8.616
REMARK  Name = 
REMARK  6 active torsions:
REMARK  status: ('A' for Active; 'I' for Inactive)
REMARK    1  A    between atoms: C_1  and  N_2
REMARK    2  A    between atoms: C_6  and  C_7
REMARK    3  A    between atoms: C_7  and  C_8
REMARK    4  A    between atoms: C_12  and  N_13
REMARK    5  A    between atoms: C_18  and  N_19
REMARK    6  A    between atoms: C_21  and  C_22
REMARK                            x       y       z     vdW  Elec       q    Type
REMARK                         _______ _______ _______ _____ _____    ______ ____
ROOT
ATOM      1  N   UNL     1       3.763   4.978  19.277  0.00  0.00    +0.000 N 
ATOM      2  C   UNL     1       5.146   5.486  19.420  0.00  0.00    +0.000 C 
ATOM      3  C   UNL     1       5.747   5.103  18.102  0.00  0.00    +0.000 A 
ATOM      4  C   UNL     1       5.069   3.966  17.650  0.00  0.00    +0.000 A 
ATOM      5  C   UNL     1       5.256   3.428  16.386  0.00  0.00    +0.000 A 
ATOM      6  C   UNL     1       6.186   4.040  15.547  0.00  0.00    +0.000 A 
ATOM      7  C   UNL     1       6.821   5.224  15.971  0.00  0.00    +0.000 A 
ATOM      8  C   UNL     1       6.626   5.776  17.260  0.00  0.00    +0.000 A 
ATOM      9  C   UNL     1       3.866   3.791  18.510  0.00  0.00    +0.000 C 
ATOM     10  O   UNL     1       3.059   2.892  18.369  0.00  0.00    +0.000 OA
ENDROOT
BRANCH   1  15
ATOM     11  C   UNL     1       1.946   8.144  19.427  0.00  0.00    +0.000 A 
ATOM     12  C   UNL     1       2.560   8.741  18.316  0.00  0.00    +0.000 A 
ATOM     13  C   UNL     1       3.153   7.961  17.328  0.00  0.00    +0.000 A 
ATOM     14  C   UNL     1       3.240   6.584  17.490  0.00  0.00    +0.000 A 
ATOM     15  C   UNL     1       2.896   6.019  18.726  0.00  0.00    +0.000 A 
ATOM     16  C   UNL     1       2.099   6.760  19.613  0.00  0.00    +0.000 A 
BRANCH  11  17
ATOM     17  C   UNL     1       1.103   8.994  20.351  0.00  0.00    +0.000 C 
BRANCH  17  23
ATOM     18  C   UNL     1       1.475  12.113  20.568  0.00  0.00    +0.000 C 
ATOM     19  N   UNL     1       0.496  11.409  19.788  0.00  0.00    +0.000 N 
ATOM     20  C   UNL     1      -0.408  11.990  18.950  0.00  0.00    +0.000 A 
ATOM     21  N   UNL     1      -1.150  11.064  18.393  0.00  0.00    +0.000 NA
ATOM     22  N   UNL     1      -0.715   9.848  18.862  0.00  0.00    +0.000 NA
ATOM     23  C   UNL     1       0.284  10.056  19.698  0.00  0.00    +0.000 A 
ENDBRANCH  17  23
ENDBRANCH  11  17
ENDBRANCH   1  15
BRANCH   8  24
ATOM     24  C   UNL     1       7.252   7.106  17.579  0.00  0.00    +0.000 C 
ATOM     25  F   UNL     1       6.364   8.121  17.766  0.00  0.00    +0.000 F 
ATOM     26  F   UNL     1       8.003   7.066  18.712  0.00  0.00    +0.000 F 
ATOM     27  F   UNL     1       8.092   7.542  16.595  0.00  0.00    +0.000 F 
ENDBRANCH   8  24
BRANCH   6  28
ATOM     28  N   UNL     1       6.257   3.667  14.198  0.00  0.00    +0.000 N 
ATOM     29  H   UNL     1       6.999   3.005  13.989  0.00  0.00    +0.000 HD
ATOM     30  H   UNL     1       6.243   4.441  13.543  0.00  0.00    +0.000 HD
ENDBRANCH   6  28
TORSDOF 5
ENDMDL
