MODEL 1
REMARK VINA RESULT:      -9.3      0.000      0.000
REMARK  Name = 
REMARK  5 active torsions:
REMARK  status: ('A' for Active; 'I' for Inactive)
REMARK    1  A    between atoms: C_1  and  C_2
REMARK    2  A    between atoms: N_4  and  C_5
REMARK    3  A    between atoms: C_8  and  N_9
REMARK    4  A    between atoms: C_10  and  C_12
REMARK    5  A    between atoms: C_17  and  C_19
REMARK                            x       y       z     vdW  Elec       q    Type
REMARK                         _______ _______ _______ _____ _____    ______ ____
ROOT
ATOM      1  C   UNL     1       2.152   4.349  19.309  0.00  0.00    +0.000 C 
ATOM      2  C   UNL     1       1.135   4.243  20.470  0.00  0.00    +0.000 C 
ATOM      3  C   UNL     1       1.424   2.903  21.093  0.00  0.00    +0.000 C 
ATOM      4  C   UNL     1       2.916   2.711  20.874  0.00  0.00    +0.000 C 
ATOM      5  N   UNL     1       3.356   3.724  19.906  0.00  0.00    +0.000 N 
ATOM      6  C   UNL     1       4.618   3.467  19.359  0.00  0.00    +0.000 C 
ATOM      7  O   UNL     1       5.301   2.545  19.826  0.00  0.00    +0.000 OA
ENDROOT
BRANCH   6   8
ATOM      8  C   UNL     1       5.229   4.334  18.239  0.00  0.00    +0.000 C 
ATOM      9  C   UNL     1       5.131   5.821  18.614  0.00  0.00    +0.000 C 
ATOM     10  C   UNL     1       5.644   6.721  17.489  0.00  0.00    +0.000 C 
ATOM     11  C   UNL     1       7.147   6.464  17.344  0.00  0.00    +0.000 C 
ATOM     12  C   UNL     1       7.382   4.983  17.000  0.00  0.00    +0.000 C 
ATOM     13  C   UNL     1       6.702   4.687  15.655  0.00  0.00    +0.000 C 
ATOM     14  C   UNL     1       5.187   4.921  15.777  0.00  0.00    +0.000 C 
ATOM     15  C   UNL     1       4.920   6.381  16.174  0.00  0.00    +0.000 C 
ATOM     16  C   UNL     1       4.613   4.002  16.866  0.00  0.00    +0.000 C 
ATOM     17  C   UNL     1       6.768   4.071  18.090  0.00  0.00    +0.000 C 
ENDBRANCH   6   8
BRANCH   1  19
ATOM     18  N   UNL     1       2.122   6.825  19.673  0.00  0.00    +0.000 N 
ATOM     19  C   UNL     1       2.003   5.788  18.754  0.00  0.00    +0.000 C 
ATOM     20  O   UNL     1       1.671   5.923  17.575  0.00  0.00    +0.000 OA
ATOM     21  H   UNL     1       2.387   6.577  20.618  0.00  0.00    +0.000 HD
BRANCH  18  25
ATOM     22  C   UNL     1       0.918  10.810  18.884  0.00  0.00    +0.000 A 
ATOM     23  C   UNL     1       1.751  10.151  17.989  0.00  0.00    +0.000 A 
ATOM     24  C   UNL     1       2.209   8.855  18.260  0.00  0.00    +0.000 A 
ATOM     25  C   UNL     1       1.842   8.191  19.431  0.00  0.00    +0.000 A 
ATOM     26  C   UNL     1       1.113   8.907  20.390  0.00  0.00    +0.000 A 
ATOM     27  C   UNL     1       0.656  10.210  20.119  0.00  0.00    +0.000 A 
BRANCH  22  31
ATOM     28  C   UNL     1      -0.112  14.422  18.510  0.00  0.00    +0.000 C 
ATOM     29  C   UNL     1       0.734  13.289  19.032  0.00  0.00    +0.000 C 
ATOM     30  O   UNL     1       1.688  13.520  19.767  0.00  0.00    +0.000 OA
ATOM     31  N   UNL     1       0.303  12.047  18.583  0.00  0.00    +0.000 N 
ATOM     32  H   UNL     1      -0.395  12.043  17.854  0.00  0.00    +0.000 HD
ENDBRANCH  22  31
ENDBRANCH  18  25
ENDBRANCH   1  19
TORSDOF 4
ENDMDL
MODEL 2
REMARK VINA RESULT:      -9.0      0.093      1.394
REMARK  Name = 
REMARK  5 active torsions:
REMARK  status: ('A' for Active; 'I' for Inactive)
REMARK    1  A    between atoms: C_1  and  C_2
REMARK    2  A    between atoms: N_4  and  C_5
REMARK    3  A    between atoms: C_8  and  N_9
REMARK    4  A    between atoms: C_10  and  C_12
REMARK    5  A    between atoms: C_17  and  C_19
REMARK                            x       y       z     vdW  Elec       q    Type
REMARK                         _______ _______ _______ _____ _____    ______ ____
ROOT
ATOM      1  C   UNL     1       2.142   4.331  19.336  0.00  0.00    +0.000 C 
ATOM      2  C   UNL     1       1.102   4.231  20.476  0.00  0.00    +0.000 C 
ATOM      3  C   UNL     1       1.369   2.889  21.103  0.00  0.00    +0.000 C 
ATOM      4  C   UNL     1       2.865   2.689  20.915  0.00  0.00    +0.000 C 
ATOM      5  N   UNL     1       3.330   3.699  19.957  0.00  0.00    +0.000 N 
ATOM      6  C   UNL     1       4.602   3.435  19.436  0.00  0.00    +0.000 C 
ATOM      7  O   UNL     1       5.270   2.509  19.916  0.00  0.00    +0.000 OA
ENDROOT
BRANCH   6   8
ATOM      8  C   UNL     1       5.241   4.299  18.329  0.00  0.00    +0.000 C 
ATOM      9  C   UNL     1       4.549   4.027  16.985  0.00  0.00    +0.000 C 
ATOM     10  C   UNL     1       5.213   4.797  15.843  0.00  0.00    +0.000 C 
ATOM     11  C   UNL     1       4.977   6.289  16.096  0.00  0.00    +0.000 C 
ATOM     12  C   UNL     1       5.600   6.683  17.447  0.00  0.00    +0.000 C 
ATOM     13  C   UNL     1       7.113   6.431  17.371  0.00  0.00    +0.000 C 
ATOM     14  C   UNL     1       7.380   4.935  17.134  0.00  0.00    +0.000 C 
ATOM     15  C   UNL     1       6.722   4.497  15.816  0.00  0.00    +0.000 C 
ATOM     16  C   UNL     1       6.771   4.118  18.284  0.00  0.00    +0.000 C 
ATOM     17  C   UNL     1       5.000   5.827  18.589  0.00  0.00    +0.000 C 
ENDBRANCH   6   8
BRANCH   1  19
ATOM     18  N   UNL     1       2.106   6.807  19.703  0.00  0.00    +0.000 N 
ATOM     19  C   UNL     1       2.014   5.772  18.779  0.00  0.00    +0.000 C 
ATOM     20  O   UNL     1       1.718   5.909  17.591  0.00  0.00    +0.000 OA
ATOM     21  H   UNL     1       2.341   6.557  20.655  0.00  0.00    +0.000 HD
BRANCH  18  25
ATOM     22  C   UNL     1       0.931  10.798  18.899  0.00  0.00    +0.000 A 
ATOM     23  C   UNL     1       1.749  10.126  18.001  0.00  0.00    +0.000 A 
ATOM     24  C   UNL     1       2.199   8.827  18.276  0.00  0.00    +0.000 A 
ATOM     25  C   UNL     1       1.836   8.174  19.455  0.00  0.00    +0.000 A 
ATOM     26  C   UNL     1       1.122   8.903  20.415  0.00  0.00    +0.000 A 
ATOM     27  C   UNL     1       0.675  10.208  20.140  0.00  0.00    +0.000 A 
BRANCH  22  31
ATOM     28  C   UNL     1      -0.075  14.416  18.518  0.00  0.00    +0.000 C 
ATOM     29  C   UNL     1       0.763  13.279  19.042  0.00  0.00    +0.000 C 
ATOM     30  O   UNL     1       1.718  13.505  19.778  0.00  0.00    +0.000 OA
ATOM     31  N   UNL     1       0.324  12.039  18.596  0.00  0.00    +0.000 N 
ATOM     32  H   UNL     1      -0.373  12.038  17.866  0.00  0.00    +0.000 HD
ENDBRANCH  22  31
ENDBRANCH  18  25
ENDBRANCH   1  19
TORSDOF 4
ENDMDL
MODEL 3
REMARK VINA RESULT:      -9.0      0.654      1.092
REMARK  Name = 
REMARK  5 active torsions:
REMARK  status: ('A' for Active; 'I' for Inactive)
REMARK    1  A    between atoms: C_1  and  C_2
REMARK    2  A    between atoms: N_4  and  C_5
REMARK    3  A    between atoms: C_8  and  N_9
REMARK    4  A    between atoms: C_10  and  C_12
REMARK    5  A    between atoms: C_17  and  C_19
REMARK                            x       y       z     vdW  Elec       q    Type
REMARK                         _______ _______ _______ _____ _____    ______ ____
ROOT
ATOM      1  C   UNL     1       2.166   4.450  19.314  0.00  0.00    +0.000 C 
ATOM      2  C   UNL     1       1.172   4.303  20.490  0.00  0.00    +0.000 C 
ATOM      3  C   UNL     1       1.492   2.954  21.077  0.00  0.00    +0.000 C 
ATOM      4  C   UNL     1       2.983   2.790  20.827  0.00  0.00    +0.000 C 
ATOM      5  N   UNL     1       3.389   3.831  19.875  0.00  0.00    +0.000 N 
ATOM      6  C   UNL     1       4.645   3.607  19.299  0.00  0.00    +0.000 C 
ATOM      7  O   UNL     1       5.351   2.685  19.733  0.00  0.00    +0.000 OA
ENDROOT
BRANCH   6   8
ATOM      8  C   UNL     1       5.223   4.508  18.189  0.00  0.00    +0.000 C 
ATOM      9  C   UNL     1       5.117   5.984  18.603  0.00  0.00    +0.000 C 
ATOM     10  C   UNL     1       5.595   6.917  17.490  0.00  0.00    +0.000 C 
ATOM     11  C   UNL     1       7.097   6.681  17.307  0.00  0.00    +0.000 C 
ATOM     12  C   UNL     1       7.341   5.212  16.921  0.00  0.00    +0.000 C 
ATOM     13  C   UNL     1       6.635   4.941  15.584  0.00  0.00    +0.000 C 
ATOM     14  C   UNL     1       5.121   5.155  15.744  0.00  0.00    +0.000 C 
ATOM     15  C   UNL     1       4.847   6.602  16.183  0.00  0.00    +0.000 C 
ATOM     16  C   UNL     1       4.581   4.202  16.822  0.00  0.00    +0.000 C 
ATOM     17  C   UNL     1       6.761   4.267  18.001  0.00  0.00    +0.000 C 
ENDBRANCH   6   8
BRANCH   1  19
ATOM     18  N   UNL     1       1.970   6.906  19.752  0.00  0.00    +0.000 N 
ATOM     19  C   UNL     1       1.985   5.899  18.794  0.00  0.00    +0.000 C 
ATOM     20  O   UNL     1       1.745   6.059  17.596  0.00  0.00    +0.000 OA
ATOM     21  H   UNL     1       2.169   6.639  20.708  0.00  0.00    +0.000 HD
BRANCH  18  25
ATOM     22  C   UNL     1       1.340  11.055  19.159  0.00  0.00    +0.000 A 
ATOM     23  C   UNL     1       0.796  10.426  20.271  0.00  0.00    +0.000 A 
ATOM     24  C   UNL     1       0.941   9.045  20.455  0.00  0.00    +0.000 A 
ATOM     25  C   UNL     1       1.636   8.265  19.531  0.00  0.00    +0.000 A 
ATOM     26  C   UNL     1       2.068   8.878  18.347  0.00  0.00    +0.000 A 
ATOM     27  C   UNL     1       1.918  10.264  18.161  0.00  0.00    +0.000 A 
BRANCH  22  31
ATOM     28  C   UNL     1       0.615  14.711  18.561  0.00  0.00    +0.000 C 
ATOM     29  C   UNL     1       0.292  13.238  18.580  0.00  0.00    +0.000 C 
ATOM     30  O   UNL     1      -0.819  12.847  18.240  0.00  0.00    +0.000 OA
ATOM     31  N   UNL     1       1.359  12.461  19.011  0.00  0.00    +0.000 N 
ATOM     32  H   UNL     1       2.147  12.950  19.409  0.00  0.00    +0.000 HD
ENDBRANCH  22  31
ENDBRANCH  18  25
ENDBRANCH   1  19
TORSDOF 4
ENDMDL
MODEL 4
REMARK VINA RESULT:      -9.0      0.079      1.378
REMARK  Name = 
REMARK  5 active torsions:
REMARK  status: ('A' for Active; 'I' for Inactive)
REMARK    1  A    between atoms: C_1  and  C_2
REMARK    2  A    between atoms: N_4  and  C_5
REMARK    3  A    between atoms: C_8  and  N_9
REMARK    4  A    between atoms: C_10  and  C_12
REMARK    5  A    between atoms: C_17  and  C_19
REMARK                            x       y       z     vdW  Elec       q    Type
REMARK                         _______ _______ _______ _____ _____    ______ ____
ROOT
ATOM      1  C   UNL     1       2.155   4.369  19.275  0.00  0.00    +0.000 C 
ATOM      2  C   UNL     1       1.140   4.242  20.434  0.00  0.00    +0.000 C 
ATOM      3  C   UNL     1       1.449   2.904  21.051  0.00  0.00    +0.000 C 
ATOM      4  C   UNL     1       2.944   2.736  20.833  0.00  0.00    +0.000 C 
ATOM      5  N   UNL     1       3.368   3.761  19.870  0.00  0.00    +0.000 N 
ATOM      6  C   UNL     1       4.635   3.527  19.323  0.00  0.00    +0.000 C 
ATOM      7  O   UNL     1       5.332   2.613  19.786  0.00  0.00    +0.000 OA
ENDROOT
BRANCH   6   8
ATOM      8  C   UNL     1       5.234   4.409  18.208  0.00  0.00    +0.000 C 
ATOM      9  C   UNL     1       6.711   4.049  17.991  0.00  0.00    +0.000 C 
ATOM     10  C   UNL     1       7.369   4.964  16.956  0.00  0.00    +0.000 C 
ATOM     11  C   UNL     1       6.706   4.679  15.605  0.00  0.00    +0.000 C 
ATOM     12  C   UNL     1       5.198   4.970  15.703  0.00  0.00    +0.000 C 
ATOM     13  C   UNL     1       5.015   6.458  16.035  0.00  0.00    +0.000 C 
ATOM     14  C   UNL     1       5.657   6.769  17.398  0.00  0.00    +0.000 C 
ATOM     15  C   UNL     1       7.157   6.437  17.349  0.00  0.00    +0.000 C 
ATOM     16  C   UNL     1       4.997   5.906  18.484  0.00  0.00    +0.000 C 
ATOM     17  C   UNL     1       4.556   4.117  16.824  0.00  0.00    +0.000 C 
ENDBRANCH   6   8
BRANCH   1  19
ATOM     18  N   UNL     1       2.141   6.845  19.640  0.00  0.00    +0.000 N 
ATOM     19  C   UNL     1       1.985   5.809  18.727  0.00  0.00    +0.000 C 
ATOM     20  O   UNL     1       1.605   5.944  17.562  0.00  0.00    +0.000 OA
ATOM     21  H   UNL     1       2.444   6.597  20.574  0.00  0.00    +0.000 HD
BRANCH  18  25
ATOM     22  C   UNL     1       0.910  10.829  18.880  0.00  0.00    +0.000 A 
ATOM     23  C   UNL     1       1.763  10.188  17.991  0.00  0.00    +0.000 A 
ATOM     24  C   UNL     1       2.229   8.893  18.253  0.00  0.00    +0.000 A 
ATOM     25  C   UNL     1       1.851   8.212  19.410  0.00  0.00    +0.000 A 
ATOM     26  C   UNL     1       1.100   8.909  20.366  0.00  0.00    +0.000 A 
ATOM     27  C   UNL     1       0.635  10.211  20.104  0.00  0.00    +0.000 A 
BRANCH  22  31
ATOM     28  C   UNL     1      -0.124  14.438  18.494  0.00  0.00    +0.000 C 
ATOM     29  C   UNL     1       0.737  13.310  19.001  0.00  0.00    +0.000 C 
ATOM     30  O   UNL     1       1.717  13.548  19.699  0.00  0.00    +0.000 OA
ATOM     31  N   UNL     1       0.288  12.063  18.585  0.00  0.00    +0.000 N 
ATOM     32  H   UNL     1      -0.435  12.051  17.881  0.00  0.00    +0.000 HD
ENDBRANCH  22  31
ENDBRANCH  18  25
ENDBRANCH   1  19
TORSDOF 4
ENDMDL
MODEL 5
REMARK VINA RESULT:      -8.7      0.574      1.718
REMARK  Name = 
REMARK  5 active torsions:
REMARK  status: ('A' for Active; 'I' for Inactive)
REMARK    1  A    between atoms: C_1  and  C_2
REMARK    2  A    between atoms: N_4  and  C_5
REMARK    3  A    between atoms: C_8  and  N_9
REMARK    4  A    between atoms: C_10  and  C_12
REMARK    5  A    between atoms: C_17  and  C_19
REMARK                            x       y       z     vdW  Elec       q    Type
REMARK                         _______ _______ _______ _____ _____    ______ ____
ROOT
ATOM      1  C   UNL     1       2.173   4.382  19.256  0.00  0.00    +0.000 C 
ATOM      2  C   UNL     1       1.149   4.269  20.410  0.00  0.00    +0.000 C 
ATOM      3  C   UNL     1       1.503   2.975  21.092  0.00  0.00    +0.000 C 
ATOM      4  C   UNL     1       3.006   2.856  20.897  0.00  0.00    +0.000 C 
ATOM      5  N   UNL     1       3.402   3.850  19.892  0.00  0.00    +0.000 N 
ATOM      6  C   UNL     1       4.683   3.640  19.369  0.00  0.00    +0.000 C 
ATOM      7  O   UNL     1       5.409   2.777  19.882  0.00  0.00    +0.000 OA
ENDROOT
BRANCH   6   8
ATOM      8  C   UNL     1       5.260   4.492  18.219  0.00  0.00    +0.000 C 
ATOM      9  C   UNL     1       6.744   4.154  18.011  0.00  0.00    +0.000 C 
ATOM     10  C   UNL     1       7.379   5.042  16.940  0.00  0.00    +0.000 C 
ATOM     11  C   UNL     1       6.719   4.694  15.603  0.00  0.00    +0.000 C 
ATOM     12  C   UNL     1       5.206   4.957  15.695  0.00  0.00    +0.000 C 
ATOM     13  C   UNL     1       4.993   6.453  15.972  0.00  0.00    +0.000 C 
ATOM     14  C   UNL     1       5.633   6.828  17.319  0.00  0.00    +0.000 C 
ATOM     15  C   UNL     1       7.139   6.524  17.278  0.00  0.00    +0.000 C 
ATOM     16  C   UNL     1       4.993   5.993  18.440  0.00  0.00    +0.000 C 
ATOM     17  C   UNL     1       4.584   4.134  16.850  0.00  0.00    +0.000 C 
ENDBRANCH   6   8
BRANCH   1  19
ATOM     18  N   UNL     1       2.076   6.871  19.500  0.00  0.00    +0.000 N 
ATOM     19  C   UNL     1       1.953   5.786  18.639  0.00  0.00    +0.000 C 
ATOM     20  O   UNL     1       1.568   5.851  17.471  0.00  0.00    +0.000 OA
ATOM     21  H   UNL     1       2.389   6.679  20.444  0.00  0.00    +0.000 HD
BRANCH  18  25
ATOM     22  C   UNL     1       1.434  10.984  18.708  0.00  0.00    +0.000 A 
ATOM     23  C   UNL     1       0.820  10.388  19.801  0.00  0.00    +0.000 A 
ATOM     24  C   UNL     1       0.971   9.016  20.047  0.00  0.00    +0.000 A 
ATOM     25  C   UNL     1       1.740   8.214  19.205  0.00  0.00    +0.000 A 
ATOM     26  C   UNL     1       2.247   8.791  18.032  0.00  0.00    +0.000 A 
ATOM     27  C   UNL     1       2.092  10.166  17.784  0.00  0.00    +0.000 A 
BRANCH  22  31
ATOM     28  C   UNL     1       1.853  14.731  18.882  0.00  0.00    +0.000 C 
ATOM     29  C   UNL     1       1.958  13.319  19.397  0.00  0.00    +0.000 C 
ATOM     30  O   UNL     1       2.461  13.099  20.494  0.00  0.00    +0.000 OA
ATOM     31  N   UNL     1       1.444  12.383  18.508  0.00  0.00    +0.000 N 
ATOM     32  H   UNL     1       1.218  12.712  17.581  0.00  0.00    +0.000 HD
ENDBRANCH  22  31
ENDBRANCH  18  25
ENDBRANCH   1  19
TORSDOF 4
ENDMDL
MODEL 6
REMARK VINA RESULT:      -8.7      0.649      1.771
REMARK  Name = 
REMARK  5 active torsions:
REMARK  status: ('A' for Active; 'I' for Inactive)
REMARK    1  A    between atoms: C_1  and  C_2
REMARK    2  A    between atoms: N_4  and  C_5
REMARK    3  A    between atoms: C_8  and  N_9
REMARK    4  A    between atoms: C_10  and  C_12
REMARK    5  A    between atoms: C_17  and  C_19
REMARK                            x       y       z     vdW  Elec       q    Type
REMARK                         _______ _______ _______ _____ _____    ______ ____
ROOT
ATOM      1  C   UNL     1       2.155   4.363  19.305  0.00  0.00    +0.000 C 
ATOM      2  C   UNL     1       1.131   4.198  20.453  0.00  0.00    +0.000 C 
ATOM      3  C   UNL     1       1.450   2.849  21.040  0.00  0.00    +0.000 C 
ATOM      4  C   UNL     1       2.949   2.703  20.830  0.00  0.00    +0.000 C 
ATOM      5  N   UNL     1       3.369   3.754  19.895  0.00  0.00    +0.000 N 
ATOM      6  C   UNL     1       4.643   3.546  19.352  0.00  0.00    +0.000 C 
ATOM      7  O   UNL     1       5.346   2.629  19.799  0.00  0.00    +0.000 OA
ENDROOT
BRANCH   6   8
ATOM      8  C   UNL     1       5.240   4.460  18.263  0.00  0.00    +0.000 C 
ATOM      9  C   UNL     1       4.549   4.194  16.917  0.00  0.00    +0.000 C 
ATOM     10  C   UNL     1       5.175   5.016  15.790  0.00  0.00    +0.000 C 
ATOM     11  C   UNL     1       4.884   6.491  16.081  0.00  0.00    +0.000 C 
ATOM     12  C   UNL     1       5.501   6.877  17.437  0.00  0.00    +0.000 C 
ATOM     13  C   UNL     1       7.022   6.685  17.345  0.00  0.00    +0.000 C 
ATOM     14  C   UNL     1       7.344   5.207  17.070  0.00  0.00    +0.000 C 
ATOM     15  C   UNL     1       6.694   4.775  15.746  0.00  0.00    +0.000 C 
ATOM     16  C   UNL     1       6.775   4.340  18.204  0.00  0.00    +0.000 C 
ATOM     17  C   UNL     1       4.942   5.971  18.561  0.00  0.00    +0.000 C 
ENDBRANCH   6   8
BRANCH   1  19
ATOM     18  N   UNL     1       1.971   6.819  19.749  0.00  0.00    +0.000 N 
ATOM     19  C   UNL     1       1.972   5.814  18.789  0.00  0.00    +0.000 C 
ATOM     20  O   UNL     1       1.721   5.976  17.594  0.00  0.00    +0.000 OA
ATOM     21  H   UNL     1       2.179   6.550  20.702  0.00  0.00    +0.000 HD
BRANCH  18  25
ATOM     22  C   UNL     1       1.347  10.971  19.168  0.00  0.00    +0.000 A 
ATOM     23  C   UNL     1       0.814  10.342  20.286  0.00  0.00    +0.000 A 
ATOM     24  C   UNL     1       0.957   8.960  20.467  0.00  0.00    +0.000 A 
ATOM     25  C   UNL     1       1.638   8.179  19.533  0.00  0.00    +0.000 A 
ATOM     26  C   UNL     1       2.057   8.792  18.345  0.00  0.00    +0.000 A 
ATOM     27  C   UNL     1       1.909  10.179  18.162  0.00  0.00    +0.000 A 
BRANCH  22  31
ATOM     28  C   UNL     1       0.632  14.627  18.560  0.00  0.00    +0.000 C 
ATOM     29  C   UNL     1       0.309  13.154  18.573  0.00  0.00    +0.000 C 
ATOM     30  O   UNL     1      -0.797  12.763  18.213  0.00  0.00    +0.000 OA
ATOM     31  N   UNL     1       1.368  12.376  19.021  0.00  0.00    +0.000 N 
ATOM     32  H   UNL     1       2.149  12.865  19.433  0.00  0.00    +0.000 HD
ENDBRANCH  22  31
ENDBRANCH  18  25
ENDBRANCH   1  19
TORSDOF 4
ENDMDL
MODEL 7
REMARK VINA RESULT:      -8.6      1.047      1.053
REMARK  Name = 
REMARK  5 active torsions:
REMARK  status: ('A' for Active; 'I' for Inactive)
REMARK    1  A    between atoms: C_1  and  C_2
REMARK    2  A    between atoms: N_4  and  C_5
REMARK    3  A    between atoms: C_8  and  N_9
REMARK    4  A    between atoms: C_10  and  C_12
REMARK    5  A    between atoms: C_17  and  C_19
REMARK                            x       y       z     vdW  Elec       q    Type
REMARK                         _______ _______ _______ _____ _____    ______ ____
ROOT
ATOM      1  C   UNL     1       2.182   4.356  19.440  0.00  0.00    +0.000 C 
ATOM      2  C   UNL     1       1.213   4.149  20.628  0.00  0.00    +0.000 C 
ATOM      3  C   UNL     1       1.494   2.746  21.094  0.00  0.00    +0.000 C 
ATOM      4  C   UNL     1       2.971   2.548  20.791  0.00  0.00    +0.000 C 
ATOM      5  N   UNL     1       3.394   3.647  19.915  0.00  0.00    +0.000 N 
ATOM      6  C   UNL     1       4.626   3.424  19.289  0.00  0.00    +0.000 C 
ATOM      7  O   UNL     1       5.305   2.444  19.626  0.00  0.00    +0.000 OA
ENDROOT
BRANCH   6   8
ATOM      8  C   UNL     1       5.211   4.391  18.239  0.00  0.00    +0.000 C 
ATOM      9  C   UNL     1       5.129   5.836  18.754  0.00  0.00    +0.000 C 
ATOM     10  C   UNL     1       5.616   6.837  17.706  0.00  0.00    +0.000 C 
ATOM     11  C   UNL     1       7.113   6.593  17.497  0.00  0.00    +0.000 C 
ATOM     12  C   UNL     1       7.333   5.150  17.010  0.00  0.00    +0.000 C 
ATOM     13  C   UNL     1       6.617   4.982  15.662  0.00  0.00    +0.000 C 
ATOM     14  C   UNL     1       5.106   5.206  15.845  0.00  0.00    +0.000 C 
ATOM     15  C   UNL     1       4.856   6.623  16.384  0.00  0.00    +0.000 C 
ATOM     16  C   UNL     1       4.557   4.190  16.858  0.00  0.00    +0.000 C 
ATOM     17  C   UNL     1       6.744   4.141  18.026  0.00  0.00    +0.000 C 
ENDBRANCH   6   8
BRANCH   1  19
ATOM     18  N   UNL     1       2.070   6.771  20.084  0.00  0.00    +0.000 N 
ATOM     19  C   UNL     1       2.046   5.848  19.045  0.00  0.00    +0.000 C 
ATOM     20  O   UNL     1       1.805   6.115  17.867  0.00  0.00    +0.000 OA
ATOM     21  H   UNL     1       2.265   6.418  21.013  0.00  0.00    +0.000 HD
BRANCH  18  25
ATOM     22  C   UNL     1       0.828  10.814  19.804  0.00  0.00    +0.000 A 
ATOM     23  C   UNL     1       1.370  10.179  18.694  0.00  0.00    +0.000 A 
ATOM     24  C   UNL     1       1.842   8.863  18.781  0.00  0.00    +0.000 A 
ATOM     25  C   UNL     1       1.780   8.153  19.980  0.00  0.00    +0.000 A 
ATOM     26  C   UNL     1       1.357   8.839  21.126  0.00  0.00    +0.000 A 
ATOM     27  C   UNL     1       0.887  10.162  21.040  0.00  0.00    +0.000 A 
BRANCH  22  31
ATOM     28  C   UNL     1      -1.540  13.747  19.613  0.00  0.00    +0.000 C 
ATOM     29  C   UNL     1      -1.175  12.285  19.644  0.00  0.00    +0.000 C 
ATOM     30  O   UNL     1      -2.052  11.429  19.600  0.00  0.00    +0.000 OA
ATOM     31  N   UNL     1       0.196  12.076  19.728  0.00  0.00    +0.000 N 
ATOM     32  H   UNL     1       0.769  12.884  19.921  0.00  0.00    +0.000 HD
ENDBRANCH  22  31
ENDBRANCH  18  25
ENDBRANCH   1  19
TORSDOF 4
ENDMDL
MODEL 8
REMARK VINA RESULT:      -8.3      1.004      1.702
REMARK  Name = 
REMARK  5 active torsions:
REMARK  status: ('A' for Active; 'I' for Inactive)
REMARK    1  A    between atoms: C_1  and  C_2
REMARK    2  A    between atoms: N_4  and  C_5
REMARK    3  A    between atoms: C_8  and  N_9
REMARK    4  A    between atoms: C_10  and  C_12
REMARK    5  A    between atoms: C_17  and  C_19
REMARK                            x       y       z     vdW  Elec       q    Type
REMARK                         _______ _______ _______ _____ _____    ______ ____
ROOT
ATOM      1  C   UNL     1       2.181   4.382  19.408  0.00  0.00    +0.000 C 
ATOM      2  C   UNL     1       1.187   4.189  20.578  0.00  0.00    +0.000 C 
ATOM      3  C   UNL     1       1.455   2.789  21.062  0.00  0.00    +0.000 C 
ATOM      4  C   UNL     1       2.937   2.584  20.791  0.00  0.00    +0.000 C 
ATOM      5  N   UNL     1       3.381   3.675  19.914  0.00  0.00    +0.000 N 
ATOM      6  C   UNL     1       4.624   3.443  19.314  0.00  0.00    +0.000 C 
ATOM      7  O   UNL     1       5.294   2.464  19.674  0.00  0.00    +0.000 OA
ENDROOT
BRANCH   6   8
ATOM      8  C   UNL     1       5.233   4.399  18.268  0.00  0.00    +0.000 C 
ATOM      9  C   UNL     1       4.506   4.238  16.924  0.00  0.00    +0.000 C 
ATOM     10  C   UNL     1       5.139   5.103  15.833  0.00  0.00    +0.000 C 
ATOM     11  C   UNL     1       4.907   6.568  16.217  0.00  0.00    +0.000 C 
ATOM     12  C   UNL     1       5.564   6.850  17.579  0.00  0.00    +0.000 C 
ATOM     13  C   UNL     1       7.075   6.611  17.444  0.00  0.00    +0.000 C 
ATOM     14  C   UNL     1       7.338   5.141  17.075  0.00  0.00    +0.000 C 
ATOM     15  C   UNL     1       6.647   4.812  15.742  0.00  0.00    +0.000 C 
ATOM     16  C   UNL     1       6.761   4.228  18.168  0.00  0.00    +0.000 C 
ATOM     17  C   UNL     1       4.995   5.899  18.660  0.00  0.00    +0.000 C 
ENDBRANCH   6   8
BRANCH   1  19
ATOM     18  N   UNL     1       2.084   6.805  20.026  0.00  0.00    +0.000 N 
ATOM     19  C   UNL     1       2.057   5.871  18.997  0.00  0.00    +0.000 C 
ATOM     20  O   UNL     1       1.820   6.128  17.815  0.00  0.00    +0.000 OA
ATOM     21  H   UNL     1       2.275   6.460  20.959  0.00  0.00    +0.000 HD
BRANCH  18  25
ATOM     22  C   UNL     1       0.873  10.852  19.689  0.00  0.00    +0.000 A 
ATOM     23  C   UNL     1       1.445  10.210  18.599  0.00  0.00    +0.000 A 
ATOM     24  C   UNL     1       1.907   8.891  18.706  0.00  0.00    +0.000 A 
ATOM     25  C   UNL     1       1.804   8.188  19.907  0.00  0.00    +0.000 A 
ATOM     26  C   UNL     1       1.350   8.881  21.036  0.00  0.00    +0.000 A 
ATOM     27  C   UNL     1       0.890  10.206  20.929  0.00  0.00    +0.000 A 
BRANCH  22  31
ATOM     28  C   UNL     1      -1.474  13.802  19.486  0.00  0.00    +0.000 C 
ATOM     29  C   UNL     1      -1.121  12.339  19.566  0.00  0.00    +0.000 C 
ATOM     30  O   UNL     1      -2.008  11.492  19.608  0.00  0.00    +0.000 OA
ATOM     31  N   UNL     1       0.250  12.117  19.588  0.00  0.00    +0.000 N 
ATOM     32  H   UNL     1       0.840  12.926  19.712  0.00  0.00    +0.000 HD
ENDBRANCH  22  31
ENDBRANCH  18  25
ENDBRANCH   1  19
TORSDOF 4
ENDMDL
MODEL 9
REMARK VINA RESULT:      -8.3      1.038      1.743
REMARK  Name = 
REMARK  5 active torsions:
REMARK  status: ('A' for Active; 'I' for Inactive)
REMARK    1  A    between atoms: C_1  and  C_2
REMARK    2  A    between atoms: N_4  and  C_5
REMARK    3  A    between atoms: C_8  and  N_9
REMARK    4  A    between atoms: C_10  and  C_12
REMARK    5  A    between atoms: C_17  and  C_19
REMARK                            x       y       z     vdW  Elec       q    Type
REMARK                         _______ _______ _______ _____ _____    ______ ____
ROOT
ATOM      1  C   UNL     1       2.205   4.421  19.431  0.00  0.00    +0.000 C 
ATOM      2  C   UNL     1       1.245   4.217  20.626  0.00  0.00    +0.000 C 
ATOM      3  C   UNL     1       1.528   2.814  21.092  0.00  0.00    +0.000 C 
ATOM      4  C   UNL     1       3.002   2.613  20.777  0.00  0.00    +0.000 C 
ATOM      5  N   UNL     1       3.420   3.711  19.897  0.00  0.00    +0.000 N 
ATOM      6  C   UNL     1       4.646   3.486  19.261  0.00  0.00    +0.000 C 
ATOM      7  O   UNL     1       5.327   2.505  19.595  0.00  0.00    +0.000 OA
ENDROOT
BRANCH   6   8
ATOM      8  C   UNL     1       5.224   4.451  18.206  0.00  0.00    +0.000 C 
ATOM      9  C   UNL     1       6.689   4.092  17.913  0.00  0.00    +0.000 C 
ATOM     10  C   UNL     1       7.329   5.082  16.938  0.00  0.00    +0.000 C 
ATOM     11  C   UNL     1       6.621   4.921  15.590  0.00  0.00    +0.000 C 
ATOM     12  C   UNL     1       5.121   5.222  15.759  0.00  0.00    +0.000 C 
ATOM     13  C   UNL     1       4.972   6.679  16.221  0.00  0.00    +0.000 C 
ATOM     14  C   UNL     1       5.660   6.866  17.583  0.00  0.00    +0.000 C 
ATOM     15  C   UNL     1       7.152   6.519  17.459  0.00  0.00    +0.000 C 
ATOM     16  C   UNL     1       5.019   5.923  18.614  0.00  0.00    +0.000 C 
ATOM     17  C   UNL     1       4.500   4.286  16.825  0.00  0.00    +0.000 C 
ENDBRANCH   6   8
BRANCH   1  19
ATOM     18  N   UNL     1       2.077   6.836  20.074  0.00  0.00    +0.000 N 
ATOM     19  C   UNL     1       2.068   5.913  19.035  0.00  0.00    +0.000 C 
ATOM     20  O   UNL     1       1.838   6.180  17.854  0.00  0.00    +0.000 OA
ATOM     21  H   UNL     1       2.264   6.483  21.004  0.00  0.00    +0.000 HD
BRANCH  18  25
ATOM     22  C   UNL     1       0.824  10.873  19.779  0.00  0.00    +0.000 A 
ATOM     23  C   UNL     1       1.390  10.244  18.678  0.00  0.00    +0.000 A 
ATOM     24  C   UNL     1       1.866   8.929  18.771  0.00  0.00    +0.000 A 
ATOM     25  C   UNL     1       1.783   8.217  19.967  0.00  0.00    +0.000 A 
ATOM     26  C   UNL     1       1.335   8.898  21.107  0.00  0.00    +0.000 A 
ATOM     27  C   UNL     1       0.861  10.219  21.014  0.00  0.00    +0.000 A 
BRANCH  22  31
ATOM     28  C   UNL     1      -1.553  13.797  19.557  0.00  0.00    +0.000 C 
ATOM     29  C   UNL     1      -1.183  12.336  19.595  0.00  0.00    +0.000 C 
ATOM     30  O   UNL     1      -2.057  11.477  19.545  0.00  0.00    +0.000 OA
ATOM     31  N   UNL     1       0.188  12.133  19.693  0.00  0.00    +0.000 N 
ATOM     32  H   UNL     1       0.756  12.943  19.890  0.00  0.00    +0.000 HD
ENDBRANCH  22  31
ENDBRANCH  18  25
ENDBRANCH   1  19
TORSDOF 4
ENDMDL
