MODEL 1
REMARK VINA RESULT:      -8.9      0.000      0.000
REMARK  Name = 
REMARK  5 active torsions:
REMARK  status: ('A' for Active; 'I' for Inactive)
REMARK    1  A    between atoms: C_2  and  C_3
REMARK    2  A    between atoms: C_8  and  C_9
REMARK    3  A    between atoms: C_9  and  C_10
REMARK    4  A    between atoms: C_10  and  C_11
REMARK    5  A    between atoms: C_21  and  C_22
REMARK                            x       y       z     vdW  Elec       q    Type
REMARK                         _______ _______ _______ _____ _____    ______ ____
ROOT
ATOM      1  O   UNL     1       4.055   5.534  19.957  0.00  0.00    +0.000 OA
ATOM      2  C   UNL     1       3.947   6.064  18.847  0.00  0.00    +0.000 C 
ATOM      3  N   UNL     1       2.952   7.038  18.605  0.00  0.00    +0.000 N 
ATOM      4  C   UNL     1       2.646   7.710  17.337  0.00  0.00    +0.000 C 
ATOM      5  C   UNL     1       2.323   9.192  17.509  0.00  0.00    +0.000 C 
ATOM      6  C   UNL     1       1.285   9.450  18.597  0.00  0.00    +0.000 C 
ATOM      7  C   UNL     1       1.687   8.751  19.900  0.00  0.00    +0.000 C 
ATOM      8  C   UNL     1       1.941   7.256  19.648  0.00  0.00    +0.000 C 
ENDROOT
BRANCH   7   9
ATOM      9  C   UNL     1       0.648   8.909  20.955  0.00  0.00    +0.000 A 
ATOM     10  N   UNL     1       0.131   7.972  21.737  0.00  0.00    +0.000 NA
ATOM     11  N   UNL     1      -0.665   8.586  22.702  0.00  0.00    +0.000 NA
ATOM     12  C   UNL     1      -0.595   9.868  22.472  0.00  0.00    +0.000 A 
ATOM     13  N   UNL     1       0.139  10.089  21.357  0.00  0.00    +0.000 N 
ATOM     14  C   UNL     1       0.122  11.459  20.915  0.00  0.00    +0.000 C 
ATOM     15  C   UNL     1      -0.482  12.192  22.127  0.00  0.00    +0.000 C 
ATOM     16  C   UNL     1      -1.131  11.113  23.036  0.00  0.00    +0.000 C 
ENDBRANCH   7   9
BRANCH   2  17
ATOM     17  C   UNL     1       4.930   5.650  17.785  0.00  0.00    +0.000 A 
ATOM     18  C   UNL     1       6.071   6.445  17.581  0.00  0.00    +0.000 A 
ATOM     19  C   UNL     1       7.074   6.062  16.694  0.00  0.00    +0.000 A 
ATOM     20  C   UNL     1       6.918   4.908  15.943  0.00  0.00    +0.000 A 
ATOM     21  C   UNL     1       5.742   4.177  16.027  0.00  0.00    +0.000 A 
ATOM     22  C   UNL     1       4.715   4.539  16.923  0.00  0.00    +0.000 A 
BRANCH  22  23
ATOM     23  C   UNL     1       3.361   3.842  16.826  0.00  0.00    +0.000 C 
BRANCH  23  24
ATOM     24  C   UNL     1       3.125   2.550  17.639  0.00  0.00    +0.000 C 
BRANCH  24  25
ATOM     25  C   UNL     1       2.520   2.685  19.020  0.00  0.00    +0.000 A 
ATOM     26  C   UNL     1       3.185   2.257  20.178  0.00  0.00    +0.000 A 
ATOM     27  C   UNL     1       2.685   2.563  21.443  0.00  0.00    +0.000 A 
ATOM     28  C   UNL     1       1.512   3.300  21.572  0.00  0.00    +0.000 A 
ATOM     29  C   UNL     1       0.816   3.699  20.434  0.00  0.00    +0.000 A 
ATOM     30  C   UNL     1       1.314   3.391  19.166  0.00  0.00    +0.000 A 
ENDBRANCH  24  25
ENDBRANCH  23  24
ENDBRANCH  22  23
ENDBRANCH   2  17
TORSDOF 5
ENDMDL
MODEL 2
REMARK VINA RESULT:      -8.7      3.028      8.393
REMARK  Name = 
REMARK  5 active torsions:
REMARK  status: ('A' for Active; 'I' for Inactive)
REMARK    1  A    between atoms: C_2  and  C_3
REMARK    2  A    between atoms: C_8  and  C_9
REMARK    3  A    between atoms: C_9  and  C_10
REMARK    4  A    between atoms: C_10  and  C_11
REMARK    5  A    between atoms: C_21  and  C_22
REMARK                            x       y       z     vdW  Elec       q    Type
REMARK                         _______ _______ _______ _____ _____    ______ ____
ROOT
ATOM      1  O   UNL     1       2.704   3.230  16.567  0.00  0.00    +0.000 OA
ATOM      2  C   UNL     1       3.312   3.592  17.578  0.00  0.00    +0.000 C 
ATOM      3  N   UNL     1       4.634   4.083  17.489  0.00  0.00    +0.000 N 
ATOM      4  C   UNL     1       5.516   4.487  18.589  0.00  0.00    +0.000 C 
ATOM      5  C   UNL     1       6.335   5.736  18.272  0.00  0.00    +0.000 C 
ATOM      6  C   UNL     1       7.046   5.652  16.925  0.00  0.00    +0.000 C 
ATOM      7  C   UNL     1       6.061   5.263  15.819  0.00  0.00    +0.000 C 
ATOM      8  C   UNL     1       5.320   3.969  16.195  0.00  0.00    +0.000 C 
ENDROOT
BRANCH   7   9
ATOM      9  C   UNL     1       6.743   5.084  14.508  0.00  0.00    +0.000 A 
ATOM     10  N   UNL     1       7.938   5.527  14.144  0.00  0.00    +0.000 NA
ATOM     11  N   UNL     1       8.259   4.975  12.905  0.00  0.00    +0.000 NA
ATOM     12  C   UNL     1       7.251   4.218  12.569  0.00  0.00    +0.000 A 
ATOM     13  N   UNL     1       6.273   4.330  13.497  0.00  0.00    +0.000 N 
ATOM     14  C   UNL     1       5.045   3.677  13.125  0.00  0.00    +0.000 C 
ATOM     15  C   UNL     1       5.478   2.813  11.925  0.00  0.00    +0.000 C 
ATOM     16  C   UNL     1       6.861   3.344  11.456  0.00  0.00    +0.000 C 
ENDBRANCH   7   9
BRANCH   2  17
ATOM     17  C   UNL     1       2.580   3.514  18.891  0.00  0.00    +0.000 A 
ATOM     18  C   UNL     1       2.371   2.250  19.468  0.00  0.00    +0.000 A 
ATOM     19  C   UNL     1       1.802   2.114  20.731  0.00  0.00    +0.000 A 
ATOM     20  C   UNL     1       1.367   3.240  21.411  0.00  0.00    +0.000 A 
ATOM     21  C   UNL     1       1.440   4.487  20.808  0.00  0.00    +0.000 A 
ATOM     22  C   UNL     1       2.020   4.653  19.533  0.00  0.00    +0.000 A 
BRANCH  22  23
ATOM     23  C   UNL     1       1.881   5.995  18.820  0.00  0.00    +0.000 C 
BRANCH  23  24
ATOM     24  C   UNL     1       2.538   7.246  19.445  0.00  0.00    +0.000 C 
BRANCH  24  25
ATOM     25  C   UNL     1       1.627   8.344  19.951  0.00  0.00    +0.000 A 
ATOM     26  C   UNL     1       1.162   9.376  19.124  0.00  0.00    +0.000 A 
ATOM     27  C   UNL     1       0.182  10.262  19.569  0.00  0.00    +0.000 A 
ATOM     28  C   UNL     1      -0.349  10.132  20.849  0.00  0.00    +0.000 A 
ATOM     29  C   UNL     1       0.130   9.139  21.699  0.00  0.00    +0.000 A 
ATOM     30  C   UNL     1       1.114   8.252  21.255  0.00  0.00    +0.000 A 
ENDBRANCH  24  25
ENDBRANCH  23  24
ENDBRANCH  22  23
ENDBRANCH   2  17
TORSDOF 5
ENDMDL
MODEL 3
REMARK VINA RESULT:      -8.3      3.023      8.279
REMARK  Name = 
REMARK  5 active torsions:
REMARK  status: ('A' for Active; 'I' for Inactive)
REMARK    1  A    between atoms: C_2  and  C_3
REMARK    2  A    between atoms: C_8  and  C_9
REMARK    3  A    between atoms: C_9  and  C_10
REMARK    4  A    between atoms: C_10  and  C_11
REMARK    5  A    between atoms: C_21  and  C_22
REMARK                            x       y       z     vdW  Elec       q    Type
REMARK                         _______ _______ _______ _____ _____    ______ ____
ROOT
ATOM      1  O   UNL     1       3.480   2.632  17.185  0.00  0.00    +0.000 OA
ATOM      2  C   UNL     1       3.895   3.414  18.044  0.00  0.00    +0.000 C 
ATOM      3  N   UNL     1       4.979   4.279  17.770  0.00  0.00    +0.000 N 
ATOM      4  C   UNL     1       5.635   5.213  18.692  0.00  0.00    +0.000 C 
ATOM      5  C   UNL     1       5.997   6.544  18.037  0.00  0.00    +0.000 C 
ATOM      6  C   UNL     1       6.743   6.371  16.718  0.00  0.00    +0.000 C 
ATOM      7  C   UNL     1       5.984   5.415  15.792  0.00  0.00    +0.000 C 
ATOM      8  C   UNL     1       5.708   4.084  16.510  0.00  0.00    +0.000 C 
ENDROOT
BRANCH   7   9
ATOM      9  C   UNL     1       6.733   5.155  14.531  0.00  0.00    +0.000 A 
ATOM     10  N   UNL     1       7.965   5.533  14.222  0.00  0.00    +0.000 NA
ATOM     11  N   UNL     1       8.333   4.919  13.026  0.00  0.00    +0.000 NA
ATOM     12  C   UNL     1       7.314   4.190  12.661  0.00  0.00    +0.000 A 
ATOM     13  N   UNL     1       6.289   4.379  13.524  0.00  0.00    +0.000 N 
ATOM     14  C   UNL     1       5.058   3.762  13.106  0.00  0.00    +0.000 C 
ATOM     15  C   UNL     1       5.522   2.833  11.968  0.00  0.00    +0.000 C 
ATOM     16  C   UNL     1       6.951   3.287  11.562  0.00  0.00    +0.000 C 
ENDBRANCH   7   9
BRANCH   2  17
ATOM     17  C   UNL     1       3.187   3.424  19.372  0.00  0.00    +0.000 A 
ATOM     18  C   UNL     1       3.319   2.305  20.211  0.00  0.00    +0.000 A 
ATOM     19  C   UNL     1       2.784   2.294  21.497  0.00  0.00    +0.000 A 
ATOM     20  C   UNL     1       2.045   3.379  21.939  0.00  0.00    +0.000 A 
ATOM     21  C   UNL     1       1.786   4.440  21.084  0.00  0.00    +0.000 A 
ATOM     22  C   UNL     1       2.324   4.479  19.781  0.00  0.00    +0.000 A 
BRANCH  22  23
ATOM     23  C   UNL     1       1.838   5.548  18.806  0.00  0.00    +0.000 C 
BRANCH  23  24
ATOM     24  C   UNL     1       2.555   6.916  18.778  0.00  0.00    +0.000 C 
BRANCH  24  25
ATOM     25  C   UNL     1       1.794   8.122  19.288  0.00  0.00    +0.000 A 
ATOM     26  C   UNL     1       1.439   8.274  20.635  0.00  0.00    +0.000 A 
ATOM     27  C   UNL     1       0.907   9.474  21.103  0.00  0.00    +0.000 A 
ATOM     28  C   UNL     1       0.718  10.542  20.231  0.00  0.00    +0.000 A 
ATOM     29  C   UNL     1       1.025  10.397  18.881  0.00  0.00    +0.000 A 
ATOM     30  C   UNL     1       1.557   9.194  18.410  0.00  0.00    +0.000 A 
ENDBRANCH  24  25
ENDBRANCH  23  24
ENDBRANCH  22  23
ENDBRANCH   2  17
TORSDOF 5
ENDMDL
MODEL 4
REMARK VINA RESULT:      -8.0      3.563      8.516
REMARK  Name = 
REMARK  5 active torsions:
REMARK  status: ('A' for Active; 'I' for Inactive)
REMARK    1  A    between atoms: C_2  and  C_3
REMARK    2  A    between atoms: C_8  and  C_9
REMARK    3  A    between atoms: C_9  and  C_10
REMARK    4  A    between atoms: C_10  and  C_11
REMARK    5  A    between atoms: C_21  and  C_22
REMARK                            x       y       z     vdW  Elec       q    Type
REMARK                         _______ _______ _______ _____ _____    ______ ____
ROOT
ATOM      1  O   UNL     1      -0.412   8.603  21.490  0.00  0.00    +0.000 OA
ATOM      2  C   UNL     1       0.026   9.419  20.676  0.00  0.00    +0.000 C 
ATOM      3  N   UNL     1       1.112   9.088  19.833  0.00  0.00    +0.000 N 
ATOM      4  C   UNL     1       1.794   9.956  18.867  0.00  0.00    +0.000 C 
ATOM      5  C   UNL     1       2.154   9.238  17.568  0.00  0.00    +0.000 C 
ATOM      6  C   UNL     1       2.873   7.913  17.805  0.00  0.00    +0.000 C 
ATOM      7  C   UNL     1       2.088   7.044  18.792  0.00  0.00    +0.000 C 
ATOM      8  C   UNL     1       1.814   7.823  20.089  0.00  0.00    +0.000 C 
ENDROOT
BRANCH   7   9
ATOM      9  C   UNL     1       2.809   5.781  19.113  0.00  0.00    +0.000 A 
ATOM     10  N   UNL     1       4.082   5.490  18.887  0.00  0.00    +0.000 NA
ATOM     11  N   UNL     1       4.381   4.280  19.512  0.00  0.00    +0.000 NA
ATOM     12  C   UNL     1       3.281   3.889  20.094  0.00  0.00    +0.000 A 
ATOM     13  N   UNL     1       2.280   4.750  19.798  0.00  0.00    +0.000 N 
ATOM     14  C   UNL     1       0.984   4.307  20.241  0.00  0.00    +0.000 C 
ATOM     15  C   UNL     1       1.337   3.147  21.192  0.00  0.00    +0.000 C 
ATOM     16  C   UNL     1       2.816   2.763  20.914  0.00  0.00    +0.000 C 
ENDBRANCH   7   9
BRANCH   2  17
ATOM     17  C   UNL     1      -0.656  10.759  20.602  0.00  0.00    +0.000 A 
ATOM     18  C   UNL     1      -0.546  11.629  21.700  0.00  0.00    +0.000 A 
ATOM     19  C   UNL     1      -1.056  12.923  21.656  0.00  0.00    +0.000 A 
ATOM     20  C   UNL     1      -1.750  13.346  20.533  0.00  0.00    +0.000 A 
ATOM     21  C   UNL     1      -1.988  12.464  19.490  0.00  0.00    +0.000 A 
ATOM     22  C   UNL     1      -1.475  11.151  19.507  0.00  0.00    +0.000 A 
BRANCH  22  23
ATOM     23  C   UNL     1      -1.942  10.154  18.451  0.00  0.00    +0.000 C 
BRANCH  23  24
ATOM     24  C   UNL     1      -2.777  10.665  17.256  0.00  0.00    +0.000 C 
BRANCH  24  25
ATOM     25  C   UNL     1      -4.254  10.911  17.480  0.00  0.00    +0.000 A 
ATOM     26  C   UNL     1      -5.013  10.159  18.387  0.00  0.00    +0.000 A 
ATOM     27  C   UNL     1      -6.318  10.528  18.705  0.00  0.00    +0.000 A 
ATOM     28  C   UNL     1      -6.888  11.656  18.122  0.00  0.00    +0.000 A 
ATOM     29  C   UNL     1      -6.164  12.393  17.188  0.00  0.00    +0.000 A 
ATOM     30  C   UNL     1      -4.856  12.022  16.866  0.00  0.00    +0.000 A 
ENDBRANCH  24  25
ENDBRANCH  23  24
ENDBRANCH  22  23
ENDBRANCH   2  17
TORSDOF 5
ENDMDL
MODEL 5
REMARK VINA RESULT:      -7.6      2.909      8.414
REMARK  Name = 
REMARK  5 active torsions:
REMARK  status: ('A' for Active; 'I' for Inactive)
REMARK    1  A    between atoms: C_2  and  C_3
REMARK    2  A    between atoms: C_8  and  C_9
REMARK    3  A    between atoms: C_9  and  C_10
REMARK    4  A    between atoms: C_10  and  C_11
REMARK    5  A    between atoms: C_21  and  C_22
REMARK                            x       y       z     vdW  Elec       q    Type
REMARK                         _______ _______ _______ _____ _____    ______ ____
ROOT
ATOM      1  O   UNL     1       2.448   9.027  18.814  0.00  0.00    +0.000 OA
ATOM      2  C   UNL     1       1.819   8.373  19.649  0.00  0.00    +0.000 C 
ATOM      3  N   UNL     1       1.964   6.969  19.726  0.00  0.00    +0.000 N 
ATOM      4  C   UNL     1       1.245   6.041  20.606  0.00  0.00    +0.000 C 
ATOM      5  C   UNL     1       2.138   4.936  21.166  0.00  0.00    +0.000 C 
ATOM      6  C   UNL     1       2.960   4.235  20.088  0.00  0.00    +0.000 C 
ATOM      7  C   UNL     1       3.710   5.260  19.233  0.00  0.00    +0.000 C 
ATOM      8  C   UNL     1       2.732   6.302  18.666  0.00  0.00    +0.000 C 
ENDROOT
BRANCH   7   9
ATOM      9  C   UNL     1       4.450   4.612  18.115  0.00  0.00    +0.000 A 
ATOM     10  N   UNL     1       4.108   3.530  17.430  0.00  0.00    +0.000 NA
ATOM     11  N   UNL     1       4.986   3.385  16.358  0.00  0.00    +0.000 NA
ATOM     12  C   UNL     1       5.821   4.385  16.431  0.00  0.00    +0.000 A 
ATOM     13  N   UNL     1       5.565   5.108  17.546  0.00  0.00    +0.000 N 
ATOM     14  C   UNL     1       6.547   6.125  17.815  0.00  0.00    +0.000 C 
ATOM     15  C   UNL     1       7.336   6.184  16.492  0.00  0.00    +0.000 C 
ATOM     16  C   UNL     1       6.980   4.901  15.692  0.00  0.00    +0.000 C 
ENDBRANCH   7   9
BRANCH   2  17
ATOM     17  C   UNL     1       0.921   9.131  20.590  0.00  0.00    +0.000 A 
ATOM     18  C   UNL     1       0.737   8.632  21.890  0.00  0.00    +0.000 A 
ATOM     19  C   UNL     1       0.012   9.340  22.845  0.00  0.00    +0.000 A 
ATOM     20  C   UNL     1      -0.602  10.531  22.491  0.00  0.00    +0.000 A 
ATOM     21  C   UNL     1      -0.548  10.979  21.180  0.00  0.00    +0.000 A 
ATOM     22  C   UNL     1       0.187  10.285  20.197  0.00  0.00    +0.000 A 
BRANCH  22  23
ATOM     23  C   UNL     1       0.040  10.688  18.733  0.00  0.00    +0.000 C 
BRANCH  23  24
ATOM     24  C   UNL     1      -0.806   9.802  17.793  0.00  0.00    +0.000 C 
BRANCH  24  25
ATOM     25  C   UNL     1      -2.191  10.287  17.422  0.00  0.00    +0.000 A 
ATOM     26  C   UNL     1      -2.972  11.067  18.286  0.00  0.00    +0.000 A 
ATOM     27  C   UNL     1      -4.159  11.651  17.846  0.00  0.00    +0.000 A 
ATOM     28  C   UNL     1      -4.585  11.465  16.535  0.00  0.00    +0.000 A 
ATOM     29  C   UNL     1      -3.845  10.660  15.673  0.00  0.00    +0.000 A 
ATOM     30  C   UNL     1      -2.657  10.072  16.114  0.00  0.00    +0.000 A 
ENDBRANCH  24  25
ENDBRANCH  23  24
ENDBRANCH  22  23
ENDBRANCH   2  17
TORSDOF 5
ENDMDL
MODEL 6
REMARK VINA RESULT:      -7.6      2.989      8.608
REMARK  Name = 
REMARK  5 active torsions:
REMARK  status: ('A' for Active; 'I' for Inactive)
REMARK    1  A    between atoms: C_2  and  C_3
REMARK    2  A    between atoms: C_8  and  C_9
REMARK    3  A    between atoms: C_9  and  C_10
REMARK    4  A    between atoms: C_10  and  C_11
REMARK    5  A    between atoms: C_21  and  C_22
REMARK                            x       y       z     vdW  Elec       q    Type
REMARK                         _______ _______ _______ _____ _____    ______ ____
ROOT
ATOM      1  O   UNL     1       2.411   8.965  18.908  0.00  0.00    +0.000 OA
ATOM      2  C   UNL     1       1.802   8.294  19.746  0.00  0.00    +0.000 C 
ATOM      3  N   UNL     1       1.949   6.889  19.791  0.00  0.00    +0.000 N 
ATOM      4  C   UNL     1       1.251   5.943  20.669  0.00  0.00    +0.000 C 
ATOM      5  C   UNL     1       2.157   4.828  21.186  0.00  0.00    +0.000 C 
ATOM      6  C   UNL     1       2.953   4.149  20.076  0.00  0.00    +0.000 C 
ATOM      7  C   UNL     1       3.683   5.192  19.223  0.00  0.00    +0.000 C 
ATOM      8  C   UNL     1       2.692   6.244  18.701  0.00  0.00    +0.000 C 
ENDROOT
BRANCH   7   9
ATOM      9  C   UNL     1       4.397   4.566  18.075  0.00  0.00    +0.000 A 
ATOM     10  N   UNL     1       4.008   3.535  17.338  0.00  0.00    +0.000 NA
ATOM     11  N   UNL     1       4.882   3.403  16.260  0.00  0.00    +0.000 NA
ATOM     12  C   UNL     1       5.760   4.360  16.383  0.00  0.00    +0.000 A 
ATOM     13  N   UNL     1       5.534   5.039  17.532  0.00  0.00    +0.000 N 
ATOM     14  C   UNL     1       6.560   5.997  17.851  0.00  0.00    +0.000 C 
ATOM     15  C   UNL     1       7.354   6.084  16.533  0.00  0.00    +0.000 C 
ATOM     16  C   UNL     1       6.943   4.859  15.670  0.00  0.00    +0.000 C 
ENDBRANCH   7   9
BRANCH   2  17
ATOM     17  C   UNL     1       0.927   9.033  20.722  0.00  0.00    +0.000 A 
ATOM     18  C   UNL     1       1.056   8.743  22.091  0.00  0.00    +0.000 A 
ATOM     19  C   UNL     1       0.360   9.468  23.055  0.00  0.00    +0.000 A 
ATOM     20  C   UNL     1      -0.534  10.450  22.660  0.00  0.00    +0.000 A 
ATOM     21  C   UNL     1      -0.779  10.665  21.312  0.00  0.00    +0.000 A 
ATOM     22  C   UNL     1      -0.081   9.952  20.316  0.00  0.00    +0.000 A 
BRANCH  22  23
ATOM     23  C   UNL     1      -0.535  10.062  18.863  0.00  0.00    +0.000 C 
BRANCH  23  24
ATOM     24  C   UNL     1      -1.033  11.425  18.336  0.00  0.00    +0.000 C 
BRANCH  24  25
ATOM     25  C   UNL     1      -2.484  11.535  17.919  0.00  0.00    +0.000 A 
ATOM     26  C   UNL     1      -2.936  11.135  16.654  0.00  0.00    +0.000 A 
ATOM     27  C   UNL     1      -4.299  11.075  16.368  0.00  0.00    +0.000 A 
ATOM     28  C   UNL     1      -5.233  11.413  17.341  0.00  0.00    +0.000 A 
ATOM     29  C   UNL     1      -4.804  11.852  18.591  0.00  0.00    +0.000 A 
ATOM     30  C   UNL     1      -3.438  11.915  18.878  0.00  0.00    +0.000 A 
ENDBRANCH  24  25
ENDBRANCH  23  24
ENDBRANCH  22  23
ENDBRANCH   2  17
TORSDOF 5
ENDMDL
MODEL 7
REMARK VINA RESULT:      -7.5      2.047      4.634
REMARK  Name = 
REMARK  5 active torsions:
REMARK  status: ('A' for Active; 'I' for Inactive)
REMARK    1  A    between atoms: C_2  and  C_3
REMARK    2  A    between atoms: C_8  and  C_9
REMARK    3  A    between atoms: C_9  and  C_10
REMARK    4  A    between atoms: C_10  and  C_11
REMARK    5  A    between atoms: C_21  and  C_22
REMARK                            x       y       z     vdW  Elec       q    Type
REMARK                         _______ _______ _______ _____ _____    ______ ____
ROOT
ATOM      1  O   UNL     1       2.989   7.856  17.704  0.00  0.00    +0.000 OA
ATOM      2  C   UNL     1       2.527   7.128  18.587  0.00  0.00    +0.000 C 
ATOM      3  N   UNL     1       1.927   7.683  19.741  0.00  0.00    +0.000 N 
ATOM      4  C   UNL     1       1.395   6.968  20.906  0.00  0.00    +0.000 C 
ATOM      5  C   UNL     1       0.095   7.570  21.435  0.00  0.00    +0.000 C 
ATOM      6  C   UNL     1       0.182   9.080  21.638  0.00  0.00    +0.000 C 
ATOM      7  C   UNL     1       0.708   9.763  20.373  0.00  0.00    +0.000 C 
ATOM      8  C   UNL     1       2.042   9.133  19.940  0.00  0.00    +0.000 C 
ENDROOT
BRANCH   7   9
ATOM      9  C   UNL     1       0.889  11.228  20.570  0.00  0.00    +0.000 A 
ATOM     10  N   UNL     1       0.598  11.948  21.644  0.00  0.00    +0.000 NA
ATOM     11  N   UNL     1       1.100  13.236  21.466  0.00  0.00    +0.000 NA
ATOM     12  C   UNL     1       1.679  13.245  20.297  0.00  0.00    +0.000 A 
ATOM     13  N   UNL     1       1.494  12.050  19.691  0.00  0.00    +0.000 N 
ATOM     14  C   UNL     1       1.936  12.020  18.321  0.00  0.00    +0.000 C 
ATOM     15  C   UNL     1       2.765  13.314  18.212  0.00  0.00    +0.000 C 
ATOM     16  C   UNL     1       2.407  14.192  19.442  0.00  0.00    +0.000 C 
ENDBRANCH   7   9
BRANCH   2  17
ATOM     17  C   UNL     1       2.606   5.641  18.370  0.00  0.00    +0.000 A 
ATOM     18  C   UNL     1       1.445   4.960  17.966  0.00  0.00    +0.000 A 
ATOM     19  C   UNL     1       1.473   3.606  17.640  0.00  0.00    +0.000 A 
ATOM     20  C   UNL     1       2.653   2.893  17.781  0.00  0.00    +0.000 A 
ATOM     21  C   UNL     1       3.780   3.510  18.305  0.00  0.00    +0.000 A 
ATOM     22  C   UNL     1       3.779   4.881  18.634  0.00  0.00    +0.000 A 
BRANCH  22  23
ATOM     23  C   UNL     1       4.960   5.463  19.406  0.00  0.00    +0.000 C 
BRANCH  23  24
ATOM     24  C   UNL     1       6.176   6.002  18.620  0.00  0.00    +0.000 C 
BRANCH  24  25
ATOM     25  C   UNL     1       6.301   5.615  17.162  0.00  0.00    +0.000 A 
ATOM     26  C   UNL     1       7.064   4.518  16.738  0.00  0.00    +0.000 A 
ATOM     27  C   UNL     1       7.010   4.078  15.416  0.00  0.00    +0.000 A 
ATOM     28  C   UNL     1       6.194   4.728  14.495  0.00  0.00    +0.000 A 
ATOM     29  C   UNL     1       5.461   5.845  14.888  0.00  0.00    +0.000 A 
ATOM     30  C   UNL     1       5.515   6.288  16.211  0.00  0.00    +0.000 A 
ENDBRANCH  24  25
ENDBRANCH  23  24
ENDBRANCH  22  23
ENDBRANCH   2  17
TORSDOF 5
ENDMDL
MODEL 8
REMARK VINA RESULT:      -7.5      2.062      4.919
REMARK  Name = 
REMARK  5 active torsions:
REMARK  status: ('A' for Active; 'I' for Inactive)
REMARK    1  A    between atoms: C_2  and  C_3
REMARK    2  A    between atoms: C_8  and  C_9
REMARK    3  A    between atoms: C_9  and  C_10
REMARK    4  A    between atoms: C_10  and  C_11
REMARK    5  A    between atoms: C_21  and  C_22
REMARK                            x       y       z     vdW  Elec       q    Type
REMARK                         _______ _______ _______ _____ _____    ______ ____
ROOT
ATOM      1  O   UNL     1       2.184   7.133  18.041  0.00  0.00    +0.000 OA
ATOM      2  C   UNL     1       1.956   6.945  19.239  0.00  0.00    +0.000 C 
ATOM      3  N   UNL     1       1.442   7.985  20.048  0.00  0.00    +0.000 N 
ATOM      4  C   UNL     1       1.181   7.951  21.491  0.00  0.00    +0.000 C 
ATOM      5  C   UNL     1      -0.110   8.666  21.883  0.00  0.00    +0.000 C 
ATOM      6  C   UNL     1      -0.218  10.064  21.280  0.00  0.00    +0.000 C 
ATOM      7  C   UNL     1       0.028  10.019  19.769  0.00  0.00    +0.000 C 
ATOM      8  C   UNL     1       1.370   9.331  19.466  0.00  0.00    +0.000 C 
ENDROOT
BRANCH   7   9
ATOM      9  C   UNL     1       0.018  11.380  19.166  0.00  0.00    +0.000 A 
ATOM     10  N   UNL     1      -0.766  11.838  18.200  0.00  0.00    +0.000 NA
ATOM     11  N   UNL     1      -0.564  13.211  18.076  0.00  0.00    +0.000 NA
ATOM     12  C   UNL     1       0.328  13.532  18.972  0.00  0.00    +0.000 A 
ATOM     13  N   UNL     1       0.761  12.415  19.600  0.00  0.00    +0.000 N 
ATOM     14  C   UNL     1       1.879  12.641  20.478  0.00  0.00    +0.000 C 
ATOM     15  C   UNL     1       1.908  14.178  20.590  0.00  0.00    +0.000 C 
ATOM     16  C   UNL     1       1.027  14.736  19.440  0.00  0.00    +0.000 C 
ENDBRANCH   7   9
BRANCH   2  17
ATOM     17  C   UNL     1       2.221   5.569  19.787  0.00  0.00    +0.000 A 
ATOM     18  C   UNL     1       1.183   4.905  20.463  0.00  0.00    +0.000 A 
ATOM     19  C   UNL     1       1.323   3.589  20.897  0.00  0.00    +0.000 A 
ATOM     20  C   UNL     1       2.534   2.938  20.722  0.00  0.00    +0.000 A 
ATOM     21  C   UNL     1       3.615   3.614  20.178  0.00  0.00    +0.000 A 
ATOM     22  C   UNL     1       3.497   4.943  19.724  0.00  0.00    +0.000 A 
BRANCH  22  23
ATOM     23  C   UNL     1       4.756   5.715  19.339  0.00  0.00    +0.000 C 
BRANCH  23  24
ATOM     24  C   UNL     1       5.972   4.937  18.790  0.00  0.00    +0.000 C 
BRANCH  24  25
ATOM     25  C   UNL     1       6.014   4.648  17.305  0.00  0.00    +0.000 A 
ATOM     26  C   UNL     1       4.870   4.294  16.575  0.00  0.00    +0.000 A 
ATOM     27  C   UNL     1       4.906   4.216  15.184  0.00  0.00    +0.000 A 
ATOM     28  C   UNL     1       6.086   4.489  14.498  0.00  0.00    +0.000 A 
ATOM     29  C   UNL     1       7.243   4.802  15.208  0.00  0.00    +0.000 A 
ATOM     30  C   UNL     1       7.209   4.878  16.602  0.00  0.00    +0.000 A 
ENDBRANCH  24  25
ENDBRANCH  23  24
ENDBRANCH  22  23
ENDBRANCH   2  17
TORSDOF 5
ENDMDL
MODEL 9
REMARK VINA RESULT:      -7.5      1.997      4.541
REMARK  Name = 
REMARK  5 active torsions:
REMARK  status: ('A' for Active; 'I' for Inactive)
REMARK    1  A    between atoms: C_2  and  C_3
REMARK    2  A    between atoms: C_8  and  C_9
REMARK    3  A    between atoms: C_9  and  C_10
REMARK    4  A    between atoms: C_10  and  C_11
REMARK    5  A    between atoms: C_21  and  C_22
REMARK                            x       y       z     vdW  Elec       q    Type
REMARK                         _______ _______ _______ _____ _____    ______ ____
ROOT
ATOM      1  O   UNL     1       2.682   7.096  17.178  0.00  0.00    +0.000 OA
ATOM      2  C   UNL     1       2.451   6.642  18.301  0.00  0.00    +0.000 C 
ATOM      3  N   UNL     1       2.039   7.492  19.353  0.00  0.00    +0.000 N 
ATOM      4  C   UNL     1       1.791   7.129  20.753  0.00  0.00    +0.000 C 
ATOM      5  C   UNL     1       0.573   7.834  21.346  0.00  0.00    +0.000 C 
ATOM      6  C   UNL     1       0.584   9.340  21.103  0.00  0.00    +0.000 C 
ATOM      7  C   UNL     1       0.810   9.644  19.619  0.00  0.00    +0.000 C 
ATOM      8  C   UNL     1       2.081   8.941  19.117  0.00  0.00    +0.000 C 
ENDROOT
BRANCH   7   9
ATOM      9  C   UNL     1       0.915  11.107  19.364  0.00  0.00    +0.000 A 
ATOM     10  N   UNL     1       1.854  11.751  18.685  0.00  0.00    +0.000 NA
ATOM     11  N   UNL     1       1.463  13.080  18.535  0.00  0.00    +0.000 NA
ATOM     12  C   UNL     1       0.304  13.189  19.123  0.00  0.00    +0.000 A 
ATOM     13  N   UNL     1      -0.019  12.013  19.709  0.00  0.00    +0.000 N 
ATOM     14  C   UNL     1      -1.193  12.083  20.539  0.00  0.00    +0.000 C 
ATOM     15  C   UNL     1      -1.804  13.440  20.138  0.00  0.00    +0.000 C 
ATOM     16  C   UNL     1      -0.703  14.228  19.376  0.00  0.00    +0.000 C 
ENDBRANCH   7   9
BRANCH   2  17
ATOM     17  C   UNL     1       2.598   5.157  18.492  0.00  0.00    +0.000 A 
ATOM     18  C   UNL     1       1.470   4.341  18.299  0.00  0.00    +0.000 A 
ATOM     19  C   UNL     1       1.561   2.952  18.349  0.00  0.00    +0.000 A 
ATOM     20  C   UNL     1       2.772   2.357  18.663  0.00  0.00    +0.000 A 
ATOM     21  C   UNL     1       3.868   3.142  18.988  0.00  0.00    +0.000 A 
ATOM     22  C   UNL     1       3.805   4.549  18.937  0.00  0.00    +0.000 A 
BRANCH  22  23
ATOM     23  C   UNL     1       4.957   5.369  19.510  0.00  0.00    +0.000 C 
BRANCH  23  24
ATOM     24  C   UNL     1       6.267   5.487  18.701  0.00  0.00    +0.000 C 
BRANCH  24  25
ATOM     25  C   UNL     1       6.195   5.270  17.204  0.00  0.00    +0.000 A 
ATOM     26  C   UNL     1       6.525   4.047  16.604  0.00  0.00    +0.000 A 
ATOM     27  C   UNL     1       6.271   3.822  15.252  0.00  0.00    +0.000 A 
ATOM     28  C   UNL     1       5.684   4.817  14.476  0.00  0.00    +0.000 A 
ATOM     29  C   UNL     1       5.387   6.053  15.044  0.00  0.00    +0.000 A 
ATOM     30  C   UNL     1       5.642   6.280  16.399  0.00  0.00    +0.000 A 
ENDBRANCH  24  25
ENDBRANCH  23  24
ENDBRANCH  22  23
ENDBRANCH   2  17
TORSDOF 5
ENDMDL
