MODEL 1
REMARK VINA RESULT:      -8.1      0.000      0.000
REMARK  Name = 
REMARK  6 active torsions:
REMARK  status: ('A' for Active; 'I' for Inactive)
REMARK    1  A    between atoms: C_2  and  O_3
REMARK    2  A    between atoms: C_2  and  C_4
REMARK    3  A    between atoms: N_7  and  C_8
REMARK    4  A    between atoms: C_12  and  C_13
REMARK    5  A    between atoms: C_13  and  N_14
REMARK    6  A    between atoms: C_15  and  C_17
REMARK                            x       y       z     vdW  Elec       q    Type
REMARK                         _______ _______ _______ _____ _____    ______ ____
ROOT
ATOM      1  C   UNL     1      -1.136  10.281  18.060  0.00  0.00    +0.000 A 
ATOM      2  C   UNL     1      -1.318  10.649  19.400  0.00  0.00    +0.000 A 
ATOM      3  C   UNL     1      -0.293  10.445  20.328  0.00  0.00    +0.000 A 
ATOM      4  C   UNL     1       0.906   9.847  19.936  0.00  0.00    +0.000 A 
ATOM      5  C   UNL     1       1.096   9.447  18.608  0.00  0.00    +0.000 A 
ATOM      6  C   UNL     1       0.085   9.706  17.666  0.00  0.00    +0.000 A 
ENDROOT
BRANCH   1  10
ATOM      7  C   UNL     1      -3.266  10.300  15.259  0.00  0.00    +0.000 A 
ATOM      8  C   UNL     1      -4.033  11.138  16.091  0.00  0.00    +0.000 A 
ATOM      9  C   UNL     1      -3.347  11.185  17.278  0.00  0.00    +0.000 A 
ATOM     10  N   UNL     1      -2.205  10.429  17.125  0.00  0.00    +0.000 N 
ATOM     11  N   UNL     1      -2.169   9.834  15.894  0.00  0.00    +0.000 NA
BRANCH   7  13
ATOM     12  O   UNL     1      -4.677   9.761  13.418  0.00  0.00    +0.000 OA
ATOM     13  C   UNL     1      -3.555   9.931  13.868  0.00  0.00    +0.000 C 
BRANCH  13  14
ATOM     14  O   UNL     1      -2.425   9.799  13.120  0.00  0.00    +0.000 OA
ATOM     15  H   UNL     1      -1.687  10.159  13.661  0.00  0.00    +0.000 HD
ENDBRANCH  13  14
ENDBRANCH   7  13
ENDBRANCH   1  10
BRANCH   5  16
ATOM     16  C   UNL     1       2.324   8.673  18.206  0.00  0.00    +0.000 C 
BRANCH  16  17
ATOM     17  N   UNL     1       2.080   7.267  17.995  0.00  0.00    +0.000 N 
ATOM     18  C   UNL     1       2.415   6.379  19.003  0.00  0.00    +0.000 C 
ATOM     19  O   UNL     1       2.838   6.764  20.088  0.00  0.00    +0.000 OA
ATOM     20  H   UNL     1       1.876   6.933  17.061  0.00  0.00    +0.000 HD
BRANCH  18  21
ATOM     21  C   UNL     1       2.271   4.930  18.735  0.00  0.00    +0.000 A 
ATOM     22  C   UNL     1       1.398   4.120  19.459  0.00  0.00    +0.000 A 
ATOM     23  F   UNL     1       0.680   4.618  20.479  0.00  0.00    +0.000 F 
ATOM     24  C   UNL     1       1.232   2.770  19.141  0.00  0.00    +0.000 A 
ATOM     25  C   UNL     1       1.948   2.208  18.084  0.00  0.00    +0.000 A 
ATOM     26  C   UNL     1       2.836   3.001  17.361  0.00  0.00    +0.000 A 
ATOM     27  C   UNL     1       2.993   4.349  17.688  0.00  0.00    +0.000 A 
ATOM     28  F   UNL     1       3.882   5.057  16.976  0.00  0.00    +0.000 F 
ENDBRANCH  18  21
ENDBRANCH  16  17
ENDBRANCH   5  16
TORSDOF 6
ENDMDL
MODEL 2
REMARK VINA RESULT:      -8.1      3.520      8.518
REMARK  Name = 
REMARK  6 active torsions:
REMARK  status: ('A' for Active; 'I' for Inactive)
REMARK    1  A    between atoms: C_2  and  O_3
REMARK    2  A    between atoms: C_2  and  C_4
REMARK    3  A    between atoms: N_7  and  C_8
REMARK    4  A    between atoms: C_12  and  C_13
REMARK    5  A    between atoms: C_13  and  N_14
REMARK    6  A    between atoms: C_15  and  C_17
REMARK                            x       y       z     vdW  Elec       q    Type
REMARK                         _______ _______ _______ _____ _____    ______ ____
ROOT
ATOM      1  C   UNL     1       2.463   6.808  19.393  0.00  0.00    +0.000 A 
ATOM      2  C   UNL     1       2.947   7.127  18.117  0.00  0.00    +0.000 A 
ATOM      3  C   UNL     1       2.682   8.380  17.560  0.00  0.00    +0.000 A 
ATOM      4  C   UNL     1       1.909   9.313  18.255  0.00  0.00    +0.000 A 
ATOM      5  C   UNL     1       1.393   9.003  19.518  0.00  0.00    +0.000 A 
ATOM      6  C   UNL     1       1.710   7.762  20.099  0.00  0.00    +0.000 A 
ENDROOT
BRANCH   1  10
ATOM      7  C   UNL     1       3.471   3.513  20.107  0.00  0.00    +0.000 A 
ATOM      8  C   UNL     1       2.432   3.607  21.054  0.00  0.00    +0.000 A 
ATOM      9  C   UNL     1       1.962   4.891  20.939  0.00  0.00    +0.000 A 
ATOM     10  N   UNL     1       2.679   5.506  19.936  0.00  0.00    +0.000 N 
ATOM     11  N   UNL     1       3.653   4.677  19.448  0.00  0.00    +0.000 NA
BRANCH   7  13
ATOM     12  O   UNL     1       5.038   1.796  20.622  0.00  0.00    +0.000 OA
ATOM     13  C   UNL     1       4.297   2.336  19.816  0.00  0.00    +0.000 C 
BRANCH  13  14
ATOM     14  O   UNL     1       4.148   1.900  18.535  0.00  0.00    +0.000 OA
ATOM     15  H   UNL     1       4.373   0.942  18.538  0.00  0.00    +0.000 HD
ENDBRANCH  13  14
ENDBRANCH   7  13
ENDBRANCH   1  10
BRANCH   5  16
ATOM     16  C   UNL     1       0.442   9.942  20.212  0.00  0.00    +0.000 C 
BRANCH  16  17
ATOM     17  N   UNL     1      -0.854  10.025  19.583  0.00  0.00    +0.000 N 
ATOM     18  C   UNL     1      -1.170  11.167  18.867  0.00  0.00    +0.000 C 
ATOM     19  O   UNL     1      -0.355  12.066  18.693  0.00  0.00    +0.000 OA
ATOM     20  H   UNL     1      -1.576   9.363  19.843  0.00  0.00    +0.000 HD
BRANCH  18  21
ATOM     21  C   UNL     1      -2.542  11.294  18.324  0.00  0.00    +0.000 A 
ATOM     22  C   UNL     1      -3.573  11.903  19.036  0.00  0.00    +0.000 A 
ATOM     23  F   UNL     1      -3.375  12.360  20.283  0.00  0.00    +0.000 F 
ATOM     24  C   UNL     1      -4.841  12.070  18.473  0.00  0.00    +0.000 A 
ATOM     25  C   UNL     1      -5.094  11.621  17.177  0.00  0.00    +0.000 A 
ATOM     26  C   UNL     1      -4.078  10.995  16.459  0.00  0.00    +0.000 A 
ATOM     27  C   UNL     1      -2.815  10.835  17.032  0.00  0.00    +0.000 A 
ATOM     28  F   UNL     1      -1.884  10.201  16.304  0.00  0.00    +0.000 F 
ENDBRANCH  18  21
ENDBRANCH  16  17
ENDBRANCH   5  16
TORSDOF 6
ENDMDL
MODEL 3
REMARK VINA RESULT:      -8.0      4.527      8.469
REMARK  Name = 
REMARK  6 active torsions:
REMARK  status: ('A' for Active; 'I' for Inactive)
REMARK    1  A    between atoms: C_2  and  O_3
REMARK    2  A    between atoms: C_2  and  C_4
REMARK    3  A    between atoms: N_7  and  C_8
REMARK    4  A    between atoms: C_12  and  C_13
REMARK    5  A    between atoms: C_13  and  N_14
REMARK    6  A    between atoms: C_15  and  C_17
REMARK                            x       y       z     vdW  Elec       q    Type
REMARK                         _______ _______ _______ _____ _____    ______ ____
ROOT
ATOM      1  C   UNL     1       6.540   4.663  16.475  0.00  0.00    +0.000 A 
ATOM      2  C   UNL     1       7.707   5.071  17.136  0.00  0.00    +0.000 A 
ATOM      3  C   UNL     1       7.701   5.253  18.521  0.00  0.00    +0.000 A 
ATOM      4  C   UNL     1       6.528   5.061  19.254  0.00  0.00    +0.000 A 
ATOM      5  C   UNL     1       5.346   4.681  18.608  0.00  0.00    +0.000 A 
ATOM      6  C   UNL     1       5.371   4.443  17.223  0.00  0.00    +0.000 A 
ENDROOT
BRANCH   1  10
ATOM      7  C   UNL     1       6.012   3.764  13.115  0.00  0.00    +0.000 A 
ATOM      8  C   UNL     1       7.090   4.648  12.911  0.00  0.00    +0.000 A 
ATOM      9  C   UNL     1       7.383   5.143  14.157  0.00  0.00    +0.000 A 
ATOM     10  N   UNL     1       6.529   4.539  15.054  0.00  0.00    +0.000 N 
ATOM     11  N   UNL     1       5.640   3.720  14.412  0.00  0.00    +0.000 NA
BRANCH   7  13
ATOM     12  O   UNL     1       4.283   3.278  11.551  0.00  0.00    +0.000 OA
ATOM     13  C   UNL     1       5.327   2.958  12.098  0.00  0.00    +0.000 C 
BRANCH  13  14
ATOM     14  O   UNL     1       5.987   1.800  11.821  0.00  0.00    +0.000 OA
ATOM     15  H   UNL     1       6.295   1.869  10.889  0.00  0.00    +0.000 HD
ENDBRANCH  13  14
ENDBRANCH   7  13
ENDBRANCH   1  10
BRANCH   5  16
ATOM     16  C   UNL     1       4.045   4.610  19.365  0.00  0.00    +0.000 C 
BRANCH  16  17
ATOM     17  N   UNL     1       3.488   5.903  19.681  0.00  0.00    +0.000 N 
ATOM     18  C   UNL     1       2.480   6.404  18.876  0.00  0.00    +0.000 C 
ATOM     19  O   UNL     1       2.002   5.748  17.957  0.00  0.00    +0.000 OA
ATOM     20  H   UNL     1       3.973   6.506  20.336  0.00  0.00    +0.000 HD
BRANCH  18  21
ATOM     21  C   UNL     1       1.996   7.779  19.135  0.00  0.00    +0.000 A 
ATOM     22  C   UNL     1       2.050   8.784  18.171  0.00  0.00    +0.000 A 
ATOM     23  F   UNL     1       2.600   8.556  16.967  0.00  0.00    +0.000 F 
ATOM     24  C   UNL     1       1.525  10.054  18.419  0.00  0.00    +0.000 A 
ATOM     25  C   UNL     1       0.935  10.337  19.652  0.00  0.00    +0.000 A 
ATOM     26  C   UNL     1       0.888   9.348  20.631  0.00  0.00    +0.000 A 
ATOM     27  C   UNL     1       1.416   8.082  20.370  0.00  0.00    +0.000 A 
ATOM     28  F   UNL     1       1.367   7.178  21.360  0.00  0.00    +0.000 F 
ENDBRANCH  18  21
ENDBRANCH  16  17
ENDBRANCH   5  16
TORSDOF 6
ENDMDL
MODEL 4
REMARK VINA RESULT:      -7.9      4.299      8.252
REMARK  Name = 
REMARK  6 active torsions:
REMARK  status: ('A' for Active; 'I' for Inactive)
REMARK    1  A    between atoms: C_2  and  O_3
REMARK    2  A    between atoms: C_2  and  C_4
REMARK    3  A    between atoms: N_7  and  C_8
REMARK    4  A    between atoms: C_12  and  C_13
REMARK    5  A    between atoms: C_13  and  N_14
REMARK    6  A    between atoms: C_15  and  C_17
REMARK                            x       y       z     vdW  Elec       q    Type
REMARK                         _______ _______ _______ _____ _____    ______ ____
ROOT
ATOM      1  C   UNL     1       3.657   4.383  17.914  0.00  0.00    +0.000 A 
ATOM      2  C   UNL     1       2.843   3.278  17.633  0.00  0.00    +0.000 A 
ATOM      3  C   UNL     1       1.653   3.085  18.340  0.00  0.00    +0.000 A 
ATOM      4  C   UNL     1       1.281   3.974  19.351  0.00  0.00    +0.000 A 
ATOM      5  C   UNL     1       2.095   5.068  19.666  0.00  0.00    +0.000 A 
ATOM      6  C   UNL     1       3.261   5.289  18.913  0.00  0.00    +0.000 A 
ENDROOT
BRANCH   1  10
ATOM      7  C   UNL     1       6.309   4.575  15.609  0.00  0.00    +0.000 A 
ATOM      8  C   UNL     1       7.070   4.689  16.790  0.00  0.00    +0.000 A 
ATOM      9  C   UNL     1       6.149   4.689  17.807  0.00  0.00    +0.000 A 
ATOM     10  N   UNL     1       4.903   4.545  17.237  0.00  0.00    +0.000 N 
ATOM     11  N   UNL     1       4.985   4.525  15.871  0.00  0.00    +0.000 NA
BRANCH   7  13
ATOM     12  O   UNL     1       7.580   5.331  13.743  0.00  0.00    +0.000 OA
ATOM     13  C   UNL     1       6.816   4.515  14.234  0.00  0.00    +0.000 C 
BRANCH  13  14
ATOM     14  O   UNL     1       6.343   3.435  13.552  0.00  0.00    +0.000 OA
ATOM     15  H   UNL     1       6.952   3.295  12.792  0.00  0.00    +0.000 HD
ENDBRANCH  13  14
ENDBRANCH   7  13
ENDBRANCH   1  10
BRANCH   5  16
ATOM     16  C   UNL     1       1.777   5.949  20.846  0.00  0.00    +0.000 C 
BRANCH  16  17
ATOM     17  N   UNL     1       1.877   7.359  20.560  0.00  0.00    +0.000 N 
ATOM     18  C   UNL     1       0.782   8.166  20.816  0.00  0.00    +0.000 C 
ATOM     19  O   UNL     1      -0.232   7.727  21.347  0.00  0.00    +0.000 OA
ATOM     20  H   UNL     1       2.644   7.697  19.990  0.00  0.00    +0.000 HD
BRANCH  18  21
ATOM     21  C   UNL     1       0.851   9.588  20.411  0.00  0.00    +0.000 A 
ATOM     22  C   UNL     1       0.673  10.632  21.318  0.00  0.00    +0.000 A 
ATOM     23  F   UNL     1       0.377  10.386  22.604  0.00  0.00    +0.000 F 
ATOM     24  C   UNL     1       0.811  11.965  20.923  0.00  0.00    +0.000 A 
ATOM     25  C   UNL     1       1.127  12.272  19.599  0.00  0.00    +0.000 A 
ATOM     26  C   UNL     1       1.292  11.240  18.678  0.00  0.00    +0.000 A 
ATOM     27  C   UNL     1       1.153   9.912  19.085  0.00  0.00    +0.000 A 
ATOM     28  F   UNL     1       1.296   8.962  18.149  0.00  0.00    +0.000 F 
ENDBRANCH  18  21
ENDBRANCH  16  17
ENDBRANCH   5  16
TORSDOF 6
ENDMDL
MODEL 5
REMARK VINA RESULT:      -7.8      1.680      2.554
REMARK  Name = 
REMARK  6 active torsions:
REMARK  status: ('A' for Active; 'I' for Inactive)
REMARK    1  A    between atoms: C_2  and  O_3
REMARK    2  A    between atoms: C_2  and  C_4
REMARK    3  A    between atoms: N_7  and  C_8
REMARK    4  A    between atoms: C_12  and  C_13
REMARK    5  A    between atoms: C_13  and  N_14
REMARK    6  A    between atoms: C_15  and  C_17
REMARK                            x       y       z     vdW  Elec       q    Type
REMARK                         _______ _______ _______ _____ _____    ______ ____
ROOT
ATOM      1  C   UNL     1      -1.095  10.448  18.343  0.00  0.00    +0.000 A 
ATOM      2  C   UNL     1      -1.107  10.742  19.713  0.00  0.00    +0.000 A 
ATOM      3  C   UNL     1      -0.017  10.391  20.514  0.00  0.00    +0.000 A 
ATOM      4  C   UNL     1       1.078   9.721  19.964  0.00  0.00    +0.000 A 
ATOM      5  C   UNL     1       1.096   9.395  18.603  0.00  0.00    +0.000 A 
ATOM      6  C   UNL     1       0.023   9.799  17.790  0.00  0.00    +0.000 A 
ENDROOT
BRANCH   1  10
ATOM      7  C   UNL     1      -4.237  11.362  17.049  0.00  0.00    +0.000 A 
ATOM      8  C   UNL     1      -3.699  10.803  15.873  0.00  0.00    +0.000 A 
ATOM      9  C   UNL     1      -2.418  10.442  16.206  0.00  0.00    +0.000 A 
ATOM     10  N   UNL     1      -2.234  10.748  17.537  0.00  0.00    +0.000 N 
ATOM     11  N   UNL     1      -3.339  11.366  18.057  0.00  0.00    +0.000 NA
BRANCH   7  13
ATOM     12  O   UNL     1      -5.943  13.017  16.908  0.00  0.00    +0.000 OA
ATOM     13  C   UNL     1      -5.592  11.894  17.234  0.00  0.00    +0.000 C 
BRANCH  13  14
ATOM     14  O   UNL     1      -6.431  10.991  17.812  0.00  0.00    +0.000 OA
ATOM     15  H   UNL     1      -7.248  10.977  17.264  0.00  0.00    +0.000 HD
ENDBRANCH  13  14
ENDBRANCH   7  13
ENDBRANCH   1  10
BRANCH   5  16
ATOM     16  C   UNL     1       2.202   8.548  18.030  0.00  0.00    +0.000 C 
BRANCH  16  17
ATOM     17  N   UNL     1       1.871   7.147  17.938  0.00  0.00    +0.000 N 
ATOM     18  C   UNL     1       2.438   6.272  18.848  0.00  0.00    +0.000 C 
ATOM     19  O   UNL     1       3.146   6.667  19.768  0.00  0.00    +0.000 OA
ATOM     20  H   UNL     1       1.415   6.798  17.103  0.00  0.00    +0.000 HD
BRANCH  18  21
ATOM     21  C   UNL     1       2.187   4.823  18.676  0.00  0.00    +0.000 A 
ATOM     22  C   UNL     1       2.809   4.071  17.680  0.00  0.00    +0.000 A 
ATOM     23  F   UNL     1       3.633   4.649  16.792  0.00  0.00    +0.000 F 
ATOM     24  C   UNL     1       2.606   2.693  17.581  0.00  0.00    +0.000 A 
ATOM     25  C   UNL     1       1.766   2.044  18.486  0.00  0.00    +0.000 A 
ATOM     26  C   UNL     1       1.125   2.784  19.477  0.00  0.00    +0.000 A 
ATOM     27  C   UNL     1       1.336   4.161  19.566  0.00  0.00    +0.000 A 
ATOM     28  F   UNL     1       0.671   4.827  20.522  0.00  0.00    +0.000 F 
ENDBRANCH  18  21
ENDBRANCH  16  17
ENDBRANCH   5  16
TORSDOF 6
ENDMDL
MODEL 6
REMARK VINA RESULT:      -7.8      4.234      8.547
REMARK  Name = 
REMARK  6 active torsions:
REMARK  status: ('A' for Active; 'I' for Inactive)
REMARK    1  A    between atoms: C_2  and  O_3
REMARK    2  A    between atoms: C_2  and  C_4
REMARK    3  A    between atoms: N_7  and  C_8
REMARK    4  A    between atoms: C_12  and  C_13
REMARK    5  A    between atoms: C_13  and  N_14
REMARK    6  A    between atoms: C_15  and  C_17
REMARK                            x       y       z     vdW  Elec       q    Type
REMARK                         _______ _______ _______ _____ _____    ______ ____
ROOT
ATOM      1  C   UNL     1       4.277   6.097  18.099  0.00  0.00    +0.000 A 
ATOM      2  C   UNL     1       3.869   5.498  19.299  0.00  0.00    +0.000 A 
ATOM      3  C   UNL     1       2.790   6.026  20.013  0.00  0.00    +0.000 A 
ATOM      4  C   UNL     1       2.130   7.168  19.556  0.00  0.00    +0.000 A 
ATOM      5  C   UNL     1       2.541   7.796  18.374  0.00  0.00    +0.000 A 
ATOM      6  C   UNL     1       3.590   7.229  17.629  0.00  0.00    +0.000 A 
ENDROOT
BRANCH   1  10
ATOM      7  C   UNL     1       6.637   4.973  15.744  0.00  0.00    +0.000 A 
ATOM      8  C   UNL     1       7.314   4.559  16.908  0.00  0.00    +0.000 A 
ATOM      9  C   UNL     1       6.528   4.989  17.947  0.00  0.00    +0.000 A 
ATOM     10  N   UNL     1       5.418   5.598  17.402  0.00  0.00    +0.000 N 
ATOM     11  N   UNL     1       5.500   5.639  16.036  0.00  0.00    +0.000 NA
BRANCH   7  13
ATOM     12  O   UNL     1       7.812   5.473  13.734  0.00  0.00    +0.000 OA
ATOM     13  C   UNL     1       7.052   4.747  14.354  0.00  0.00    +0.000 C 
BRANCH  13  14
ATOM     14  O   UNL     1       6.493   3.626  13.821  0.00  0.00    +0.000 OA
ATOM     15  H   UNL     1       7.035   3.391  13.033  0.00  0.00    +0.000 HD
ENDBRANCH  13  14
ENDBRANCH   7  13
ENDBRANCH   1  10
BRANCH   5  16
ATOM     16  C   UNL     1       1.932   9.107  17.948  0.00  0.00    +0.000 C 
BRANCH  16  17
ATOM     17  N   UNL     1       0.870   9.560  18.813  0.00  0.00    +0.000 N 
ATOM     18  C   UNL     1       0.878  10.878  19.236  0.00  0.00    +0.000 C 
ATOM     19  O   UNL     1       1.716  11.679  18.834  0.00  0.00    +0.000 OA
ATOM     20  H   UNL     1       0.270   8.878  19.262  0.00  0.00    +0.000 HD
BRANCH  18  21
ATOM     21  C   UNL     1      -0.146  11.305  20.215  0.00  0.00    +0.000 A 
ATOM     22  C   UNL     1      -0.092  10.939  21.560  0.00  0.00    +0.000 A 
ATOM     23  F   UNL     1       0.877  10.130  22.016  0.00  0.00    +0.000 F 
ATOM     24  C   UNL     1      -1.035  11.411  22.476  0.00  0.00    +0.000 A 
ATOM     25  C   UNL     1      -2.057  12.261  22.052  0.00  0.00    +0.000 A 
ATOM     26  C   UNL     1      -2.133  12.622  20.709  0.00  0.00    +0.000 A 
ATOM     27  C   UNL     1      -1.184  12.145  19.803  0.00  0.00    +0.000 A 
ATOM     28  F   UNL     1      -1.324  12.504  18.518  0.00  0.00    +0.000 F 
ENDBRANCH  18  21
ENDBRANCH  16  17
ENDBRANCH   5  16
TORSDOF 6
ENDMDL
MODEL 7
REMARK VINA RESULT:      -7.8      3.684      8.550
REMARK  Name = 
REMARK  6 active torsions:
REMARK  status: ('A' for Active; 'I' for Inactive)
REMARK    1  A    between atoms: C_2  and  O_3
REMARK    2  A    between atoms: C_2  and  C_4
REMARK    3  A    between atoms: N_7  and  C_8
REMARK    4  A    between atoms: C_12  and  C_13
REMARK    5  A    between atoms: C_13  and  N_14
REMARK    6  A    between atoms: C_15  and  C_17
REMARK                            x       y       z     vdW  Elec       q    Type
REMARK                         _______ _______ _______ _____ _____    ______ ____
ROOT
ATOM      1  C   UNL     1       2.961   6.639  18.710  0.00  0.00    +0.000 A 
ATOM      2  C   UNL     1       2.550   6.397  20.028  0.00  0.00    +0.000 A 
ATOM      3  C   UNL     1       1.674   7.282  20.662  0.00  0.00    +0.000 A 
ATOM      4  C   UNL     1       1.225   8.427  20.001  0.00  0.00    +0.000 A 
ATOM      5  C   UNL     1       1.646   8.700  18.695  0.00  0.00    +0.000 A 
ATOM      6  C   UNL     1       2.481   7.778  18.040  0.00  0.00    +0.000 A 
ENDROOT
BRANCH   1  10
ATOM      7  C   UNL     1       5.745   5.141  17.165  0.00  0.00    +0.000 A 
ATOM      8  C   UNL     1       4.822   4.098  16.954  0.00  0.00    +0.000 A 
ATOM      9  C   UNL     1       3.668   4.515  17.568  0.00  0.00    +0.000 A 
ATOM     10  N   UNL     1       3.905   5.770  18.084  0.00  0.00    +0.000 N 
ATOM     11  N   UNL     1       5.205   6.148  17.885  0.00  0.00    +0.000 NA
BRANCH   7  13
ATOM     12  O   UNL     1       7.602   6.115  16.036  0.00  0.00    +0.000 OA
ATOM     13  C   UNL     1       7.134   5.201  16.696  0.00  0.00    +0.000 C 
BRANCH  13  14
ATOM     14  O   UNL     1       7.860   4.115  17.080  0.00  0.00    +0.000 OA
ATOM     15  H   UNL     1       8.779   4.267  16.765  0.00  0.00    +0.000 HD
ENDBRANCH  13  14
ENDBRANCH   7  13
ENDBRANCH   1  10
BRANCH   5  16
ATOM     16  C   UNL     1       1.284  10.000  18.026  0.00  0.00    +0.000 C 
BRANCH  16  17
ATOM     17  N   UNL     1      -0.130  10.150  17.778  0.00  0.00    +0.000 N 
ATOM     18  C   UNL     1      -0.725  11.369  18.057  0.00  0.00    +0.000 C 
ATOM     19  O   UNL     1      -0.070  12.336  18.432  0.00  0.00    +0.000 OA
ATOM     20  H   UNL     1      -0.695   9.326  17.615  0.00  0.00    +0.000 HD
BRANCH  18  21
ATOM     21  C   UNL     1      -2.194  11.479  17.912  0.00  0.00    +0.000 A 
ATOM     22  C   UNL     1      -2.851  11.181  16.718  0.00  0.00    +0.000 A 
ATOM     23  F   UNL     1      -2.162  10.828  15.621  0.00  0.00    +0.000 F 
ATOM     24  C   UNL     1      -4.244  11.228  16.628  0.00  0.00    +0.000 A 
ATOM     25  C   UNL     1      -5.004  11.581  17.743  0.00  0.00    +0.000 A 
ATOM     26  C   UNL     1      -4.362  11.897  18.938  0.00  0.00    +0.000 A 
ATOM     27  C   UNL     1      -2.969  11.845  19.016  0.00  0.00    +0.000 A 
ATOM     28  F   UNL     1      -2.404  12.186  20.184  0.00  0.00    +0.000 F 
ENDBRANCH  18  21
ENDBRANCH  16  17
ENDBRANCH   5  16
TORSDOF 6
ENDMDL
MODEL 8
REMARK VINA RESULT:      -7.8      3.603      8.461
REMARK  Name = 
REMARK  6 active torsions:
REMARK  status: ('A' for Active; 'I' for Inactive)
REMARK    1  A    between atoms: C_2  and  O_3
REMARK    2  A    between atoms: C_2  and  C_4
REMARK    3  A    between atoms: N_7  and  C_8
REMARK    4  A    between atoms: C_12  and  C_13
REMARK    5  A    between atoms: C_13  and  N_14
REMARK    6  A    between atoms: C_15  and  C_17
REMARK                            x       y       z     vdW  Elec       q    Type
REMARK                         _______ _______ _______ _____ _____    ______ ____
ROOT
ATOM      1  C   UNL     1       2.828   6.572  18.803  0.00  0.00    +0.000 A 
ATOM      2  C   UNL     1       2.518   6.401  20.159  0.00  0.00    +0.000 A 
ATOM      3  C   UNL     1       1.721   7.340  20.819  0.00  0.00    +0.000 A 
ATOM      4  C   UNL     1       1.253   8.469  20.143  0.00  0.00    +0.000 A 
ATOM      5  C   UNL     1       1.576   8.671  18.797  0.00  0.00    +0.000 A 
ATOM      6  C   UNL     1       2.330   7.695  18.122  0.00  0.00    +0.000 A 
ENDROOT
BRANCH   1  10
ATOM      7  C   UNL     1       5.521   4.821  17.366  0.00  0.00    +0.000 A 
ATOM      8  C   UNL     1       4.476   4.037  16.837  0.00  0.00    +0.000 A 
ATOM      9  C   UNL     1       3.329   4.571  17.367  0.00  0.00    +0.000 A 
ATOM     10  N   UNL     1       3.695   5.647  18.146  0.00  0.00    +0.000 N 
ATOM     11  N   UNL     1       5.056   5.781  18.194  0.00  0.00    +0.000 NA
BRANCH   7  13
ATOM     12  O   UNL     1       7.481   4.866  16.014  0.00  0.00    +0.000 OA
ATOM     13  C   UNL     1       6.956   4.674  17.100  0.00  0.00    +0.000 C 
BRANCH  13  14
ATOM     14  O   UNL     1       7.655   4.299  18.207  0.00  0.00    +0.000 OA
ATOM     15  H   UNL     1       7.571   3.321  18.272  0.00  0.00    +0.000 HD
ENDBRANCH  13  14
ENDBRANCH   7  13
ENDBRANCH   1  10
BRANCH   5  16
ATOM     16  C   UNL     1       1.198   9.952  18.099  0.00  0.00    +0.000 C 
BRANCH  16  17
ATOM     17  N   UNL     1      -0.218  10.082  17.854  0.00  0.00    +0.000 N 
ATOM     18  C   UNL     1      -0.819  11.308  18.083  0.00  0.00    +0.000 C 
ATOM     19  O   UNL     1      -0.168  12.295  18.412  0.00  0.00    +0.000 OA
ATOM     20  H   UNL     1      -0.779   9.248  17.730  0.00  0.00    +0.000 HD
BRANCH  18  21
ATOM     21  C   UNL     1      -2.290  11.403  17.943  0.00  0.00    +0.000 A 
ATOM     22  C   UNL     1      -3.116  11.793  18.996  0.00  0.00    +0.000 A 
ATOM     23  F   UNL     1      -2.609  12.053  20.211  0.00  0.00    +0.000 F 
ATOM     24  C   UNL     1      -4.494  11.940  18.817  0.00  0.00    +0.000 A 
ATOM     25  C   UNL     1      -5.067  11.691  17.570  0.00  0.00    +0.000 A 
ATOM     26  C   UNL     1      -4.256  11.285  16.513  0.00  0.00    +0.000 A 
ATOM     27  C   UNL     1      -2.880  11.143  16.703  0.00  0.00    +0.000 A 
ATOM     28  F   UNL     1      -2.153  10.722  15.657  0.00  0.00    +0.000 F 
ENDBRANCH  18  21
ENDBRANCH  16  17
ENDBRANCH   5  16
TORSDOF 6
ENDMDL
MODEL 9
REMARK VINA RESULT:      -7.8      4.025      8.622
REMARK  Name = 
REMARK  6 active torsions:
REMARK  status: ('A' for Active; 'I' for Inactive)
REMARK    1  A    between atoms: C_2  and  O_3
REMARK    2  A    between atoms: C_2  and  C_4
REMARK    3  A    between atoms: N_7  and  C_8
REMARK    4  A    between atoms: C_12  and  C_13
REMARK    5  A    between atoms: C_13  and  N_14
REMARK    6  A    between atoms: C_15  and  C_17
REMARK                            x       y       z     vdW  Elec       q    Type
REMARK                         _______ _______ _______ _____ _____    ______ ____
ROOT
ATOM      1  C   UNL     1       4.145   6.007  18.195  0.00  0.00    +0.000 A 
ATOM      2  C   UNL     1       3.654   5.278  19.286  0.00  0.00    +0.000 A 
ATOM      3  C   UNL     1       2.540   5.738  19.992  0.00  0.00    +0.000 A 
ATOM      4  C   UNL     1       1.924   6.940  19.636  0.00  0.00    +0.000 A 
ATOM      5  C   UNL     1       2.417   7.696  18.567  0.00  0.00    +0.000 A 
ATOM      6  C   UNL     1       3.503   7.201  17.823  0.00  0.00    +0.000 A 
ENDROOT
BRANCH   1  10
ATOM      7  C   UNL     1       6.587   4.991  15.874  0.00  0.00    +0.000 A 
ATOM      8  C   UNL     1       7.287   4.657  17.051  0.00  0.00    +0.000 A 
ATOM      9  C   UNL     1       6.468   5.057  18.076  0.00  0.00    +0.000 A 
ATOM     10  N   UNL     1       5.321   5.572  17.513  0.00  0.00    +0.000 N 
ATOM     11  N   UNL     1       5.405   5.583  16.147  0.00  0.00    +0.000 NA
BRANCH   7  13
ATOM     12  O   UNL     1       7.819   5.462  13.892  0.00  0.00    +0.000 OA
ATOM     13  C   UNL     1       7.022   4.760  14.492  0.00  0.00    +0.000 C 
BRANCH  13  14
ATOM     14  O   UNL     1       6.437   3.660  13.941  0.00  0.00    +0.000 OA
ATOM     15  H   UNL     1       7.098   3.272  13.324  0.00  0.00    +0.000 HD
ENDBRANCH  13  14
ENDBRANCH   7  13
ENDBRANCH   1  10
BRANCH   5  16
ATOM     16  C   UNL     1       1.853   9.060  18.265  0.00  0.00    +0.000 C 
BRANCH  16  17
ATOM     17  N   UNL     1       1.428   9.784  19.439  0.00  0.00    +0.000 N 
ATOM     18  C   UNL     1       0.115  10.218  19.510  0.00  0.00    +0.000 C 
ATOM     19  O   UNL     1      -0.705   9.937  18.642  0.00  0.00    +0.000 OA
ATOM     20  H   UNL     1       2.126  10.144  20.079  0.00  0.00    +0.000 HD
BRANCH  18  21
ATOM     21  C   UNL     1      -0.281  11.060  20.661  0.00  0.00    +0.000 A 
ATOM     22  C   UNL     1      -0.364  12.449  20.577  0.00  0.00    +0.000 A 
ATOM     23  F   UNL     1      -0.033  13.093  19.446  0.00  0.00    +0.000 F 
ATOM     24  C   UNL     1      -0.806  13.214  21.658  0.00  0.00    +0.000 A 
ATOM     25  C   UNL     1      -1.171  12.590  22.852  0.00  0.00    +0.000 A 
ATOM     26  C   UNL     1      -1.078  11.205  22.957  0.00  0.00    +0.000 A 
ATOM     27  C   UNL     1      -0.636  10.451  21.868  0.00  0.00    +0.000 A 
ATOM     28  F   UNL     1      -0.540   9.124  22.036  0.00  0.00    +0.000 F 
ENDBRANCH  18  21
ENDBRANCH  16  17
ENDBRANCH   5  16
TORSDOF 6
ENDMDL
