MODEL 1
REMARK VINA RESULT:      -9.3      0.000      0.000
REMARK  Name = 
REMARK  5 active torsions:
REMARK  status: ('A' for Active; 'I' for Inactive)
REMARK    1  A    between atoms: C_4  and  C_5
REMARK    2  A    between atoms: C_8  and  S_9
REMARK    3  A    between atoms: S_9  and  C_10
REMARK    4  A    between atoms: C_10  and  C_11
REMARK    5  A    between atoms: C_10  and  C_17
REMARK                            x       y       z     vdW  Elec       q    Type
REMARK                         _______ _______ _______ _____ _____    ______ ____
ROOT
ATOM      1  C   UNL     1       3.292   5.682  18.610  0.00  0.00    +0.000 C 
ENDROOT
BRANCH   1   2
ATOM      2  C   UNL     1       2.388   4.562  19.120  0.00  0.00    +0.000 A 
ATOM      3  C   UNL     1       1.486   3.897  18.269  0.00  0.00    +0.000 A 
ATOM      4  C   UNL     1       0.797   2.764  18.703  0.00  0.00    +0.000 A 
ATOM      5  C   UNL     1       0.988   2.281  19.995  0.00  0.00    +0.000 A 
ATOM      6  C   UNL     1       1.855   2.942  20.862  0.00  0.00    +0.000 A 
ATOM      7  C   UNL     1       2.548   4.074  20.430  0.00  0.00    +0.000 A 
ENDBRANCH   1   2
BRANCH   1   8
ATOM      8  C   UNL     1       2.609   7.044  18.843  0.00  0.00    +0.000 A 
ATOM      9  C   UNL     1       2.421   7.918  17.755  0.00  0.00    +0.000 A 
ATOM     10  C   UNL     1       1.727   9.122  17.912  0.00  0.00    +0.000 A 
ATOM     11  C   UNL     1       1.213   9.479  19.156  0.00  0.00    +0.000 A 
ATOM     12  C   UNL     1       1.382   8.628  20.243  0.00  0.00    +0.000 A 
ATOM     13  C   UNL     1       2.061   7.420  20.086  0.00  0.00    +0.000 A 
ENDBRANCH   1   8
BRANCH   1  14
ATOM     14  S   UNL     1       4.993   5.658  19.265  0.00  0.00    +0.000 S 
BRANCH  14  18
ATOM     15  C   UNL     1       6.798   4.712  16.031  0.00  0.00    +0.000 A 
ATOM     16  N   UNL     1       7.747   4.452  16.907  0.00  0.00    +0.000 NA
ATOM     17  N   UNL     1       7.220   4.733  18.142  0.00  0.00    +0.000 NA
ATOM     18  C   UNL     1       5.980   5.137  17.949  0.00  0.00    +0.000 A 
ATOM     19  O   UNL     1       5.641   5.164  16.621  0.00  0.00    +0.000 OA
BRANCH  15  23
ATOM     20  C   UNL     1       7.010   4.234  11.795  0.00  0.00    +0.000 A 
ATOM     21  C   UNL     1       7.810   5.174  12.441  0.00  0.00    +0.000 A 
ATOM     22  C   UNL     1       7.714   5.333  13.825  0.00  0.00    +0.000 A 
ATOM     23  C   UNL     1       6.825   4.553  14.583  0.00  0.00    +0.000 A 
ATOM     24  C   UNL     1       6.010   3.628  13.916  0.00  0.00    +0.000 A 
ATOM     25  C   UNL     1       6.106   3.469  12.530  0.00  0.00    +0.000 A 
ENDBRANCH  15  23
ENDBRANCH  14  18
ENDBRANCH   1  14
TORSDOF 5
ENDMDL
MODEL 2
REMARK VINA RESULT:      -9.0      0.747      1.219
REMARK  Name = 
REMARK  5 active torsions:
REMARK  status: ('A' for Active; 'I' for Inactive)
REMARK    1  A    between atoms: C_4  and  C_5
REMARK    2  A    between atoms: C_8  and  S_9
REMARK    3  A    between atoms: S_9  and  C_10
REMARK    4  A    between atoms: C_10  and  C_11
REMARK    5  A    between atoms: C_10  and  C_17
REMARK                            x       y       z     vdW  Elec       q    Type
REMARK                         _______ _______ _______ _____ _____    ______ ____
ROOT
ATOM      1  C   UNL     1       3.560   5.356  18.750  0.00  0.00    +0.000 C 
ENDROOT
BRANCH   1   2
ATOM      2  C   UNL     1       2.739   4.326  19.524  0.00  0.00    +0.000 A 
ATOM      3  C   UNL     1       3.076   3.952  20.838  0.00  0.00    +0.000 A 
ATOM      4  C   UNL     1       2.222   3.148  21.593  0.00  0.00    +0.000 A 
ATOM      5  C   UNL     1       1.023   2.695  21.048  0.00  0.00    +0.000 A 
ATOM      6  C   UNL     1       0.685   3.032  19.739  0.00  0.00    +0.000 A 
ATOM      7  C   UNL     1       1.536   3.839  18.981  0.00  0.00    +0.000 A 
ENDBRANCH   1   2
BRANCH   1   8
ATOM      8  C   UNL     1       2.899   6.743  18.875  0.00  0.00    +0.000 A 
ATOM      9  C   UNL     1       2.923   7.621  17.774  0.00  0.00    +0.000 A 
ATOM     10  C   UNL     1       2.257   8.850  17.821  0.00  0.00    +0.000 A 
ATOM     11  C   UNL     1       1.562   9.228  18.967  0.00  0.00    +0.000 A 
ATOM     12  C   UNL     1       1.520   8.374  20.063  0.00  0.00    +0.000 A 
ATOM     13  C   UNL     1       2.171   7.140  20.014  0.00  0.00    +0.000 A 
ENDBRANCH   1   8
BRANCH   1  14
ATOM     14  S   UNL     1       5.331   5.410  19.178  0.00  0.00    +0.000 S 
BRANCH  14  18
ATOM     15  C   UNL     1       6.761   5.315  15.634  0.00  0.00    +0.000 A 
ATOM     16  N   UNL     1       7.581   6.184  16.189  0.00  0.00    +0.000 NA
ATOM     17  N   UNL     1       7.190   6.303  17.498  0.00  0.00    +0.000 NA
ATOM     18  C   UNL     1       6.163   5.495  17.668  0.00  0.00    +0.000 A 
ATOM     19  O   UNL     1       5.819   4.837  16.516  0.00  0.00    +0.000 OA
BRANCH  15  23
ATOM     20  C   UNL     1       6.885   3.810  11.643  0.00  0.00    +0.000 A 
ATOM     21  C   UNL     1       7.719   4.857  12.029  0.00  0.00    +0.000 A 
ATOM     22  C   UNL     1       7.651   5.353  13.333  0.00  0.00    +0.000 A 
ATOM     23  C   UNL     1       6.758   4.806  14.269  0.00  0.00    +0.000 A 
ATOM     24  C   UNL     1       5.910   3.768  13.859  0.00  0.00    +0.000 A 
ATOM     25  C   UNL     1       5.978   3.273  12.553  0.00  0.00    +0.000 A 
ENDBRANCH  15  23
ENDBRANCH  14  18
ENDBRANCH   1  14
TORSDOF 5
ENDMDL
MODEL 3
REMARK VINA RESULT:      -9.0      1.291      1.865
REMARK  Name = 
REMARK  5 active torsions:
REMARK  status: ('A' for Active; 'I' for Inactive)
REMARK    1  A    between atoms: C_4  and  C_5
REMARK    2  A    between atoms: C_8  and  S_9
REMARK    3  A    between atoms: S_9  and  C_10
REMARK    4  A    between atoms: C_10  and  C_11
REMARK    5  A    between atoms: C_10  and  C_17
REMARK                            x       y       z     vdW  Elec       q    Type
REMARK                         _______ _______ _______ _____ _____    ______ ____
ROOT
ATOM      1  C   UNL     1       3.661   5.723  17.672  0.00  0.00    +0.000 C 
ENDROOT
BRANCH   1   2
ATOM      2  C   UNL     1       3.081   4.401  18.170  0.00  0.00    +0.000 A 
ATOM      3  C   UNL     1       3.782   3.582  19.074  0.00  0.00    +0.000 A 
ATOM      4  C   UNL     1       3.170   2.471  19.655  0.00  0.00    +0.000 A 
ATOM      5  C   UNL     1       1.852   2.152  19.337  0.00  0.00    +0.000 A 
ATOM      6  C   UNL     1       1.151   2.935  18.423  0.00  0.00    +0.000 A 
ATOM      7  C   UNL     1       1.759   4.049  17.842  0.00  0.00    +0.000 A 
ENDBRANCH   1   2
BRANCH   1   8
ATOM      8  C   UNL     1       2.917   6.897  18.338  0.00  0.00    +0.000 A 
ATOM      9  C   UNL     1       2.589   8.031  17.570  0.00  0.00    +0.000 A 
ATOM     10  C   UNL     1       1.838   9.077  18.118  0.00  0.00    +0.000 A 
ATOM     11  C   UNL     1       1.406   9.013  19.440  0.00  0.00    +0.000 A 
ATOM     12  C   UNL     1       1.714   7.899  20.215  0.00  0.00    +0.000 A 
ATOM     13  C   UNL     1       2.451   6.849  19.667  0.00  0.00    +0.000 A 
ENDBRANCH   1   8
BRANCH   1  14
ATOM     14  S   UNL     1       5.469   5.884  17.841  0.00  0.00    +0.000 S 
BRANCH  14  18
ATOM     15  C   UNL     1       6.410   4.620  14.359  0.00  0.00    +0.000 A 
ATOM     16  N   UNL     1       7.474   5.346  14.633  0.00  0.00    +0.000 NA
ATOM     17  N   UNL     1       7.279   5.857  15.891  0.00  0.00    +0.000 NA
ATOM     18  C   UNL     1       6.114   5.405  16.314  0.00  0.00    +0.000 A 
ATOM     19  O   UNL     1       5.491   4.617  15.383  0.00  0.00    +0.000 OA
BRANCH  15  23
ATOM     20  C   UNL     1       5.649   2.215  10.916  0.00  0.00    +0.000 A 
ATOM     21  C   UNL     1       6.949   2.387  11.384  0.00  0.00    +0.000 A 
ATOM     22  C   UNL     1       7.184   3.194  12.498  0.00  0.00    +0.000 A 
ATOM     23  C   UNL     1       6.126   3.833  13.166  0.00  0.00    +0.000 A 
ATOM     24  C   UNL     1       4.825   3.668  12.670  0.00  0.00    +0.000 A 
ATOM     25  C   UNL     1       4.590   2.860  11.553  0.00  0.00    +0.000 A 
ENDBRANCH  15  23
ENDBRANCH  14  18
ENDBRANCH   1  14
TORSDOF 5
ENDMDL
MODEL 4
REMARK VINA RESULT:      -8.9      0.500      1.437
REMARK  Name = 
REMARK  5 active torsions:
REMARK  status: ('A' for Active; 'I' for Inactive)
REMARK    1  A    between atoms: C_4  and  C_5
REMARK    2  A    between atoms: C_8  and  S_9
REMARK    3  A    between atoms: S_9  and  C_10
REMARK    4  A    between atoms: C_10  and  C_11
REMARK    5  A    between atoms: C_10  and  C_17
REMARK                            x       y       z     vdW  Elec       q    Type
REMARK                         _______ _______ _______ _____ _____    ______ ____
ROOT
ATOM      1  C   UNL     1       3.522   5.390  18.820  0.00  0.00    +0.000 C 
ENDROOT
BRANCH   1   2
ATOM      2  C   UNL     1       2.690   4.323  19.527  0.00  0.00    +0.000 A 
ATOM      3  C   UNL     1       3.034   3.845  20.804  0.00  0.00    +0.000 A 
ATOM      4  C   UNL     1       2.173   3.004  21.510  0.00  0.00    +0.000 A 
ATOM      5  C   UNL     1       0.958   2.618  20.949  0.00  0.00    +0.000 A 
ATOM      6  C   UNL     1       0.612   3.058  19.674  0.00  0.00    +0.000 A 
ATOM      7  C   UNL     1       1.470   3.901  18.966  0.00  0.00    +0.000 A 
ENDBRANCH   1   2
BRANCH   1   8
ATOM      8  C   UNL     1       2.816   6.756  18.933  0.00  0.00    +0.000 A 
ATOM      9  C   UNL     1       2.738   7.589  17.801  0.00  0.00    +0.000 A 
ATOM     10  C   UNL     1       2.029   8.794  17.843  0.00  0.00    +0.000 A 
ATOM     11  C   UNL     1       1.390   9.191  19.015  0.00  0.00    +0.000 A 
ATOM     12  C   UNL     1       1.448   8.380  20.143  0.00  0.00    +0.000 A 
ATOM     13  C   UNL     1       2.142   7.171  20.099  0.00  0.00    +0.000 A 
ENDBRANCH   1   8
BRANCH   1  14
ATOM     14  S   UNL     1       5.264   5.484  19.348  0.00  0.00    +0.000 S 
BRANCH  14  18
ATOM     15  C   UNL     1       6.867   4.673  15.974  0.00  0.00    +0.000 A 
ATOM     16  N   UNL     1       7.930   4.621  16.751  0.00  0.00    +0.000 NA
ATOM     17  N   UNL     1       7.491   4.879  18.024  0.00  0.00    +0.000 NA
ATOM     18  C   UNL     1       6.187   5.062  17.952  0.00  0.00    +0.000 A 
ATOM     19  O   UNL     1       5.716   4.960  16.670  0.00  0.00    +0.000 OA
BRANCH  15  23
ATOM     20  C   UNL     1       6.465   4.030  11.775  0.00  0.00    +0.000 A 
ATOM     21  C   UNL     1       5.571   3.444  12.668  0.00  0.00    +0.000 A 
ATOM     22  C   UNL     1       5.729   3.646  14.040  0.00  0.00    +0.000 A 
ATOM     23  C   UNL     1       6.774   4.442  14.539  0.00  0.00    +0.000 A 
ATOM     24  C   UNL     1       7.678   5.006  13.629  0.00  0.00    +0.000 A 
ATOM     25  C   UNL     1       7.520   4.803  12.255  0.00  0.00    +0.000 A 
ENDBRANCH  15  23
ENDBRANCH  14  18
ENDBRANCH   1  14
TORSDOF 5
ENDMDL
MODEL 5
REMARK VINA RESULT:      -8.9      1.297      2.161
REMARK  Name = 
REMARK  5 active torsions:
REMARK  status: ('A' for Active; 'I' for Inactive)
REMARK    1  A    between atoms: C_4  and  C_5
REMARK    2  A    between atoms: C_8  and  S_9
REMARK    3  A    between atoms: S_9  and  C_10
REMARK    4  A    between atoms: C_10  and  C_11
REMARK    5  A    between atoms: C_10  and  C_17
REMARK                            x       y       z     vdW  Elec       q    Type
REMARK                         _______ _______ _______ _____ _____    ______ ____
ROOT
ATOM      1  C   UNL     1       3.507   5.925  17.635  0.00  0.00    +0.000 C 
ENDROOT
BRANCH   1   2
ATOM      2  C   UNL     1       3.017   4.540  18.052  0.00  0.00    +0.000 A 
ATOM      3  C   UNL     1       3.855   3.635  18.729  0.00  0.00    +0.000 A 
ATOM      4  C   UNL     1       3.346   2.447  19.257  0.00  0.00    +0.000 A 
ATOM      5  C   UNL     1       1.996   2.139  19.110  0.00  0.00    +0.000 A 
ATOM      6  C   UNL     1       1.156   3.010  18.419  0.00  0.00    +0.000 A 
ATOM      7  C   UNL     1       1.662   4.199  17.891  0.00  0.00    +0.000 A 
ENDBRANCH   1   2
BRANCH   1   8
ATOM      8  C   UNL     1       2.673   7.005  18.353  0.00  0.00    +0.000 A 
ATOM      9  C   UNL     1       2.392   6.861  19.725  0.00  0.00    +0.000 A 
ATOM     10  C   UNL     1       1.715   7.863  20.429  0.00  0.00    +0.000 A 
ATOM     11  C   UNL     1       1.302   9.022  19.776  0.00  0.00    +0.000 A 
ATOM     12  C   UNL     1       1.575   9.188  18.423  0.00  0.00    +0.000 A 
ATOM     13  C   UNL     1       2.263   8.197  17.722  0.00  0.00    +0.000 A 
ENDBRANCH   1   8
BRANCH   1  14
ATOM     14  S   UNL     1       5.296   6.204  17.841  0.00  0.00    +0.000 S 
BRANCH  14  18
ATOM     15  C   UNL     1       6.405   4.722  14.497  0.00  0.00    +0.000 A 
ATOM     16  N   UNL     1       7.501   5.370  14.834  0.00  0.00    +0.000 NA
ATOM     17  N   UNL     1       7.249   5.947  16.053  0.00  0.00    +0.000 NA
ATOM     18  C   UNL     1       6.020   5.610  16.391  0.00  0.00    +0.000 A 
ATOM     19  O   UNL     1       5.409   4.837  15.439  0.00  0.00    +0.000 OA
BRANCH  15  23
ATOM     20  C   UNL     1       5.586   2.448  10.980  0.00  0.00    +0.000 A 
ATOM     21  C   UNL     1       4.545   3.001  11.721  0.00  0.00    +0.000 A 
ATOM     22  C   UNL     1       4.828   3.724  12.882  0.00  0.00    +0.000 A 
ATOM     23  C   UNL     1       6.152   3.912  13.312  0.00  0.00    +0.000 A 
ATOM     24  C   UNL     1       7.187   3.331  12.568  0.00  0.00    +0.000 A 
ATOM     25  C   UNL     1       6.903   2.606  11.406  0.00  0.00    +0.000 A 
ENDBRANCH  15  23
ENDBRANCH  14  18
ENDBRANCH   1  14
TORSDOF 5
ENDMDL
MODEL 6
REMARK VINA RESULT:      -8.9      1.518      2.057
REMARK  Name = 
REMARK  5 active torsions:
REMARK  status: ('A' for Active; 'I' for Inactive)
REMARK    1  A    between atoms: C_4  and  C_5
REMARK    2  A    between atoms: C_8  and  S_9
REMARK    3  A    between atoms: S_9  and  C_10
REMARK    4  A    between atoms: C_10  and  C_11
REMARK    5  A    between atoms: C_10  and  C_17
REMARK                            x       y       z     vdW  Elec       q    Type
REMARK                         _______ _______ _______ _____ _____    ______ ____
ROOT
ATOM      1  C   UNL     1       3.656   6.042  17.533  0.00  0.00    +0.000 C 
ENDROOT
BRANCH   1   2
ATOM      2  C   UNL     1       3.381   4.632  18.051  0.00  0.00    +0.000 A 
ATOM      3  C   UNL     1       2.323   3.854  17.546  0.00  0.00    +0.000 A 
ATOM      4  C   UNL     1       2.191   2.510  17.899  0.00  0.00    +0.000 A 
ATOM      5  C   UNL     1       3.106   1.923  18.769  0.00  0.00    +0.000 A 
ATOM      6  C   UNL     1       4.144   2.684  19.302  0.00  0.00    +0.000 A 
ATOM      7  C   UNL     1       4.280   4.028  18.949  0.00  0.00    +0.000 A 
ENDBRANCH   1   2
BRANCH   1   8
ATOM      8  C   UNL     1       2.769   7.052  18.288  0.00  0.00    +0.000 A 
ATOM      9  C   UNL     1       2.448   6.816  19.638  0.00  0.00    +0.000 A 
ATOM     10  C   UNL     1       1.720   7.753  20.378  0.00  0.00    +0.000 A 
ATOM     11  C   UNL     1       1.294   8.938  19.784  0.00  0.00    +0.000 A 
ATOM     12  C   UNL     1       1.605   9.195  18.454  0.00  0.00    +0.000 A 
ATOM     13  C   UNL     1       2.344   8.269  17.717  0.00  0.00    +0.000 A 
ENDBRANCH   1   8
BRANCH   1  14
ATOM     14  S   UNL     1       5.410   6.540  17.549  0.00  0.00    +0.000 S 
BRANCH  14  18
ATOM     15  C   UNL     1       6.456   4.755  14.334  0.00  0.00    +0.000 A 
ATOM     16  N   UNL     1       7.616   5.260  14.703  0.00  0.00    +0.000 NA
ATOM     17  N   UNL     1       7.390   5.926  15.881  0.00  0.00    +0.000 NA
ATOM     18  C   UNL     1       6.111   5.781  16.166  0.00  0.00    +0.000 A 
ATOM     19  O   UNL     1       5.443   5.054  15.215  0.00  0.00    +0.000 OA
BRANCH  15  23
ATOM     20  C   UNL     1       5.630   2.245  10.983  0.00  0.00    +0.000 A 
ATOM     21  C   UNL     1       6.943   2.468  11.392  0.00  0.00    +0.000 A 
ATOM     22  C   UNL     1       7.198   3.309  12.477  0.00  0.00    +0.000 A 
ATOM     23  C   UNL     1       6.148   3.931  13.173  0.00  0.00    +0.000 A 
ATOM     24  C   UNL     1       4.834   3.715  12.736  0.00  0.00    +0.000 A 
ATOM     25  C   UNL     1       4.579   2.873  11.649  0.00  0.00    +0.000 A 
ENDBRANCH  15  23
ENDBRANCH  14  18
ENDBRANCH   1  14
TORSDOF 5
ENDMDL
MODEL 7
REMARK VINA RESULT:      -8.8      3.183      7.793
REMARK  Name = 
REMARK  5 active torsions:
REMARK  status: ('A' for Active; 'I' for Inactive)
REMARK    1  A    between atoms: C_4  and  C_5
REMARK    2  A    between atoms: C_8  and  S_9
REMARK    3  A    between atoms: S_9  and  C_10
REMARK    4  A    between atoms: C_10  and  C_11
REMARK    5  A    between atoms: C_10  and  C_17
REMARK                            x       y       z     vdW  Elec       q    Type
REMARK                         _______ _______ _______ _____ _____    ______ ____
ROOT
ATOM      1  C   UNL     1       3.861   6.194  18.632  0.00  0.00    +0.000 C 
ENDROOT
BRANCH   1   2
ATOM      2  C   UNL     1       2.881   5.112  19.081  0.00  0.00    +0.000 A 
ATOM      3  C   UNL     1       2.492   4.981  20.427  0.00  0.00    +0.000 A 
ATOM      4  C   UNL     1       1.468   4.108  20.794  0.00  0.00    +0.000 A 
ATOM      5  C   UNL     1       0.821   3.343  19.826  0.00  0.00    +0.000 A 
ATOM      6  C   UNL     1       1.210   3.438  18.492  0.00  0.00    +0.000 A 
ATOM      7  C   UNL     1       2.233   4.313  18.121  0.00  0.00    +0.000 A 
ENDBRANCH   1   2
BRANCH   1   8
ATOM      8  C   UNL     1       5.213   5.548  18.271  0.00  0.00    +0.000 A 
ATOM      9  C   UNL     1       5.408   5.033  16.975  0.00  0.00    +0.000 A 
ATOM     10  C   UNL     1       6.650   4.521  16.584  0.00  0.00    +0.000 A 
ATOM     11  C   UNL     1       7.717   4.508  17.480  0.00  0.00    +0.000 A 
ATOM     12  C   UNL     1       7.548   5.018  18.762  0.00  0.00    +0.000 A 
ATOM     13  C   UNL     1       6.315   5.543  19.150  0.00  0.00    +0.000 A 
ENDBRANCH   1   8
BRANCH   1  14
ATOM     14  S   UNL     1       3.253   7.280  17.301  0.00  0.00    +0.000 S 
BRANCH  14  18
ATOM     15  C   UNL     1       1.113   9.573  19.485  0.00  0.00    +0.000 A 
ATOM     16  N   UNL     1       1.212  10.317  18.402  0.00  0.00    +0.000 NA
ATOM     17  N   UNL     1       1.955   9.594  17.504  0.00  0.00    +0.000 NA
ATOM     18  C   UNL     1       2.256   8.450  18.086  0.00  0.00    +0.000 A 
ATOM     19  O   UNL     1       1.764   8.368  19.363  0.00  0.00    +0.000 OA
BRANCH  15  23
ATOM     20  C   UNL     1      -0.864  10.368  23.183  0.00  0.00    +0.000 A 
ATOM     21  C   UNL     1      -0.229   9.147  22.970  0.00  0.00    +0.000 A 
ATOM     22  C   UNL     1       0.395   8.893  21.747  0.00  0.00    +0.000 A 
ATOM     23  C   UNL     1       0.401   9.857  20.724  0.00  0.00    +0.000 A 
ATOM     24  C   UNL     1      -0.262  11.072  20.946  0.00  0.00    +0.000 A 
ATOM     25  C   UNL     1      -0.887  11.325  22.171  0.00  0.00    +0.000 A 
ENDBRANCH  15  23
ENDBRANCH  14  18
ENDBRANCH   1  14
TORSDOF 5
ENDMDL
MODEL 8
REMARK VINA RESULT:      -8.8      0.713      1.799
REMARK  Name = 
REMARK  5 active torsions:
REMARK  status: ('A' for Active; 'I' for Inactive)
REMARK    1  A    between atoms: C_4  and  C_5
REMARK    2  A    between atoms: C_8  and  S_9
REMARK    3  A    between atoms: S_9  and  C_10
REMARK    4  A    between atoms: C_10  and  C_11
REMARK    5  A    between atoms: C_10  and  C_17
REMARK                            x       y       z     vdW  Elec       q    Type
REMARK                         _______ _______ _______ _____ _____    ______ ____
ROOT
ATOM      1  C   UNL     1       3.234   5.837  18.506  0.00  0.00    +0.000 C 
ENDROOT
BRANCH   1   2
ATOM      2  C   UNL     1       2.480   4.647  19.096  0.00  0.00    +0.000 A 
ATOM      3  C   UNL     1       2.497   4.373  20.476  0.00  0.00    +0.000 A 
ATOM      4  C   UNL     1       1.666   3.394  21.021  0.00  0.00    +0.000 A 
ATOM      5  C   UNL     1       0.812   2.664  20.197  0.00  0.00    +0.000 A 
ATOM      6  C   UNL     1       0.801   2.901  18.825  0.00  0.00    +0.000 A 
ATOM      7  C   UNL     1       1.629   3.882  18.277  0.00  0.00    +0.000 A 
ENDBRANCH   1   2
BRANCH   1   8
ATOM      8  C   UNL     1       2.442   7.133  18.770  0.00  0.00    +0.000 A 
ATOM      9  C   UNL     1       2.013   7.425  20.079  0.00  0.00    +0.000 A 
ATOM     10  C   UNL     1       1.370   8.633  20.372  0.00  0.00    +0.000 A 
ATOM     11  C   UNL     1       1.138   9.566  19.364  0.00  0.00    +0.000 A 
ATOM     12  C   UNL     1       1.558   9.300  18.066  0.00  0.00    +0.000 A 
ATOM     13  C   UNL     1       2.213   8.103  17.774  0.00  0.00    +0.000 A 
ENDBRANCH   1   8
BRANCH   1  14
ATOM     14  S   UNL     1       4.972   5.988  19.036  0.00  0.00    +0.000 S 
BRANCH  14  18
ATOM     15  C   UNL     1       6.612   5.463  15.624  0.00  0.00    +0.000 A 
ATOM     16  N   UNL     1       7.461   6.318  16.156  0.00  0.00    +0.000 NA
ATOM     17  N   UNL     1       6.998   6.586  17.419  0.00  0.00    +0.000 NA
ATOM     18  C   UNL     1       5.902   5.873  17.587  0.00  0.00    +0.000 A 
ATOM     19  O   UNL     1       5.582   5.137  16.476  0.00  0.00    +0.000 OA
BRANCH  15  23
ATOM     20  C   UNL     1       6.613   3.643  11.763  0.00  0.00    +0.000 A 
ATOM     21  C   UNL     1       5.630   3.321  12.696  0.00  0.00    +0.000 A 
ATOM     22  C   UNL     1       5.655   3.908  13.962  0.00  0.00    +0.000 A 
ATOM     23  C   UNL     1       6.656   4.830  14.312  0.00  0.00    +0.000 A 
ATOM     24  C   UNL     1       7.651   5.127  13.371  0.00  0.00    +0.000 A 
ATOM     25  C   UNL     1       7.626   4.538  12.103  0.00  0.00    +0.000 A 
ENDBRANCH  15  23
ENDBRANCH  14  18
ENDBRANCH   1  14
TORSDOF 5
ENDMDL
MODEL 9
REMARK VINA RESULT:      -8.8      3.223      7.813
REMARK  Name = 
REMARK  5 active torsions:
REMARK  status: ('A' for Active; 'I' for Inactive)
REMARK    1  A    between atoms: C_4  and  C_5
REMARK    2  A    between atoms: C_8  and  S_9
REMARK    3  A    between atoms: S_9  and  C_10
REMARK    4  A    between atoms: C_10  and  C_11
REMARK    5  A    between atoms: C_10  and  C_17
REMARK                            x       y       z     vdW  Elec       q    Type
REMARK                         _______ _______ _______ _____ _____    ______ ____
ROOT
ATOM      1  C   UNL     1       3.531   6.322  18.544  0.00  0.00    +0.000 C 
ENDROOT
BRANCH   1   2
ATOM      2  C   UNL     1       2.515   5.259  18.956  0.00  0.00    +0.000 A 
ATOM      3  C   UNL     1       1.970   4.358  18.022  0.00  0.00    +0.000 A 
ATOM      4  C   UNL     1       1.183   3.284  18.440  0.00  0.00    +0.000 A 
ATOM      5  C   UNL     1       0.917   3.097  19.794  0.00  0.00    +0.000 A 
ATOM      6  C   UNL     1       1.424   3.995  20.731  0.00  0.00    +0.000 A 
ATOM      7  C   UNL     1       2.215   5.068  20.317  0.00  0.00    +0.000 A 
ENDBRANCH   1   2
BRANCH   1   8
ATOM      8  C   UNL     1       4.851   5.642  18.130  0.00  0.00    +0.000 A 
ATOM      9  C   UNL     1       5.044   5.268  16.787  0.00  0.00    +0.000 A 
ATOM     10  C   UNL     1       6.263   4.731  16.359  0.00  0.00    +0.000 A 
ATOM     11  C   UNL     1       7.307   4.552  17.263  0.00  0.00    +0.000 A 
ATOM     12  C   UNL     1       7.140   4.920  18.593  0.00  0.00    +0.000 A 
ATOM     13  C   UNL     1       5.931   5.470  19.020  0.00  0.00    +0.000 A 
ENDBRANCH   1   8
BRANCH   1  14
ATOM     14  S   UNL     1       2.948   7.494  17.275  0.00  0.00    +0.000 S 
BRANCH  14  18
ATOM     15  C   UNL     1       1.066   9.859  19.615  0.00  0.00    +0.000 A 
ATOM     16  N   UNL     1       1.277  10.666  18.596  0.00  0.00    +0.000 NA
ATOM     17  N   UNL     1       1.942   9.928  17.650  0.00  0.00    +0.000 NA
ATOM     18  C   UNL     1       2.088   8.714  18.142  0.00  0.00    +0.000 A 
ATOM     19  O   UNL     1       1.565   8.595  19.403  0.00  0.00    +0.000 OA
BRANCH  15  23
ATOM     20  C   UNL     1      -1.084  10.671  23.211  0.00  0.00    +0.000 A 
ATOM     21  C   UNL     1      -1.205  11.515  22.110  0.00  0.00    +0.000 A 
ATOM     22  C   UNL     1      -0.478  11.249  20.948  0.00  0.00    +0.000 A 
ATOM     23  C   UNL     1       0.371  10.132  20.866  0.00  0.00    +0.000 A 
ATOM     24  C   UNL     1       0.499   9.304  21.990  0.00  0.00    +0.000 A 
ATOM     25  C   UNL     1      -0.229   9.573  23.154  0.00  0.00    +0.000 A 
ENDBRANCH  15  23
ENDBRANCH  14  18
ENDBRANCH   1  14
TORSDOF 5
ENDMDL
