MODEL 1
REMARK VINA RESULT:      -8.3      0.000      0.000
REMARK  Name = 
REMARK  5 active torsions:
REMARK  status: ('A' for Active; 'I' for Inactive)
REMARK    1  A    between atoms: C_1  and  C_2
REMARK    2  A    between atoms: C_4  and  N_5
REMARK    3  A    between atoms: C_8  and  N_9
REMARK    4  A    between atoms: C_10  and  C_12
REMARK    5  A    between atoms: N_23  and  C_24
REMARK                            x       y       z     vdW  Elec       q    Type
REMARK                         _______ _______ _______ _____ _____    ______ ____
ROOT
ATOM      1  N   UNL     1       2.294   7.615  18.682  0.00  0.00    +0.000 N 
ATOM      2  C   UNL     1       1.705   7.981  19.880  0.00  0.00    +0.000 C 
ATOM      3  O   UNL     1       1.793   7.273  20.873  0.00  0.00    +0.000 OA
ATOM      4  H   UNL     1       2.481   8.343  18.002  0.00  0.00    +0.000 HD
ENDROOT
BRANCH   2   5
ATOM      5  C   UNL     1       0.952   9.265  19.895  0.00  0.00    +0.000 A 
ATOM      6  C   UNL     1       0.818  10.045  18.729  0.00  0.00    +0.000 A 
ATOM      7  C   UNL     1       0.068  11.221  18.740  0.00  0.00    +0.000 A 
ATOM      8  C   UNL     1      -0.575  11.651  19.900  0.00  0.00    +0.000 A 
ATOM      9  C   UNL     1      -0.444  10.865  21.051  0.00  0.00    +0.000 A 
ATOM     10  N   UNL     1      -0.981  11.044  22.307  0.00  0.00    +0.000 N 
ATOM     11  C   UNL     1      -0.597  10.028  23.139  0.00  0.00    +0.000 A 
ATOM     12  C   UNL     1       0.198   9.170  22.411  0.00  0.00    +0.000 A 
ATOM     13  C   UNL     1       0.303   9.681  21.081  0.00  0.00    +0.000 A 
ATOM     14  H   UNL     1      -1.581  11.815  22.570  0.00  0.00    +0.000 HD
ENDBRANCH   2   5
BRANCH   1  18
ATOM     15  N   UNL     1       4.302   5.148  16.995  0.00  0.00    +0.000 N 
ATOM     16  C   UNL     1       3.307   4.229  17.543  0.00  0.00    +0.000 C 
ATOM     17  C   UNL     1       2.273   5.182  18.126  0.00  0.00    +0.000 C 
ATOM     18  C   UNL     1       3.075   6.390  18.630  0.00  0.00    +0.000 C 
ATOM     19  C   UNL     1       4.203   6.436  17.610  0.00  0.00    +0.000 C 
ATOM     20  O   UNL     1       4.943   7.364  17.342  0.00  0.00    +0.000 OA
BRANCH  15  24
ATOM     21  C   UNL     1       6.704   3.900  12.826  0.00  0.00    +0.000 C 
ATOM     22  C   UNL     1       6.348   4.278  14.217  0.00  0.00    +0.000 A 
ATOM     23  C   UNL     1       5.083   4.635  14.737  0.00  0.00    +0.000 A 
ATOM     24  C   UNL     1       5.285   4.812  16.086  0.00  0.00    +0.000 A 
ATOM     25  N   UNL     1       6.622   4.581  16.298  0.00  0.00    +0.000 N 
ATOM     26  C   UNL     1       7.384   4.757  17.509  0.00  0.00    +0.000 C 
ATOM     27  N   UNL     1       7.292   4.292  15.164  0.00  0.00    +0.000 NA
ENDBRANCH  15  24
ENDBRANCH   1  18
TORSDOF 3
ENDMDL
MODEL 2
REMARK VINA RESULT:      -8.0      2.046      8.605
REMARK  Name = 
REMARK  5 active torsions:
REMARK  status: ('A' for Active; 'I' for Inactive)
REMARK    1  A    between atoms: C_1  and  C_2
REMARK    2  A    between atoms: C_4  and  N_5
REMARK    3  A    between atoms: C_8  and  N_9
REMARK    4  A    between atoms: C_10  and  C_12
REMARK    5  A    between atoms: N_23  and  C_24
REMARK                            x       y       z     vdW  Elec       q    Type
REMARK                         _______ _______ _______ _____ _____    ______ ____
ROOT
ATOM      1  N   UNL     1       3.444   7.161  18.917  0.00  0.00    +0.000 N 
ATOM      2  C   UNL     1       3.705   5.943  18.315  0.00  0.00    +0.000 C 
ATOM      3  O   UNL     1       2.800   5.203  17.962  0.00  0.00    +0.000 OA
ATOM      4  H   UNL     1       4.170   7.869  18.896  0.00  0.00    +0.000 HD
ENDROOT
BRANCH   2   5
ATOM      5  C   UNL     1       5.137   5.576  18.135  0.00  0.00    +0.000 A 
ATOM      6  C   UNL     1       6.002   5.449  19.240  0.00  0.00    +0.000 A 
ATOM      7  C   UNL     1       7.329   5.055  19.066  0.00  0.00    +0.000 A 
ATOM      8  C   UNL     1       7.831   4.769  17.797  0.00  0.00    +0.000 A 
ATOM      9  C   UNL     1       6.962   4.890  16.706  0.00  0.00    +0.000 A 
ATOM     10  N   UNL     1       7.189   4.654  15.367  0.00  0.00    +0.000 N 
ATOM     11  C   UNL     1       6.054   4.895  14.642  0.00  0.00    +0.000 A 
ATOM     12  C   UNL     1       5.071   5.288  15.523  0.00  0.00    +0.000 A 
ATOM     13  C   UNL     1       5.627   5.285  16.840  0.00  0.00    +0.000 A 
ATOM     14  H   UNL     1       8.070   4.340  14.981  0.00  0.00    +0.000 HD
ENDBRANCH   2   5
BRANCH   1  18
ATOM     15  N   UNL     1       0.852   9.638  19.254  0.00  0.00    +0.000 N 
ATOM     16  C   UNL     1       0.524   8.868  20.451  0.00  0.00    +0.000 C 
ATOM     17  C   UNL     1       1.686   7.888  20.533  0.00  0.00    +0.000 C 
ATOM     18  C   UNL     1       2.062   7.582  19.076  0.00  0.00    +0.000 C 
ATOM     19  C   UNL     1       1.756   8.917  18.411  0.00  0.00    +0.000 C 
ATOM     20  O   UNL     1       2.154   9.338  17.341  0.00  0.00    +0.000 OA
BRANCH  15  24
ATOM     21  C   UNL     1      -0.023  14.506  18.758  0.00  0.00    +0.000 C 
ATOM     22  C   UNL     1      -0.074  13.025  18.674  0.00  0.00    +0.000 A 
ATOM     23  C   UNL     1       0.847  12.081  19.184  0.00  0.00    +0.000 A 
ATOM     24  C   UNL     1       0.294  10.852  18.907  0.00  0.00    +0.000 A 
ATOM     25  N   UNL     1      -0.882  11.111  18.246  0.00  0.00    +0.000 N 
ATOM     26  C   UNL     1      -1.785  10.179  17.619  0.00  0.00    +0.000 C 
ATOM     27  N   UNL     1      -1.102  12.428  18.061  0.00  0.00    +0.000 NA
ENDBRANCH  15  24
ENDBRANCH   1  18
TORSDOF 3
ENDMDL
MODEL 3
REMARK VINA RESULT:      -7.9      2.121      8.405
REMARK  Name = 
REMARK  5 active torsions:
REMARK  status: ('A' for Active; 'I' for Inactive)
REMARK    1  A    between atoms: C_1  and  C_2
REMARK    2  A    between atoms: C_4  and  N_5
REMARK    3  A    between atoms: C_8  and  N_9
REMARK    4  A    between atoms: C_10  and  C_12
REMARK    5  A    between atoms: N_23  and  C_24
REMARK                            x       y       z     vdW  Elec       q    Type
REMARK                         _______ _______ _______ _____ _____    ______ ____
ROOT
ATOM      1  N   UNL     1       3.301   6.883  18.185  0.00  0.00    +0.000 N 
ATOM      2  C   UNL     1       3.365   5.548  17.828  0.00  0.00    +0.000 C 
ATOM      3  O   UNL     1       2.412   4.801  17.992  0.00  0.00    +0.000 OA
ATOM      4  H   UNL     1       3.955   7.525  17.750  0.00  0.00    +0.000 HD
ENDROOT
BRANCH   2   5
ATOM      5  C   UNL     1       4.650   5.068  17.249  0.00  0.00    +0.000 A 
ATOM      6  C   UNL     1       4.727   4.614  15.918  0.00  0.00    +0.000 A 
ATOM      7  C   UNL     1       5.945   4.216  15.369  0.00  0.00    +0.000 A 
ATOM      8  C   UNL     1       7.120   4.261  16.120  0.00  0.00    +0.000 A 
ATOM      9  C   UNL     1       7.036   4.722  17.439  0.00  0.00    +0.000 A 
ATOM     10  N   UNL     1       8.028   4.884  18.381  0.00  0.00    +0.000 N 
ATOM     11  C   UNL     1       7.502   5.367  19.549  0.00  0.00    +0.000 A 
ATOM     12  C   UNL     1       6.147   5.526  19.362  0.00  0.00    +0.000 A 
ATOM     13  C   UNL     1       5.832   5.127  18.026  0.00  0.00    +0.000 A 
ATOM     14  H   UNL     1       9.007   4.682  18.224  0.00  0.00    +0.000 HD
ENDBRANCH   2   5
BRANCH   1  18
ATOM     15  N   UNL     1       1.184   9.525  19.412  0.00  0.00    +0.000 N 
ATOM     16  C   UNL     1       1.035   8.627  20.555  0.00  0.00    +0.000 C 
ATOM     17  C   UNL     1       2.052   7.538  20.245  0.00  0.00    +0.000 C 
ATOM     18  C   UNL     1       2.053   7.408  18.715  0.00  0.00    +0.000 C 
ATOM     19  C   UNL     1       1.779   8.847  18.302  0.00  0.00    +0.000 C 
ATOM     20  O   UNL     1       1.980   9.376  17.224  0.00  0.00    +0.000 OA
BRANCH  15  24
ATOM     21  C   UNL     1       0.733  14.446  19.943  0.00  0.00    +0.000 C 
ATOM     22  C   UNL     1       0.541  13.021  19.574  0.00  0.00    +0.000 A 
ATOM     23  C   UNL     1       1.399  11.924  19.822  0.00  0.00    +0.000 A 
ATOM     24  C   UNL     1       0.721  10.824  19.351  0.00  0.00    +0.000 A 
ATOM     25  N   UNL     1      -0.461  11.302  18.841  0.00  0.00    +0.000 N 
ATOM     26  C   UNL     1      -1.479  10.589  18.111  0.00  0.00    +0.000 C 
ATOM     27  N   UNL     1      -0.570  12.643  18.934  0.00  0.00    +0.000 NA
ENDBRANCH  15  24
ENDBRANCH   1  18
TORSDOF 3
ENDMDL
MODEL 4
REMARK VINA RESULT:      -7.9      2.725      9.330
REMARK  Name = 
REMARK  5 active torsions:
REMARK  status: ('A' for Active; 'I' for Inactive)
REMARK    1  A    between atoms: C_1  and  C_2
REMARK    2  A    between atoms: C_4  and  N_5
REMARK    3  A    between atoms: C_8  and  N_9
REMARK    4  A    between atoms: C_10  and  C_12
REMARK    5  A    between atoms: N_23  and  C_24
REMARK                            x       y       z     vdW  Elec       q    Type
REMARK                         _______ _______ _______ _____ _____    ______ ____
ROOT
ATOM      1  N   UNL     1       1.487   7.875  20.555  0.00  0.00    +0.000 N 
ATOM      2  C   UNL     1       2.218   7.125  19.652  0.00  0.00    +0.000 C 
ATOM      3  O   UNL     1       2.688   7.628  18.642  0.00  0.00    +0.000 OA
ATOM      4  H   UNL     1       1.399   7.527  21.504  0.00  0.00    +0.000 HD
ENDROOT
BRANCH   2   5
ATOM      5  C   UNL     1       2.391   5.679  19.964  0.00  0.00    +0.000 A 
ATOM      6  C   UNL     1       1.357   4.933  20.563  0.00  0.00    +0.000 A 
ATOM      7  C   UNL     1       1.509   3.568  20.805  0.00  0.00    +0.000 A 
ATOM      8  C   UNL     1       2.685   2.905  20.455  0.00  0.00    +0.000 A 
ATOM      9  C   UNL     1       3.704   3.652  19.852  0.00  0.00    +0.000 A 
ATOM     10  N   UNL     1       4.941   3.250  19.396  0.00  0.00    +0.000 N 
ATOM     11  C   UNL     1       5.624   4.313  18.871  0.00  0.00    +0.000 A 
ATOM     12  C   UNL     1       4.816   5.423  18.981  0.00  0.00    +0.000 A 
ATOM     13  C   UNL     1       3.590   5.023  19.597  0.00  0.00    +0.000 A 
ATOM     14  H   UNL     1       5.287   2.300  19.439  0.00  0.00    +0.000 HD
ENDBRANCH   2   5
BRANCH   1  18
ATOM     15  N   UNL     1      -0.104  11.065  21.063  0.00  0.00    +0.000 N 
ATOM     16  C   UNL     1      -0.226  11.031  19.607  0.00  0.00    +0.000 C 
ATOM     17  C   UNL     1       0.241   9.621  19.277  0.00  0.00    +0.000 C 
ATOM     18  C   UNL     1       1.326   9.300  20.315  0.00  0.00    +0.000 C 
ATOM     19  C   UNL     1       0.805  10.062  21.525  0.00  0.00    +0.000 C 
ATOM     20  O   UNL     1       1.095   9.910  22.697  0.00  0.00    +0.000 OA
BRANCH  15  24
ATOM     21  C   UNL     1      -3.184  13.367  24.212  0.00  0.00    +0.000 C 
ATOM     22  C   UNL     1      -2.059  13.009  23.313  0.00  0.00    +0.000 A 
ATOM     23  C   UNL     1      -1.809  11.779  22.661  0.00  0.00    +0.000 A 
ATOM     24  C   UNL     1      -0.690  12.001  21.892  0.00  0.00    +0.000 A 
ATOM     25  N   UNL     1      -0.325  13.303  22.129  0.00  0.00    +0.000 N 
ATOM     26  C   UNL     1       0.851  14.003  21.676  0.00  0.00    +0.000 C 
ATOM     27  N   UNL     1      -1.124  13.919  23.023  0.00  0.00    +0.000 NA
ENDBRANCH  15  24
ENDBRANCH   1  18
TORSDOF 3
ENDMDL
MODEL 5
REMARK VINA RESULT:      -7.7      2.964      8.396
REMARK  Name = 
REMARK  5 active torsions:
REMARK  status: ('A' for Active; 'I' for Inactive)
REMARK    1  A    between atoms: C_1  and  C_2
REMARK    2  A    between atoms: C_4  and  N_5
REMARK    3  A    between atoms: C_8  and  N_9
REMARK    4  A    between atoms: C_10  and  C_12
REMARK    5  A    between atoms: N_23  and  C_24
REMARK                            x       y       z     vdW  Elec       q    Type
REMARK                         _______ _______ _______ _____ _____    ______ ____
ROOT
ATOM      1  N   UNL     1       1.941   6.885  18.839  0.00  0.00    +0.000 N 
ATOM      2  C   UNL     1       3.006   6.088  18.461  0.00  0.00    +0.000 C 
ATOM      3  O   UNL     1       4.076   6.575  18.125  0.00  0.00    +0.000 OA
ATOM      4  H   UNL     1       1.211   6.468  19.406  0.00  0.00    +0.000 HD
ENDROOT
BRANCH   2   5
ATOM      5  C   UNL     1       2.780   4.616  18.469  0.00  0.00    +0.000 A 
ATOM      6  C   UNL     1       2.952   3.844  17.303  0.00  0.00    +0.000 A 
ATOM      7  C   UNL     1       2.789   2.460  17.333  0.00  0.00    +0.000 A 
ATOM      8  C   UNL     1       2.457   1.803  18.518  0.00  0.00    +0.000 A 
ATOM      9  C   UNL     1       2.297   2.576  19.674  0.00  0.00    +0.000 A 
ATOM     10  N   UNL     1       1.993   2.187  20.960  0.00  0.00    +0.000 N 
ATOM     11  C   UNL     1       1.935   3.276  21.786  0.00  0.00    +0.000 A 
ATOM     12  C   UNL     1       2.211   4.392  21.026  0.00  0.00    +0.000 A 
ATOM     13  C   UNL     1       2.450   3.967  19.682  0.00  0.00    +0.000 A 
ATOM     14  H   UNL     1       1.843   1.229  21.249  0.00  0.00    +0.000 HD
ENDBRANCH   2   5
BRANCH   1  18
ATOM     15  N   UNL     1       0.965  10.227  19.758  0.00  0.00    +0.000 N 
ATOM     16  C   UNL     1       1.136  10.475  18.328  0.00  0.00    +0.000 C 
ATOM     17  C   UNL     1       1.363   9.072  17.783  0.00  0.00    +0.000 C 
ATOM     18  C   UNL     1       2.126   8.327  18.887  0.00  0.00    +0.000 C 
ATOM     19  C   UNL     1       1.536   8.971  20.133  0.00  0.00    +0.000 C 
ATOM     20  O   UNL     1       1.545   8.554  21.277  0.00  0.00    +0.000 OA
BRANCH  15  24
ATOM     21  C   UNL     1      -1.997  12.408  23.102  0.00  0.00    +0.000 C 
ATOM     22  C   UNL     1      -0.891  12.071  22.171  0.00  0.00    +0.000 A 
ATOM     23  C   UNL     1      -0.702  10.889  21.419  0.00  0.00    +0.000 A 
ATOM     24  C   UNL     1       0.425  11.118  20.664  0.00  0.00    +0.000 A 
ATOM     25  N   UNL     1       0.854  12.377  21.006  0.00  0.00    +0.000 N 
ATOM     26  C   UNL     1       2.062  13.055  20.606  0.00  0.00    +0.000 C 
ATOM     27  N   UNL     1       0.086  12.956  21.951  0.00  0.00    +0.000 NA
ENDBRANCH  15  24
ENDBRANCH   1  18
TORSDOF 3
ENDMDL
MODEL 6
REMARK VINA RESULT:      -7.6      2.695      9.213
REMARK  Name = 
REMARK  5 active torsions:
REMARK  status: ('A' for Active; 'I' for Inactive)
REMARK    1  A    between atoms: C_1  and  C_2
REMARK    2  A    between atoms: C_4  and  N_5
REMARK    3  A    between atoms: C_8  and  N_9
REMARK    4  A    between atoms: C_10  and  C_12
REMARK    5  A    between atoms: N_23  and  C_24
REMARK                            x       y       z     vdW  Elec       q    Type
REMARK                         _______ _______ _______ _____ _____    ______ ____
ROOT
ATOM      1  N   UNL     1       1.426   8.002  20.232  0.00  0.00    +0.000 N 
ATOM      2  C   UNL     1       2.259   7.218  19.454  0.00  0.00    +0.000 C 
ATOM      3  O   UNL     1       2.842   7.681  18.485  0.00  0.00    +0.000 OA
ATOM      4  H   UNL     1       1.229   7.695  21.179  0.00  0.00    +0.000 HD
ENDROOT
BRANCH   2   5
ATOM      5  C   UNL     1       2.397   5.789  19.846  0.00  0.00    +0.000 A 
ATOM      6  C   UNL     1       1.349   5.106  20.496  0.00  0.00    +0.000 A 
ATOM      7  C   UNL     1       1.468   3.754  20.814  0.00  0.00    +0.000 A 
ATOM      8  C   UNL     1       2.622   3.040  20.491  0.00  0.00    +0.000 A 
ATOM      9  C   UNL     1       3.654   3.723  19.838  0.00  0.00    +0.000 A 
ATOM     10  N   UNL     1       4.874   3.263  19.395  0.00  0.00    +0.000 N 
ATOM     11  C   UNL     1       5.580   4.275  18.804  0.00  0.00    +0.000 A 
ATOM     12  C   UNL     1       4.803   5.412  18.858  0.00  0.00    +0.000 A 
ATOM     13  C   UNL     1       3.573   5.080  19.506  0.00  0.00    +0.000 A 
ATOM     14  H   UNL     1       5.196   2.308  19.489  0.00  0.00    +0.000 HD
ENDBRANCH   2   5
BRANCH   1  18
ATOM     15  N   UNL     1       0.127  11.316  20.778  0.00  0.00    +0.000 N 
ATOM     16  C   UNL     1      -0.281  11.189  19.380  0.00  0.00    +0.000 C 
ATOM     17  C   UNL     1       0.041   9.732  19.081  0.00  0.00    +0.000 C 
ATOM     18  C   UNL     1       1.292   9.414  19.913  0.00  0.00    +0.000 C 
ATOM     19  C   UNL     1       1.057  10.290  21.136  0.00  0.00    +0.000 C 
ATOM     20  O   UNL     1       1.565  10.202  22.239  0.00  0.00    +0.000 OA
BRANCH  15  24
ATOM     21  C   UNL     1      -0.253  15.745  23.001  0.00  0.00    +0.000 C 
ATOM     22  C   UNL     1      -0.416  14.327  22.595  0.00  0.00    +0.000 A 
ATOM     23  C   UNL     1       0.176  13.649  21.505  0.00  0.00    +0.000 A 
ATOM     24  C   UNL     1      -0.238  12.342  21.626  0.00  0.00    +0.000 A 
ATOM     25  N   UNL     1      -1.048  12.307  22.734  0.00  0.00    +0.000 N 
ATOM     26  C   UNL     1      -1.844  11.213  23.232  0.00  0.00    +0.000 C 
ATOM     27  N   UNL     1      -1.199  13.516  23.314  0.00  0.00    +0.000 NA
ENDBRANCH  15  24
ENDBRANCH   1  18
TORSDOF 3
ENDMDL
MODEL 7
REMARK VINA RESULT:      -7.5      2.525      8.995
REMARK  Name = 
REMARK  5 active torsions:
REMARK  status: ('A' for Active; 'I' for Inactive)
REMARK    1  A    between atoms: C_1  and  C_2
REMARK    2  A    between atoms: C_4  and  N_5
REMARK    3  A    between atoms: C_8  and  N_9
REMARK    4  A    between atoms: C_10  and  C_12
REMARK    5  A    between atoms: N_23  and  C_24
REMARK                            x       y       z     vdW  Elec       q    Type
REMARK                         _______ _______ _______ _____ _____    ______ ____
ROOT
ATOM      1  N   UNL     1       1.758   7.813  19.137  0.00  0.00    +0.000 N 
ATOM      2  C   UNL     1       2.627   7.251  18.218  0.00  0.00    +0.000 C 
ATOM      3  O   UNL     1       3.227   7.942  17.408  0.00  0.00    +0.000 OA
ATOM      4  H   UNL     1       1.542   7.283  19.974  0.00  0.00    +0.000 HD
ENDROOT
BRANCH   2   5
ATOM      5  C   UNL     1       2.783   5.771  18.257  0.00  0.00    +0.000 A 
ATOM      6  C   UNL     1       1.714   4.916  17.923  0.00  0.00    +0.000 A 
ATOM      7  C   UNL     1       1.884   3.532  17.914  0.00  0.00    +0.000 A 
ATOM      8  C   UNL     1       3.116   2.958  18.227  0.00  0.00    +0.000 A 
ATOM      9  C   UNL     1       4.175   3.816  18.549  0.00  0.00    +0.000 A 
ATOM     10  N   UNL     1       5.481   3.521  18.873  0.00  0.00    +0.000 N 
ATOM     11  C   UNL     1       6.183   4.670  19.115  0.00  0.00    +0.000 A 
ATOM     12  C   UNL     1       5.321   5.730  18.938  0.00  0.00    +0.000 A 
ATOM     13  C   UNL     1       4.042   5.209  18.573  0.00  0.00    +0.000 A 
ATOM     14  H   UNL     1       5.863   2.585  18.918  0.00  0.00    +0.000 HD
ENDBRANCH   2   5
BRANCH   1  18
ATOM     15  N   UNL     1       0.166  10.860  20.206  0.00  0.00    +0.000 N 
ATOM     16  C   UNL     1       0.069  11.100  18.768  0.00  0.00    +0.000 C 
ATOM     17  C   UNL     1       0.538   9.773  18.187  0.00  0.00    +0.000 C 
ATOM     18  C   UNL     1       1.605   9.258  19.165  0.00  0.00    +0.000 C 
ATOM     19  C   UNL     1       1.064   9.783  20.487  0.00  0.00    +0.000 C 
ATOM     20  O   UNL     1       1.334   9.413  21.615  0.00  0.00    +0.000 OA
BRANCH  15  24
ATOM     21  C   UNL     1      -2.940  12.528  23.710  0.00  0.00    +0.000 C 
ATOM     22  C   UNL     1      -1.812  12.350  22.762  0.00  0.00    +0.000 A 
ATOM     23  C   UNL     1      -1.545  11.257  21.905  0.00  0.00    +0.000 A 
ATOM     24  C   UNL     1      -0.432  11.627  21.186  0.00  0.00    +0.000 A 
ATOM     25  N   UNL     1      -0.086  12.873  21.646  0.00  0.00    +0.000 N 
ATOM     26  C   UNL     1       1.078  13.660  21.322  0.00  0.00    +0.000 C 
ATOM     27  N   UNL     1      -0.892  13.312  22.634  0.00  0.00    +0.000 NA
ENDBRANCH  15  24
ENDBRANCH   1  18
TORSDOF 3
ENDMDL
MODEL 8
REMARK VINA RESULT:      -7.4      3.022      8.524
REMARK  Name = 
REMARK  5 active torsions:
REMARK  status: ('A' for Active; 'I' for Inactive)
REMARK    1  A    between atoms: C_1  and  C_2
REMARK    2  A    between atoms: C_4  and  N_5
REMARK    3  A    between atoms: C_8  and  N_9
REMARK    4  A    between atoms: C_10  and  C_12
REMARK    5  A    between atoms: N_23  and  C_24
REMARK                            x       y       z     vdW  Elec       q    Type
REMARK                         _______ _______ _______ _____ _____    ______ ____
ROOT
ATOM      1  N   UNL     1       1.948   6.857  19.054  0.00  0.00    +0.000 N 
ATOM      2  C   UNL     1       3.026   6.086  18.655  0.00  0.00    +0.000 C 
ATOM      3  O   UNL     1       4.090   6.598  18.341  0.00  0.00    +0.000 OA
ATOM      4  H   UNL     1       1.221   6.411  19.604  0.00  0.00    +0.000 HD
ENDROOT
BRANCH   2   5
ATOM      5  C   UNL     1       2.819   4.612  18.614  0.00  0.00    +0.000 A 
ATOM      6  C   UNL     1       3.034   3.877  17.432  0.00  0.00    +0.000 A 
ATOM      7  C   UNL     1       2.887   2.491  17.416  0.00  0.00    +0.000 A 
ATOM      8  C   UNL     1       2.532   1.794  18.571  0.00  0.00    +0.000 A 
ATOM      9  C   UNL     1       2.330   2.531  19.744  0.00  0.00    +0.000 A 
ATOM     10  N   UNL     1       1.997   2.100  21.010  0.00  0.00    +0.000 N 
ATOM     11  C   UNL     1       1.902   3.164  21.866  0.00  0.00    +0.000 A 
ATOM     12  C   UNL     1       2.184   4.305  21.147  0.00  0.00    +0.000 A 
ATOM     13  C   UNL     1       2.464   3.923  19.798  0.00  0.00    +0.000 A 
ATOM     14  H   UNL     1       1.851   1.133  21.267  0.00  0.00    +0.000 HD
ENDBRANCH   2   5
BRANCH   1  18
ATOM     15  N   UNL     1       0.741  10.207  19.585  0.00  0.00    +0.000 N 
ATOM     16  C   UNL     1       1.368  10.444  18.287  0.00  0.00    +0.000 C 
ATOM     17  C   UNL     1       1.754   9.037  17.853  0.00  0.00    +0.000 C 
ATOM     18  C   UNL     1       2.114   8.298  19.150  0.00  0.00    +0.000 C 
ATOM     19  C   UNL     1       1.155   8.953  20.134  0.00  0.00    +0.000 C 
ATOM     20  O   UNL     1       0.791   8.544  21.221  0.00  0.00    +0.000 OA
BRANCH  15  24
ATOM     21  C   UNL     1      -1.027  13.411  22.949  0.00  0.00    +0.000 C 
ATOM     22  C   UNL     1      -0.827  12.550  21.757  0.00  0.00    +0.000 A 
ATOM     23  C   UNL     1       0.299  11.768  21.413  0.00  0.00    +0.000 A 
ATOM     24  C   UNL     1      -0.059  11.106  20.262  0.00  0.00    +0.000 A 
ATOM     25  N   UNL     1      -1.333  11.527  19.969  0.00  0.00    +0.000 N 
ATOM     26  C   UNL     1      -2.128  11.242  18.801  0.00  0.00    +0.000 C 
ATOM     27  N   UNL     1      -1.801  12.436  20.848  0.00  0.00    +0.000 NA
ENDBRANCH  15  24
ENDBRANCH   1  18
TORSDOF 3
ENDMDL
MODEL 9
REMARK VINA RESULT:      -7.4      1.115      2.075
REMARK  Name = 
REMARK  5 active torsions:
REMARK  status: ('A' for Active; 'I' for Inactive)
REMARK    1  A    between atoms: C_1  and  C_2
REMARK    2  A    between atoms: C_4  and  N_5
REMARK    3  A    between atoms: C_8  and  N_9
REMARK    4  A    between atoms: C_10  and  C_12
REMARK    5  A    between atoms: N_23  and  C_24
REMARK                            x       y       z     vdW  Elec       q    Type
REMARK                         _______ _______ _______ _____ _____    ______ ____
ROOT
ATOM      1  N   UNL     1       2.357   6.818  18.921  0.00  0.00    +0.000 N 
ATOM      2  C   UNL     1       1.882   7.003  20.207  0.00  0.00    +0.000 C 
ATOM      3  O   UNL     1       2.064   6.165  21.077  0.00  0.00    +0.000 OA
ATOM      4  H   UNL     1       2.479   7.637  18.335  0.00  0.00    +0.000 HD
ENDROOT
BRANCH   2   5
ATOM      5  C   UNL     1       1.132   8.262  20.471  0.00  0.00    +0.000 A 
ATOM      6  C   UNL     1       0.327   8.405  21.619  0.00  0.00    +0.000 A 
ATOM      7  C   UNL     1      -0.331   9.605  21.884  0.00  0.00    +0.000 A 
ATOM      8  C   UNL     1      -0.205  10.697  21.026  0.00  0.00    +0.000 A 
ATOM      9  C   UNL     1       0.604  10.550  19.893  0.00  0.00    +0.000 A 
ATOM     10  N   UNL     1       0.913  11.459  18.906  0.00  0.00    +0.000 N 
ATOM     11  C   UNL     1       1.747  10.894  17.980  0.00  0.00    +0.000 A 
ATOM     12  C   UNL     1       1.990   9.596  18.375  0.00  0.00    +0.000 A 
ATOM     13  C   UNL     1       1.277   9.360  19.591  0.00  0.00    +0.000 A 
ATOM     14  H   UNL     1       0.574  12.412  18.877  0.00  0.00    +0.000 HD
ENDBRANCH   2   5
BRANCH   1  18
ATOM     15  N   UNL     1       4.426   4.766  16.805  0.00  0.00    +0.000 N 
ATOM     16  C   UNL     1       3.401   3.763  17.085  0.00  0.00    +0.000 C 
ATOM     17  C   UNL     1       2.347   4.575  17.823  0.00  0.00    +0.000 C 
ATOM     18  C   UNL     1       3.132   5.624  18.625  0.00  0.00    +0.000 C 
ATOM     19  C   UNL     1       4.307   5.882  17.692  0.00  0.00    +0.000 C 
ATOM     20  O   UNL     1       5.065   6.834  17.676  0.00  0.00    +0.000 OA
BRANCH  15  24
ATOM     21  C   UNL     1       6.990   4.242  12.580  0.00  0.00    +0.000 C 
ATOM     22  C   UNL     1       6.582   4.418  13.996  0.00  0.00    +0.000 A 
ATOM     23  C   UNL     1       5.282   4.598  14.522  0.00  0.00    +0.000 A 
ATOM     24  C   UNL     1       5.448   4.629  15.888  0.00  0.00    +0.000 A 
ATOM     25  N   UNL     1       6.797   4.493  16.104  0.00  0.00    +0.000 N 
ATOM     26  C   UNL     1       7.523   4.590  17.346  0.00  0.00    +0.000 C 
ATOM     27  N   UNL     1       7.507   4.402  14.961  0.00  0.00    +0.000 NA
ENDBRANCH  15  24
ENDBRANCH   1  18
TORSDOF 3
ENDMDL
