MODEL 1
REMARK VINA RESULT:      -8.0      0.000      0.000
REMARK  Name = 
REMARK  3 active torsions:
REMARK  status: ('A' for Active; 'I' for Inactive)
REMARK    1  A    between atoms: C_1  and  C_2
REMARK    2  A    between atoms: C_5  and  C_6
REMARK    3  A    between atoms: C_10  and  C_11
REMARK                            x       y       z     vdW  Elec       q    Type
REMARK                         _______ _______ _______ _____ _____    ______ ____
ROOT
ATOM      1  C   UNL     1       3.899   6.682  17.778  0.00  0.00    +0.000 C 
ATOM      2  O   UNL     1       3.943   7.909  17.870  0.00  0.00    +0.000 OA
ATOM      3  N   UNL     1       2.731   5.920  18.029  0.00  0.00    +0.000 N 
ATOM      4  C   UNL     1       1.584   6.737  18.511  0.00  0.00    +0.000 C 
ATOM      5  C   UNL     1       1.605   6.498  20.015  0.00  0.00    +0.000 C 
ATOM      6  C   UNL     1       2.071   7.632  20.898  0.00  0.00    +0.000 C 
ATOM      7  C   UNL     1       0.649   7.145  20.972  0.00  0.00    +0.000 C 
ATOM      8  C   UNL     1       2.206   5.144  20.152  0.00  0.00    +0.000 A 
ATOM      9  C   UNL     1       2.189   4.229  21.197  0.00  0.00    +0.000 A 
ATOM     10  C   UNL     1       2.754   2.966  20.995  0.00  0.00    +0.000 A 
ATOM     11  C   UNL     1       3.317   2.624  19.758  0.00  0.00    +0.000 A 
ATOM     12  C   UNL     1       3.359   3.550  18.714  0.00  0.00    +0.000 A 
ATOM     13  C   UNL     1       2.822   4.807  18.933  0.00  0.00    +0.000 A 
ENDROOT
BRANCH   1  18
ATOM     14  C   UNL     1       6.452   4.932  15.621  0.00  0.00    +0.000 A 
ATOM     15  C   UNL     1       7.431   4.626  16.582  0.00  0.00    +0.000 A 
ATOM     16  C   UNL     1       7.262   4.982  17.924  0.00  0.00    +0.000 A 
ATOM     17  C   UNL     1       6.113   5.655  18.327  0.00  0.00    +0.000 A 
ATOM     18  C   UNL     1       5.153   6.001  17.380  0.00  0.00    +0.000 A 
ATOM     19  C   UNL     1       5.300   5.615  16.037  0.00  0.00    +0.000 A 
BRANCH  14  24
ATOM     20  C   UNL     1       5.732   2.445  11.559  0.00  0.00    +0.000 C 
ATOM     21  C   UNL     1       6.348   3.455  12.434  0.00  0.00    +0.000 A 
ATOM     22  N   UNL     1       7.232   4.386  12.147  0.00  0.00    +0.000 NA
ATOM     23  N   UNL     1       7.438   5.093  13.312  0.00  0.00    +0.000 NA
ATOM     24  C   UNL     1       6.668   4.545  14.231  0.00  0.00    +0.000 A 
ATOM     25  O   UNL     1       5.944   3.484  13.743  0.00  0.00    +0.000 OA
ENDBRANCH  14  24
ENDBRANCH   1  18
TORSDOF 2
ENDMDL
MODEL 2
REMARK VINA RESULT:      -7.7      1.950      3.212
REMARK  Name = 
REMARK  3 active torsions:
REMARK  status: ('A' for Active; 'I' for Inactive)
REMARK    1  A    between atoms: C_1  and  C_2
REMARK    2  A    between atoms: C_5  and  C_6
REMARK    3  A    between atoms: C_10  and  C_11
REMARK                            x       y       z     vdW  Elec       q    Type
REMARK                         _______ _______ _______ _____ _____    ______ ____
ROOT
ATOM      1  C   UNL     1       4.812   3.788  17.935  0.00  0.00    +0.000 C 
ATOM      2  O   UNL     1       4.526   2.595  18.044  0.00  0.00    +0.000 OA
ATOM      3  N   UNL     1       4.445   4.771  18.886  0.00  0.00    +0.000 N 
ATOM      4  C   UNL     1       3.593   4.241  19.986  0.00  0.00    +0.000 C 
ATOM      5  C   UNL     1       2.192   4.668  19.567  0.00  0.00    +0.000 C 
ATOM      6  C   UNL     1       1.254   3.595  19.066  0.00  0.00    +0.000 C 
ATOM      7  C   UNL     1       0.954   4.332  20.344  0.00  0.00    +0.000 C 
ATOM      8  C   UNL     1       2.420   5.900  18.764  0.00  0.00    +0.000 A 
ATOM      9  C   UNL     1       1.567   6.932  18.398  0.00  0.00    +0.000 A 
ATOM     10  C   UNL     1       2.097   8.037  17.726  0.00  0.00    +0.000 A 
ATOM     11  C   UNL     1       3.467   8.109  17.437  0.00  0.00    +0.000 A 
ATOM     12  C   UNL     1       4.323   7.061  17.781  0.00  0.00    +0.000 A 
ATOM     13  C   UNL     1       3.783   5.959  18.422  0.00  0.00    +0.000 A 
ENDROOT
BRANCH   1  18
ATOM     14  C   UNL     1       5.933   3.934  14.335  0.00  0.00    +0.000 A 
ATOM     15  C   UNL     1       7.047   4.783  14.449  0.00  0.00    +0.000 A 
ATOM     16  C   UNL     1       7.435   5.302  15.689  0.00  0.00    +0.000 A 
ATOM     17  C   UNL     1       6.712   4.985  16.834  0.00  0.00    +0.000 A 
ATOM     18  C   UNL     1       5.583   4.178  16.732  0.00  0.00    +0.000 A 
ATOM     19  C   UNL     1       5.208   3.624  15.495  0.00  0.00    +0.000 A 
BRANCH  14  24
ATOM     20  C   UNL     1       3.286   3.520  10.332  0.00  0.00    +0.000 C 
ATOM     21  C   UNL     1       4.399   3.235  11.252  0.00  0.00    +0.000 A 
ATOM     22  N   UNL     1       5.455   2.471  11.078  0.00  0.00    +0.000 NA
ATOM     23  N   UNL     1       6.207   2.589  12.227  0.00  0.00    +0.000 NA
ATOM     24  C   UNL     1       5.560   3.415  13.023  0.00  0.00    +0.000 A 
ATOM     25  O   UNL     1       4.386   3.866  12.468  0.00  0.00    +0.000 OA
ENDBRANCH  14  24
ENDBRANCH   1  18
TORSDOF 2
ENDMDL
MODEL 3
REMARK VINA RESULT:      -7.6      3.388      7.139
REMARK  Name = 
REMARK  3 active torsions:
REMARK  status: ('A' for Active; 'I' for Inactive)
REMARK    1  A    between atoms: C_1  and  C_2
REMARK    2  A    between atoms: C_5  and  C_6
REMARK    3  A    between atoms: C_10  and  C_11
REMARK                            x       y       z     vdW  Elec       q    Type
REMARK                         _______ _______ _______ _____ _____    ______ ____
ROOT
ATOM      1  C   UNL     1       3.138   7.344  18.825  0.00  0.00    +0.000 C 
ATOM      2  O   UNL     1       3.709   7.895  17.884  0.00  0.00    +0.000 OA
ATOM      3  N   UNL     1       3.556   6.108  19.378  0.00  0.00    +0.000 N 
ATOM      4  C   UNL     1       4.695   5.487  18.646  0.00  0.00    +0.000 C 
ATOM      5  C   UNL     1       4.010   4.437  17.780  0.00  0.00    +0.000 C 
ATOM      6  C   UNL     1       3.920   4.704  16.296  0.00  0.00    +0.000 C 
ATOM      7  C   UNL     1       4.741   3.554  16.814  0.00  0.00    +0.000 C 
ATOM      8  C   UNL     1       2.791   4.076  18.554  0.00  0.00    +0.000 A 
ATOM      9  C   UNL     1       1.952   2.972  18.489  0.00  0.00    +0.000 A 
ATOM     10  C   UNL     1       0.931   2.846  19.436  0.00  0.00    +0.000 A 
ATOM     11  C   UNL     1       0.764   3.810  20.440  0.00  0.00    +0.000 A 
ATOM     12  C   UNL     1       1.590   4.935  20.492  0.00  0.00    +0.000 A 
ATOM     13  C   UNL     1       2.580   5.064  19.533  0.00  0.00    +0.000 A 
ENDROOT
BRANCH   1  18
ATOM     14  C   UNL     1       0.044   9.495  19.003  0.00  0.00    +0.000 A 
ATOM     15  C   UNL     1      -0.214   9.458  20.384  0.00  0.00    +0.000 A 
ATOM     16  C   UNL     1       0.615   8.742  21.254  0.00  0.00    +0.000 A 
ATOM     17  C   UNL     1       1.712   8.046  20.757  0.00  0.00    +0.000 A 
ATOM     18  C   UNL     1       1.958   8.040  19.386  0.00  0.00    +0.000 A 
ATOM     19  C   UNL     1       1.150   8.787  18.511  0.00  0.00    +0.000 A 
BRANCH  14  24
ATOM     20  C   UNL     1      -2.999  10.212  15.338  0.00  0.00    +0.000 C 
ATOM     21  C   UNL     1      -2.195  10.571  16.517  0.00  0.00    +0.000 A 
ATOM     22  N   UNL     1      -2.144  11.704  17.183  0.00  0.00    +0.000 NA
ATOM     23  N   UNL     1      -1.269  11.496  18.229  0.00  0.00    +0.000 NA
ATOM     24  C   UNL     1      -0.846  10.252  18.129  0.00  0.00    +0.000 A 
ATOM     25  O   UNL     1      -1.391   9.598  17.050  0.00  0.00    +0.000 OA
ENDBRANCH  14  24
ENDBRANCH   1  18
TORSDOF 2
ENDMDL
MODEL 4
REMARK VINA RESULT:      -7.6      9.018     10.819
REMARK  Name = 
REMARK  3 active torsions:
REMARK  status: ('A' for Active; 'I' for Inactive)
REMARK    1  A    between atoms: C_1  and  C_2
REMARK    2  A    between atoms: C_5  and  C_6
REMARK    3  A    between atoms: C_10  and  C_11
REMARK                            x       y       z     vdW  Elec       q    Type
REMARK                         _______ _______ _______ _____ _____    ______ ____
ROOT
ATOM      1  C   UNL     1      10.970  13.590  17.904  0.00  0.00    +0.000 C 
ATOM      2  O   UNL     1      12.169  13.542  17.631  0.00  0.00    +0.000 OA
ATOM      3  N   UNL     1      10.103  14.612  17.444  0.00  0.00    +0.000 N 
ATOM      4  C   UNL     1      10.801  15.679  16.676  0.00  0.00    +0.000 C 
ATOM      5  C   UNL     1      10.951  16.794  17.704  0.00  0.00    +0.000 C 
ATOM      6  C   UNL     1      12.333  17.053  18.257  0.00  0.00    +0.000 C 
ATOM      7  C   UNL     1      11.640  18.096  17.421  0.00  0.00    +0.000 C 
ATOM      8  C   UNL     1       9.801  16.588  18.624  0.00  0.00    +0.000 A 
ATOM      9  C   UNL     1       9.186  17.436  19.536  0.00  0.00    +0.000 A 
ATOM     10  C   UNL     1       8.032  16.997  20.191  0.00  0.00    +0.000 A 
ATOM     11  C   UNL     1       7.495  15.730  19.924  0.00  0.00    +0.000 A 
ATOM     12  C   UNL     1       8.125  14.865  19.027  0.00  0.00    +0.000 A 
ATOM     13  C   UNL     1       9.284  15.298  18.405  0.00  0.00    +0.000 A 
ENDROOT
BRANCH   1  18
ATOM     14  C   UNL     1       9.203  10.413  18.915  0.00  0.00    +0.000 A 
ATOM     15  C   UNL     1       9.329  10.485  20.313  0.00  0.00    +0.000 A 
ATOM     16  C   UNL     1       9.980  11.561  20.925  0.00  0.00    +0.000 A 
ATOM     17  C   UNL     1      10.522  12.581  20.149  0.00  0.00    +0.000 A 
ATOM     18  C   UNL     1      10.440  12.504  18.761  0.00  0.00    +0.000 A 
ATOM     19  C   UNL     1       9.756  11.445  18.142  0.00  0.00    +0.000 A 
BRANCH  14  24
ATOM     20  C   UNL     1       7.735   5.842  18.524  0.00  0.00    +0.000 C 
ATOM     21  C   UNL     1       7.862   7.258  18.144  0.00  0.00    +0.000 A 
ATOM     22  N   UNL     1       7.279   7.919  17.167  0.00  0.00    +0.000 NA
ATOM     23  N   UNL     1       7.705   9.226  17.281  0.00  0.00    +0.000 NA
ATOM     24  C   UNL     1       8.518   9.273  18.316  0.00  0.00    +0.000 A 
ATOM     25  O   UNL     1       8.674   8.047  18.917  0.00  0.00    +0.000 OA
ENDBRANCH  14  24
ENDBRANCH   1  18
TORSDOF 2
ENDMDL
MODEL 5
REMARK VINA RESULT:      -7.5      1.065      1.480
REMARK  Name = 
REMARK  3 active torsions:
REMARK  status: ('A' for Active; 'I' for Inactive)
REMARK    1  A    between atoms: C_1  and  C_2
REMARK    2  A    between atoms: C_5  and  C_6
REMARK    3  A    between atoms: C_10  and  C_11
REMARK                            x       y       z     vdW  Elec       q    Type
REMARK                         _______ _______ _______ _____ _____    ______ ____
ROOT
ATOM      1  C   UNL     1       3.710   6.056  17.687  0.00  0.00    +0.000 C 
ATOM      2  O   UNL     1       3.456   7.121  18.250  0.00  0.00    +0.000 OA
ATOM      3  N   UNL     1       2.767   5.010  17.530  0.00  0.00    +0.000 N 
ATOM      4  C   UNL     1       1.466   5.281  18.201  0.00  0.00    +0.000 C 
ATOM      5  C   UNL     1       1.575   4.478  19.491  0.00  0.00    +0.000 C 
ATOM      6  C   UNL     1       1.770   5.246  20.778  0.00  0.00    +0.000 C 
ATOM      7  C   UNL     1       0.510   4.455  20.546  0.00  0.00    +0.000 C 
ATOM      8  C   UNL     1       2.490   3.359  19.139  0.00  0.00    +0.000 A 
ATOM      9  C   UNL     1       2.716   2.129  19.742  0.00  0.00    +0.000 A 
ATOM     10  C   UNL     1       3.567   1.217  19.111  0.00  0.00    +0.000 A 
ATOM     11  C   UNL     1       4.171   1.531  17.886  0.00  0.00    +0.000 A 
ATOM     12  C   UNL     1       3.966   2.777  17.290  0.00  0.00    +0.000 A 
ATOM     13  C   UNL     1       3.144   3.684  17.936  0.00  0.00    +0.000 A 
ENDROOT
BRANCH   1  18
ATOM     14  C   UNL     1       6.516   5.174  15.325  0.00  0.00    +0.000 A 
ATOM     15  C   UNL     1       7.630   5.473  16.128  0.00  0.00    +0.000 A 
ATOM     16  C   UNL     1       7.471   5.955  17.432  0.00  0.00    +0.000 A 
ATOM     17  C   UNL     1       6.195   6.151  17.952  0.00  0.00    +0.000 A 
ATOM     18  C   UNL     1       5.083   5.897  17.154  0.00  0.00    +0.000 A 
ATOM     19  C   UNL     1       5.235   5.379  15.857  0.00  0.00    +0.000 A 
BRANCH  14  24
ATOM     20  C   UNL     1       5.814   2.328  11.502  0.00  0.00    +0.000 C 
ATOM     21  C   UNL     1       6.413   3.426  12.278  0.00  0.00    +0.000 A 
ATOM     22  N   UNL     1       7.266   4.352  11.898  0.00  0.00    +0.000 NA
ATOM     23  N   UNL     1       7.467   5.162  12.996  0.00  0.00    +0.000 NA
ATOM     24  C   UNL     1       6.725   4.675  13.970  0.00  0.00    +0.000 A 
ATOM     25  O   UNL     1       6.025   3.556  13.586  0.00  0.00    +0.000 OA
ENDBRANCH  14  24
ENDBRANCH   1  18
TORSDOF 2
ENDMDL
MODEL 6
REMARK VINA RESULT:      -7.5      3.274      7.925
REMARK  Name = 
REMARK  3 active torsions:
REMARK  status: ('A' for Active; 'I' for Inactive)
REMARK    1  A    between atoms: C_1  and  C_2
REMARK    2  A    between atoms: C_5  and  C_6
REMARK    3  A    between atoms: C_10  and  C_11
REMARK                            x       y       z     vdW  Elec       q    Type
REMARK                         _______ _______ _______ _____ _____    ______ ____
ROOT
ATOM      1  C   UNL     1       3.493   7.252  18.312  0.00  0.00    +0.000 C 
ATOM      2  O   UNL     1       4.217   7.506  17.350  0.00  0.00    +0.000 OA
ATOM      3  N   UNL     1       3.726   6.177  19.205  0.00  0.00    +0.000 N 
ATOM      4  C   UNL     1       4.879   5.321  18.812  0.00  0.00    +0.000 C 
ATOM      5  C   UNL     1       4.205   4.126  18.149  0.00  0.00    +0.000 C 
ATOM      6  C   UNL     1       4.313   4.007  16.647  0.00  0.00    +0.000 C 
ATOM      7  C   UNL     1       4.958   2.981  17.540  0.00  0.00    +0.000 C 
ATOM      8  C   UNL     1       2.876   4.052  18.814  0.00  0.00    +0.000 A 
ATOM      9  C   UNL     1       1.951   3.021  18.912  0.00  0.00    +0.000 A 
ATOM     10  C   UNL     1       0.819   3.206  19.713  0.00  0.00    +0.000 A 
ATOM     11  C   UNL     1       0.628   4.405  20.414  0.00  0.00    +0.000 A 
ATOM     12  C   UNL     1       1.543   5.453  20.298  0.00  0.00    +0.000 A 
ATOM     13  C   UNL     1       2.646   5.270  19.480  0.00  0.00    +0.000 A 
ENDROOT
BRANCH   1  18
ATOM     14  C   UNL     1       0.845   9.276  20.080  0.00  0.00    +0.000 A 
ATOM     15  C   UNL     1       0.084   9.715  18.983  0.00  0.00    +0.000 A 
ATOM     16  C   UNL     1       0.427   9.353  17.676  0.00  0.00    +0.000 A 
ATOM     17  C   UNL     1       1.539   8.550  17.444  0.00  0.00    +0.000 A 
ATOM     18  C   UNL     1       2.325   8.140  18.517  0.00  0.00    +0.000 A 
ATOM     19  C   UNL     1       1.966   8.470  19.835  0.00  0.00    +0.000 A 
BRANCH  14  24
ATOM     20  C   UNL     1      -1.845  11.421  23.452  0.00  0.00    +0.000 C 
ATOM     21  C   UNL     1      -0.734  10.617  22.919  0.00  0.00    +0.000 A 
ATOM     22  N   UNL     1       0.189   9.934  23.561  0.00  0.00    +0.000 NA
ATOM     23  N   UNL     1       0.959   9.325  22.592  0.00  0.00    +0.000 NA
ATOM     24  C   UNL     1       0.455   9.678  21.427  0.00  0.00    +0.000 A 
ATOM     25  O   UNL     1      -0.629  10.513  21.557  0.00  0.00    +0.000 OA
ENDBRANCH  14  24
ENDBRANCH   1  18
TORSDOF 2
ENDMDL
MODEL 7
REMARK VINA RESULT:      -7.4      7.198     11.677
REMARK  Name = 
REMARK  3 active torsions:
REMARK  status: ('A' for Active; 'I' for Inactive)
REMARK    1  A    between atoms: C_1  and  C_2
REMARK    2  A    between atoms: C_5  and  C_6
REMARK    3  A    between atoms: C_10  and  C_11
REMARK                            x       y       z     vdW  Elec       q    Type
REMARK                         _______ _______ _______ _____ _____    ______ ____
ROOT
ATOM      1  C   UNL     1      -0.658  12.946  19.378  0.00  0.00    +0.000 C 
ATOM      2  O   UNL     1      -0.693  13.062  18.153  0.00  0.00    +0.000 OA
ATOM      3  N   UNL     1       0.394  12.298  20.073  0.00  0.00    +0.000 N 
ATOM      4  C   UNL     1       1.408  11.685  19.172  0.00  0.00    +0.000 C 
ATOM      5  C   UNL     1       1.013  10.213  19.169  0.00  0.00    +0.000 C 
ATOM      6  C   UNL     1       0.373   9.663  17.916  0.00  0.00    +0.000 C 
ATOM      7  C   UNL     1       1.722   9.166  18.364  0.00  0.00    +0.000 C 
ATOM      8  C   UNL     1       0.363  10.016  20.493  0.00  0.00    +0.000 A 
ATOM      9  C   UNL     1       0.102   8.868  21.229  0.00  0.00    +0.000 A 
ATOM     10  C   UNL     1      -0.428   9.000  22.517  0.00  0.00    +0.000 A 
ATOM     11  C   UNL     1      -0.679  10.267  23.060  0.00  0.00    +0.000 A 
ATOM     12  C   UNL     1      -0.442  11.423  22.312  0.00  0.00    +0.000 A 
ATOM     13  C   UNL     1       0.057  11.280  21.029  0.00  0.00    +0.000 A 
ENDROOT
BRANCH   1  18
ATOM     14  C   UNL     1      -4.087  13.296  20.913  0.00  0.00    +0.000 A 
ATOM     15  C   UNL     1      -3.997  14.594  21.445  0.00  0.00    +0.000 A 
ATOM     16  C   UNL     1      -2.830  15.353  21.303  0.00  0.00    +0.000 A 
ATOM     17  C   UNL     1      -1.732  14.825  20.631  0.00  0.00    +0.000 A 
ATOM     18  C   UNL     1      -1.792  13.526  20.133  0.00  0.00    +0.000 A 
ATOM     19  C   UNL     1      -2.973  12.772  20.241  0.00  0.00    +0.000 A 
BRANCH  14  24
ATOM     20  C   UNL     1      -7.512  10.108  19.773  0.00  0.00    +0.000 C 
ATOM     21  C   UNL     1      -6.830  11.124  20.589  0.00  0.00    +0.000 A 
ATOM     22  N   UNL     1      -7.120  11.565  21.794  0.00  0.00    +0.000 NA
ATOM     23  N   UNL     1      -6.140  12.479  22.115  0.00  0.00    +0.000 NA
ATOM     24  C   UNL     1      -5.320  12.537  21.085  0.00  0.00    +0.000 A 
ATOM     25  O   UNL     1      -5.703  11.700  20.064  0.00  0.00    +0.000 OA
ENDBRANCH  14  24
ENDBRANCH   1  18
TORSDOF 2
ENDMDL
MODEL 8
REMARK VINA RESULT:      -7.2      1.940      3.129
REMARK  Name = 
REMARK  3 active torsions:
REMARK  status: ('A' for Active; 'I' for Inactive)
REMARK    1  A    between atoms: C_1  and  C_2
REMARK    2  A    between atoms: C_5  and  C_6
REMARK    3  A    between atoms: C_10  and  C_11
REMARK                            x       y       z     vdW  Elec       q    Type
REMARK                         _______ _______ _______ _____ _____    ______ ____
ROOT
ATOM      1  C   UNL     1       4.828   3.944  18.065  0.00  0.00    +0.000 C 
ATOM      2  O   UNL     1       4.567   2.747  18.192  0.00  0.00    +0.000 OA
ATOM      3  N   UNL     1       4.439   4.933  19.001  0.00  0.00    +0.000 N 
ATOM      4  C   UNL     1       3.598   4.402  20.108  0.00  0.00    +0.000 C 
ATOM      5  C   UNL     1       2.188   4.793  19.681  0.00  0.00    +0.000 C 
ATOM      6  C   UNL     1       1.274   3.693  19.196  0.00  0.00    +0.000 C 
ATOM      7  C   UNL     1       0.957   4.443  20.462  0.00  0.00    +0.000 C 
ATOM      8  C   UNL     1       2.391   6.017  18.860  0.00  0.00    +0.000 A 
ATOM      9  C   UNL     1       1.517   7.026  18.477  0.00  0.00    +0.000 A 
ATOM     10  C   UNL     1       2.025   8.131  17.788  0.00  0.00    +0.000 A 
ATOM     11  C   UNL     1       3.393   8.228  17.499  0.00  0.00    +0.000 A 
ATOM     12  C   UNL     1       4.271   7.203  17.860  0.00  0.00    +0.000 A 
ATOM     13  C   UNL     1       3.753   6.100  18.518  0.00  0.00    +0.000 A 
ENDROOT
BRANCH   1  18
ATOM     14  C   UNL     1       5.964   4.044  14.468  0.00  0.00    +0.000 A 
ATOM     15  C   UNL     1       7.049   4.932  14.568  0.00  0.00    +0.000 A 
ATOM     16  C   UNL     1       7.412   5.493  15.797  0.00  0.00    +0.000 A 
ATOM     17  C   UNL     1       6.693   5.179  16.946  0.00  0.00    +0.000 A 
ATOM     18  C   UNL     1       5.592   4.332  16.857  0.00  0.00    +0.000 A 
ATOM     19  C   UNL     1       5.244   3.737  15.632  0.00  0.00    +0.000 A 
BRANCH  14  24
ATOM     20  C   UNL     1       6.295   1.042  10.716  0.00  0.00    +0.000 C 
ATOM     21  C   UNL     1       5.754   2.154  11.513  0.00  0.00    +0.000 A 
ATOM     22  N   UNL     1       4.699   2.908  11.292  0.00  0.00    +0.000 NA
ATOM     23  N   UNL     1       4.610   3.768  12.366  0.00  0.00    +0.000 NA
ATOM     24  C   UNL     1       5.617   3.482  13.168  0.00  0.00    +0.000 A 
ATOM     25  O   UNL     1       6.399   2.461  12.682  0.00  0.00    +0.000 OA
ENDBRANCH  14  24
ENDBRANCH   1  18
TORSDOF 2
ENDMDL
MODEL 9
REMARK VINA RESULT:      -7.2      1.892      3.071
REMARK  Name = 
REMARK  3 active torsions:
REMARK  status: ('A' for Active; 'I' for Inactive)
REMARK    1  A    between atoms: C_1  and  C_2
REMARK    2  A    between atoms: C_5  and  C_6
REMARK    3  A    between atoms: C_10  and  C_11
REMARK                            x       y       z     vdW  Elec       q    Type
REMARK                         _______ _______ _______ _____ _____    ______ ____
ROOT
ATOM      1  C   UNL     1       4.919   3.864  19.485  0.00  0.00    +0.000 C 
ATOM      2  O   UNL     1       5.090   2.649  19.589  0.00  0.00    +0.000 OA
ATOM      3  N   UNL     1       3.804   4.546  20.031  0.00  0.00    +0.000 N 
ATOM      4  C   UNL     1       2.804   3.639  20.660  0.00  0.00    +0.000 C 
ATOM      5  C   UNL     1       1.728   3.523  19.587  0.00  0.00    +0.000 C 
ATOM      6  C   UNL     1       1.626   2.215  18.837  0.00  0.00    +0.000 C 
ATOM      7  C   UNL     1       0.503   2.671  19.730  0.00  0.00    +0.000 C 
ATOM      8  C   UNL     1       1.826   4.809  18.844  0.00  0.00    +0.000 A 
ATOM      9  C   UNL     1       0.932   5.456  18.002  0.00  0.00    +0.000 A 
ATOM     10  C   UNL     1       1.255   6.732  17.530  0.00  0.00    +0.000 A 
ATOM     11  C   UNL     1       2.454   7.352  17.908  0.00  0.00    +0.000 A 
ATOM     12  C   UNL     1       3.367   6.693  18.734  0.00  0.00    +0.000 A 
ATOM     13  C   UNL     1       3.050   5.419  19.174  0.00  0.00    +0.000 A 
ENDROOT
BRANCH   1  18
ATOM     14  C   UNL     1       7.059   5.074  16.624  0.00  0.00    +0.000 A 
ATOM     15  C   UNL     1       7.945   5.924  17.309  0.00  0.00    +0.000 A 
ATOM     16  C   UNL     1       7.850   6.100  18.694  0.00  0.00    +0.000 A 
ATOM     17  C   UNL     1       6.865   5.433  19.416  0.00  0.00    +0.000 A 
ATOM     18  C   UNL     1       5.956   4.619  18.746  0.00  0.00    +0.000 A 
ATOM     19  C   UNL     1       6.067   4.410  17.360  0.00  0.00    +0.000 A 
BRANCH  14  24
ATOM     20  C   UNL     1       6.018   3.351  12.248  0.00  0.00    +0.000 C 
ATOM     21  C   UNL     1       6.728   4.167  13.245  0.00  0.00    +0.000 A 
ATOM     22  N   UNL     1       7.649   5.090  13.070  0.00  0.00    +0.000 NA
ATOM     23  N   UNL     1       7.946   5.578  14.325  0.00  0.00    +0.000 NA
ATOM     24  C   UNL     1       7.190   4.920  15.179  0.00  0.00    +0.000 A 
ATOM     25  O   UNL     1       6.387   3.992  14.560  0.00  0.00    +0.000 OA
ENDBRANCH  14  24
ENDBRANCH   1  18
TORSDOF 2
ENDMDL
