MODEL 1
REMARK VINA RESULT:      -8.3      0.000      0.000
REMARK  Name = 
REMARK  7 active torsions:
REMARK  status: ('A' for Active; 'I' for Inactive)
REMARK    1  A    between atoms: C_1  and  N_2
REMARK    2  A    between atoms: N_2  and  C_3
REMARK    3  A    between atoms: C_3  and  C_4
REMARK    4  A    between atoms: C_4  and  C_5
REMARK    5  A    between atoms: C_5  and  C_6
REMARK    6  A    between atoms: C_10  and  N_11
REMARK    7  A    between atoms: C_16  and  C_17
REMARK                            x       y       z     vdW  Elec       q    Type
REMARK                         _______ _______ _______ _____ _____    ______ ____
ROOT
ATOM      1  C   UNL     1       3.151   3.690  19.505  0.00  0.00    +0.000 A 
ATOM      2  C   UNL     1       2.709   3.142  18.280  0.00  0.00    +0.000 A 
ATOM      3  C   UNL     1       3.588   2.876  17.229  0.00  0.00    +0.000 A 
ATOM      4  C   UNL     1       4.925   3.241  17.338  0.00  0.00    +0.000 A 
ATOM      5  C   UNL     1       5.358   3.926  18.480  0.00  0.00    +0.000 A 
ATOM      6  C   UNL     1       4.530   3.953  19.607  0.00  0.00    +0.000 A 
ENDROOT
BRANCH   5   7
ATOM      7  N   UNL     1       6.354   4.991  18.372  0.00  0.00    +0.000 N 
ATOM      8  C   UNL     1       5.727   6.238  17.852  0.00  0.00    +0.000 C 
ATOM      9  C   UNL     1       5.915   6.073  16.377  0.00  0.00    +0.000 A 
ATOM     10  C   UNL     1       5.021   6.311  15.348  0.00  0.00    +0.000 A 
ATOM     11  C   UNL     1       5.275   5.697  14.114  0.00  0.00    +0.000 A 
ATOM     12  C   UNL     1       6.420   4.884  13.911  0.00  0.00    +0.000 A 
ATOM     13  C   UNL     1       7.343   4.706  14.955  0.00  0.00    +0.000 A 
ATOM     14  C   UNL     1       7.049   5.281  16.177  0.00  0.00    +0.000 A 
ATOM     15  C   UNL     1       7.435   4.725  17.491  0.00  0.00    +0.000 C 
ATOM     16  O   UNL     1       8.396   4.000  17.667  0.00  0.00    +0.000 OA
BRANCH  12  17
ATOM     17  C   UNL     1       6.591   4.083  12.642  0.00  0.00    +0.000 C 
ATOM     18  F   UNL     1       7.456   4.646  11.755  0.00  0.00    +0.000 F 
ATOM     19  F   UNL     1       7.049   2.825  12.877  0.00  0.00    +0.000 F 
ATOM     20  F   UNL     1       5.415   3.936  11.968  0.00  0.00    +0.000 F 
ENDBRANCH  12  17
ENDBRANCH   5   7
BRANCH   1  21
ATOM     21  C   UNL     1       2.101   4.190  20.656  0.00  0.00    +0.000 C 
ATOM     22  C   UNL     1       0.648   3.612  20.542  0.00  0.00    +0.000 C 
ATOM     23  O   UNL     1       0.942   2.580  21.513  0.00  0.00    +0.000 OA
ATOM     24  C   UNL     1       2.125   3.298  21.945  0.00  0.00    +0.000 C 
BRANCH  21  25
ATOM     25  C   UNL     1       2.234   5.715  20.838  0.00  0.00    +0.000 C 
BRANCH  25  26
ATOM     26  C   UNL     1       2.478   6.479  19.528  0.00  0.00    +0.000 C 
BRANCH  26  28
ATOM     27  C   UNL     1       1.395   8.295  20.845  0.00  0.00    +0.000 C 
ATOM     28  N   UNL     1       1.836   7.789  19.562  0.00  0.00    +0.000 N 
ATOM     29  C   UNL     1       1.965   8.594  18.502  0.00  0.00    +0.000 C 
ATOM     30  N   UNL     1       2.303   8.854  17.333  0.00  0.00    +0.000 NA
ATOM     31  C   UNL     1       1.703   9.937  18.202  0.00  0.00    +0.000 C 
ENDBRANCH  26  28
ENDBRANCH  25  26
ENDBRANCH  21  25
ENDBRANCH   1  21
TORSDOF 6
ENDMDL
MODEL 2
REMARK VINA RESULT:      -8.2      4.512      7.753
REMARK  Name = 
REMARK  7 active torsions:
REMARK  status: ('A' for Active; 'I' for Inactive)
REMARK    1  A    between atoms: C_1  and  N_2
REMARK    2  A    between atoms: N_2  and  C_3
REMARK    3  A    between atoms: C_3  and  C_4
REMARK    4  A    between atoms: C_4  and  C_5
REMARK    5  A    between atoms: C_5  and  C_6
REMARK    6  A    between atoms: C_10  and  N_11
REMARK    7  A    between atoms: C_16  and  C_17
REMARK                            x       y       z     vdW  Elec       q    Type
REMARK                         _______ _______ _______ _____ _____    ______ ____
ROOT
ATOM      1  C   UNL     1       2.242   5.480  19.264  0.00  0.00    +0.000 A 
ATOM      2  C   UNL     1       2.298   6.221  18.063  0.00  0.00    +0.000 A 
ATOM      3  C   UNL     1       2.256   7.616  18.052  0.00  0.00    +0.000 A 
ATOM      4  C   UNL     1       2.059   8.311  19.240  0.00  0.00    +0.000 A 
ATOM      5  C   UNL     1       1.845   7.595  20.425  0.00  0.00    +0.000 A 
ATOM      6  C   UNL     1       2.141   6.229  20.452  0.00  0.00    +0.000 A 
ENDROOT
BRANCH   5   7
ATOM      7  N   UNL     1       0.891   8.081  21.421  0.00  0.00    +0.000 N 
ATOM      8  C   UNL     1      -0.454   8.261  20.807  0.00  0.00    +0.000 C 
ATOM      9  C   UNL     1      -0.385   9.685  20.352  0.00  0.00    +0.000 A 
ATOM     10  C   UNL     1      -0.799  10.243  19.155  0.00  0.00    +0.000 A 
ATOM     11  C   UNL     1      -0.259  11.486  18.799  0.00  0.00    +0.000 A 
ATOM     12  C   UNL     1       0.656  12.166  19.643  0.00  0.00    +0.000 A 
ATOM     13  C   UNL     1       1.016  11.605  20.879  0.00  0.00    +0.000 A 
ATOM     14  C   UNL     1       0.509  10.357  21.190  0.00  0.00    +0.000 A 
ATOM     15  C   UNL     1       1.204   9.338  22.002  0.00  0.00    +0.000 C 
ATOM     16  O   UNL     1       2.042   9.595  22.846  0.00  0.00    +0.000 OA
BRANCH  12  17
ATOM     17  C   UNL     1       1.370  13.411  19.172  0.00  0.00    +0.000 C 
ATOM     18  F   UNL     1       2.106  14.018  20.144  0.00  0.00    +0.000 F 
ATOM     19  F   UNL     1       2.226  13.166  18.145  0.00  0.00    +0.000 F 
ATOM     20  F   UNL     1       0.502  14.360  18.720  0.00  0.00    +0.000 F 
ENDBRANCH  12  17
ENDBRANCH   5   7
BRANCH   1  21
ATOM     21  C   UNL     1       2.086   3.852  19.268  0.00  0.00    +0.000 C 
ATOM     22  C   UNL     1       2.624   3.123  20.548  0.00  0.00    +0.000 C 
ATOM     23  O   UNL     1       1.297   3.072  21.122  0.00  0.00    +0.000 OA
ATOM     24  C   UNL     1       0.708   3.364  19.831  0.00  0.00    +0.000 C 
BRANCH  21  25
ATOM     25  C   UNL     1       2.540   3.294  17.905  0.00  0.00    +0.000 C 
BRANCH  25  26
ATOM     26  C   UNL     1       3.976   2.746  17.903  0.00  0.00    +0.000 C 
BRANCH  26  28
ATOM     27  C   UNL     1       4.876   4.237  16.122  0.00  0.00    +0.000 C 
ATOM     28  N   UNL     1       4.926   3.776  17.494  0.00  0.00    +0.000 N 
ATOM     29  C   UNL     1       5.567   4.470  18.439  0.00  0.00    +0.000 C 
ATOM     30  N   UNL     1       5.904   4.708  19.613  0.00  0.00    +0.000 NA
ATOM     31  C   UNL     1       6.364   5.620  18.497  0.00  0.00    +0.000 C 
ENDBRANCH  26  28
ENDBRANCH  25  26
ENDBRANCH  21  25
ENDBRANCH   1  21
TORSDOF 6
ENDMDL
MODEL 3
REMARK VINA RESULT:      -8.2      5.371      8.815
REMARK  Name = 
REMARK  7 active torsions:
REMARK  status: ('A' for Active; 'I' for Inactive)
REMARK    1  A    between atoms: C_1  and  N_2
REMARK    2  A    between atoms: N_2  and  C_3
REMARK    3  A    between atoms: C_3  and  C_4
REMARK    4  A    between atoms: C_4  and  C_5
REMARK    5  A    between atoms: C_5  and  C_6
REMARK    6  A    between atoms: C_10  and  N_11
REMARK    7  A    between atoms: C_16  and  C_17
REMARK                            x       y       z     vdW  Elec       q    Type
REMARK                         _______ _______ _______ _____ _____    ______ ____
ROOT
ATOM      1  C   UNL     1       2.389   7.042  19.358  0.00  0.00    +0.000 A 
ATOM      2  C   UNL     1       2.542   7.483  18.025  0.00  0.00    +0.000 A 
ATOM      3  C   UNL     1       2.140   8.756  17.616  0.00  0.00    +0.000 A 
ATOM      4  C   UNL     1       1.482   9.592  18.510  0.00  0.00    +0.000 A 
ATOM      5  C   UNL     1       1.179   9.121  19.793  0.00  0.00    +0.000 A 
ATOM      6  C   UNL     1       1.806   7.960  20.253  0.00  0.00    +0.000 A 
ENDROOT
BRANCH   5   7
ATOM      7  N   UNL     1      -0.084   9.484  20.435  0.00  0.00    +0.000 N 
ATOM      8  C   UNL     1      -1.011  10.102  19.446  0.00  0.00    +0.000 C 
ATOM      9  C   UNL     1      -0.664  11.552  19.578  0.00  0.00    +0.000 A 
ATOM     10  C   UNL     1      -0.477  12.501  18.589  0.00  0.00    +0.000 A 
ATOM     11  C   UNL     1       0.239  13.657  18.928  0.00  0.00    +0.000 A 
ATOM     12  C   UNL     1       0.731  13.867  20.241  0.00  0.00    +0.000 A 
ATOM     13  C   UNL     1       0.478  12.914  21.242  0.00  0.00    +0.000 A 
ATOM     14  C   UNL     1      -0.188  11.760  20.876  0.00  0.00    +0.000 A 
ATOM     15  C   UNL     1       0.019  10.431  21.488  0.00  0.00    +0.000 C 
ATOM     16  O   UNL     1       0.416  10.260  22.625  0.00  0.00    +0.000 OA
BRANCH  12  17
ATOM     17  C   UNL     1       1.653  15.023  20.551  0.00  0.00    +0.000 C 
ATOM     18  F   UNL     1       2.155  15.631  19.441  0.00  0.00    +0.000 F 
ATOM     19  F   UNL     1       1.043  15.997  21.276  0.00  0.00    +0.000 F 
ATOM     20  F   UNL     1       2.736  14.632  21.280  0.00  0.00    +0.000 F 
ENDBRANCH  12  17
ENDBRANCH   5   7
BRANCH   1  21
ATOM     21  C   UNL     1       2.669   5.490  19.792  0.00  0.00    +0.000 C 
ATOM     22  C   UNL     1       1.936   5.008  21.092  0.00  0.00    +0.000 C 
ATOM     23  O   UNL     1       0.872   4.411  20.315  0.00  0.00    +0.000 OA
ATOM     24  C   UNL     1       1.687   4.472  19.117  0.00  0.00    +0.000 C 
BRANCH  21  25
ATOM     25  C   UNL     1       4.180   5.198  19.693  0.00  0.00    +0.000 C 
BRANCH  25  26
ATOM     26  C   UNL     1       4.511   3.839  19.058  0.00  0.00    +0.000 C 
BRANCH  26  28
ATOM     27  C   UNL     1       4.376   4.132  16.587  0.00  0.00    +0.000 C 
ATOM     28  N   UNL     1       5.191   4.014  17.779  0.00  0.00    +0.000 N 
ATOM     29  C   UNL     1       6.478   4.378  17.780  0.00  0.00    +0.000 C 
ATOM     30  N   UNL     1       7.573   4.604  18.328  0.00  0.00    +0.000 NA
ATOM     31  C   UNL     1       7.413   4.830  16.840  0.00  0.00    +0.000 C 
ENDBRANCH  26  28
ENDBRANCH  25  26
ENDBRANCH  21  25
ENDBRANCH   1  21
TORSDOF 6
ENDMDL
MODEL 4
REMARK VINA RESULT:      -8.1      5.353      8.702
REMARK  Name = 
REMARK  7 active torsions:
REMARK  status: ('A' for Active; 'I' for Inactive)
REMARK    1  A    between atoms: C_1  and  N_2
REMARK    2  A    between atoms: N_2  and  C_3
REMARK    3  A    between atoms: C_3  and  C_4
REMARK    4  A    between atoms: C_4  and  C_5
REMARK    5  A    between atoms: C_5  and  C_6
REMARK    6  A    between atoms: C_10  and  N_11
REMARK    7  A    between atoms: C_16  and  C_17
REMARK                            x       y       z     vdW  Elec       q    Type
REMARK                         _______ _______ _______ _____ _____    ______ ____
ROOT
ATOM      1  C   UNL     1       2.374   6.935  19.354  0.00  0.00    +0.000 A 
ATOM      2  C   UNL     1       2.552   7.386  18.027  0.00  0.00    +0.000 A 
ATOM      3  C   UNL     1       2.190   8.674  17.629  0.00  0.00    +0.000 A 
ATOM      4  C   UNL     1       1.549   9.520  18.527  0.00  0.00    +0.000 A 
ATOM      5  C   UNL     1       1.221   9.044  19.802  0.00  0.00    +0.000 A 
ATOM      6  C   UNL     1       1.810   7.859  20.254  0.00  0.00    +0.000 A 
ENDROOT
BRANCH   5   7
ATOM      7  N   UNL     1      -0.036   9.437  20.438  0.00  0.00    +0.000 N 
ATOM      8  C   UNL     1      -0.928  10.110  19.453  0.00  0.00    +0.000 C 
ATOM      9  C   UNL     1      -0.531  11.543  19.623  0.00  0.00    +0.000 A 
ATOM     10  C   UNL     1      -0.299  12.508  18.659  0.00  0.00    +0.000 A 
ATOM     11  C   UNL     1       0.454  13.629  19.034  0.00  0.00    +0.000 A 
ATOM     12  C   UNL     1       0.936  13.791  20.358  0.00  0.00    +0.000 A 
ATOM     13  C   UNL     1       0.637  12.824  21.333  0.00  0.00    +0.000 A 
ATOM     14  C   UNL     1      -0.064  11.703  20.931  0.00  0.00    +0.000 A 
ATOM     15  C   UNL     1       0.087  10.354  21.514  0.00  0.00    +0.000 C 
ATOM     16  O   UNL     1       0.464  10.142  22.652  0.00  0.00    +0.000 OA
BRANCH  12  17
ATOM     17  C   UNL     1       1.895  14.905  20.706  0.00  0.00    +0.000 C 
ATOM     18  F   UNL     1       2.100  15.049  22.044  0.00  0.00    +0.000 F 
ATOM     19  F   UNL     1       3.122  14.732  20.148  0.00  0.00    +0.000 F 
ATOM     20  F   UNL     1       1.450  16.117  20.270  0.00  0.00    +0.000 F 
ENDBRANCH  12  17
ENDBRANCH   5   7
BRANCH   1  21
ATOM     21  C   UNL     1       2.604   5.370  19.772  0.00  0.00    +0.000 C 
ATOM     22  C   UNL     1       1.726   4.852  20.963  0.00  0.00    +0.000 C 
ATOM     23  O   UNL     1       0.760   4.279  20.050  0.00  0.00    +0.000 OA
ATOM     24  C   UNL     1       1.709   4.374  18.959  0.00  0.00    +0.000 C 
BRANCH  21  25
ATOM     25  C   UNL     1       4.116   5.079  19.842  0.00  0.00    +0.000 C 
BRANCH  25  26
ATOM     26  C   UNL     1       4.676   4.388  18.588  0.00  0.00    +0.000 C 
BRANCH  26  28
ATOM     27  C   UNL     1       5.592   5.798  16.750  0.00  0.00    +0.000 C 
ATOM     28  N   UNL     1       5.789   5.147  18.029  0.00  0.00    +0.000 N 
ATOM     29  C   UNL     1       6.806   5.480  18.830  0.00  0.00    +0.000 C 
ATOM     30  N   UNL     1       7.448   5.435  19.896  0.00  0.00    +0.000 NA
ATOM     31  C   UNL     1       7.919   6.328  18.769  0.00  0.00    +0.000 C 
ENDBRANCH  26  28
ENDBRANCH  25  26
ENDBRANCH  21  25
ENDBRANCH   1  21
TORSDOF 6
ENDMDL
MODEL 5
REMARK VINA RESULT:      -7.9      4.176      7.321
REMARK  Name = 
REMARK  7 active torsions:
REMARK  status: ('A' for Active; 'I' for Inactive)
REMARK    1  A    between atoms: C_1  and  N_2
REMARK    2  A    between atoms: N_2  and  C_3
REMARK    3  A    between atoms: C_3  and  C_4
REMARK    4  A    between atoms: C_4  and  C_5
REMARK    5  A    between atoms: C_5  and  C_6
REMARK    6  A    between atoms: C_10  and  N_11
REMARK    7  A    between atoms: C_16  and  C_17
REMARK                            x       y       z     vdW  Elec       q    Type
REMARK                         _______ _______ _______ _____ _____    ______ ____
ROOT
ATOM      1  C   UNL     1       2.425   4.371  18.822  0.00  0.00    +0.000 A 
ATOM      2  C   UNL     1       1.901   3.959  20.068  0.00  0.00    +0.000 A 
ATOM      3  C   UNL     1       1.232   4.842  20.917  0.00  0.00    +0.000 A 
ATOM      4  C   UNL     1       1.153   6.190  20.589  0.00  0.00    +0.000 A 
ATOM      5  C   UNL     1       1.799   6.653  19.436  0.00  0.00    +0.000 A 
ATOM      6  C   UNL     1       2.236   5.725  18.486  0.00  0.00    +0.000 A 
ENDROOT
BRANCH   5   7
ATOM      7  N   UNL     1       2.459   7.958  19.431  0.00  0.00    +0.000 N 
ATOM      8  C   UNL     1       1.971   8.791  20.566  0.00  0.00    +0.000 C 
ATOM      9  C   UNL     1       0.816   9.505  19.935  0.00  0.00    +0.000 A 
ATOM     10  C   UNL     1      -0.449   9.744  20.442  0.00  0.00    +0.000 A 
ATOM     11  C   UNL     1      -1.465  10.050  19.528  0.00  0.00    +0.000 A 
ATOM     12  C   UNL     1      -1.209  10.144  18.136  0.00  0.00    +0.000 A 
ATOM     13  C   UNL     1       0.096   9.954  17.653  0.00  0.00    +0.000 A 
ATOM     14  C   UNL     1       1.074   9.605  18.565  0.00  0.00    +0.000 A 
ATOM     15  C   UNL     1       2.240   8.747  18.272  0.00  0.00    +0.000 C 
ATOM     16  O   UNL     1       2.732   8.621  17.165  0.00  0.00    +0.000 OA
BRANCH  12  17
ATOM     17  C   UNL     1      -2.339  10.294  17.145  0.00  0.00    +0.000 C 
ATOM     18  F   UNL     1      -2.392  11.522  16.561  0.00  0.00    +0.000 F 
ATOM     19  F   UNL     1      -2.267   9.392  16.131  0.00  0.00    +0.000 F 
ATOM     20  F   UNL     1      -3.558  10.110  17.727  0.00  0.00    +0.000 F 
ENDBRANCH  12  17
ENDBRANCH   5   7
BRANCH   1  21
ATOM     21  C   UNL     1       3.381   3.395  17.922  0.00  0.00    +0.000 C 
ATOM     22  C   UNL     1       4.208   2.331  18.725  0.00  0.00    +0.000 C 
ATOM     23  O   UNL     1       3.220   1.308  18.461  0.00  0.00    +0.000 OA
ATOM     24  C   UNL     1       2.642   2.114  17.403  0.00  0.00    +0.000 C 
BRANCH  21  25
ATOM     25  C   UNL     1       4.149   4.244  16.892  0.00  0.00    +0.000 C 
BRANCH  25  26
ATOM     26  C   UNL     1       5.462   3.605  16.413  0.00  0.00    +0.000 C 
BRANCH  26  28
ATOM     27  C   UNL     1       7.150   5.199  15.509  0.00  0.00    +0.000 C 
ATOM     28  N   UNL     1       6.592   4.498  16.647  0.00  0.00    +0.000 N 
ATOM     29  C   UNL     1       6.859   4.881  17.900  0.00  0.00    +0.000 C 
ATOM     30  N   UNL     1       6.712   4.837  19.135  0.00  0.00    +0.000 NA
ATOM     31  C   UNL     1       7.673   5.834  18.525  0.00  0.00    +0.000 C 
ENDBRANCH  26  28
ENDBRANCH  25  26
ENDBRANCH  21  25
ENDBRANCH   1  21
TORSDOF 6
ENDMDL
MODEL 6
REMARK VINA RESULT:      -7.9      5.303      8.668
REMARK  Name = 
REMARK  7 active torsions:
REMARK  status: ('A' for Active; 'I' for Inactive)
REMARK    1  A    between atoms: C_1  and  N_2
REMARK    2  A    between atoms: N_2  and  C_3
REMARK    3  A    between atoms: C_3  and  C_4
REMARK    4  A    between atoms: C_4  and  C_5
REMARK    5  A    between atoms: C_5  and  C_6
REMARK    6  A    between atoms: C_10  and  N_11
REMARK    7  A    between atoms: C_16  and  C_17
REMARK                            x       y       z     vdW  Elec       q    Type
REMARK                         _______ _______ _______ _____ _____    ______ ____
ROOT
ATOM      1  C   UNL     1       2.429   6.913  19.350  0.00  0.00    +0.000 A 
ATOM      2  C   UNL     1       2.561   7.336  18.009  0.00  0.00    +0.000 A 
ATOM      3  C   UNL     1       2.172   8.610  17.593  0.00  0.00    +0.000 A 
ATOM      4  C   UNL     1       1.548   9.469  18.491  0.00  0.00    +0.000 A 
ATOM      5  C   UNL     1       1.265   9.019  19.786  0.00  0.00    +0.000 A 
ATOM      6  C   UNL     1       1.882   7.851  20.246  0.00  0.00    +0.000 A 
ENDROOT
BRANCH   5   7
ATOM      7  N   UNL     1       0.024   9.412  20.451  0.00  0.00    +0.000 N 
ATOM      8  C   UNL     1      -0.926  10.007  19.469  0.00  0.00    +0.000 C 
ATOM      9  C   UNL     1      -0.564  11.457  19.548  0.00  0.00    +0.000 A 
ATOM     10  C   UNL     1      -0.397  12.375  18.526  0.00  0.00    +0.000 A 
ATOM     11  C   UNL     1       0.337  13.534  18.811  0.00  0.00    +0.000 A 
ATOM     12  C   UNL     1       0.867  13.779  20.103  0.00  0.00    +0.000 A 
ATOM     13  C   UNL     1       0.634  12.859  21.139  0.00  0.00    +0.000 A 
ATOM     14  C   UNL     1      -0.050  11.700  20.826  0.00  0.00    +0.000 A 
ATOM     15  C   UNL     1       0.162  10.388  21.472  0.00  0.00    +0.000 C 
ATOM     16  O   UNL     1       0.590  10.248  22.602  0.00  0.00    +0.000 OA
BRANCH  12  17
ATOM     17  C   UNL     1       1.806  14.936  20.353  0.00  0.00    +0.000 C 
ATOM     18  F   UNL     1       2.996  14.563  20.897  0.00  0.00    +0.000 F 
ATOM     19  F   UNL     1       2.103  15.621  19.218  0.00  0.00    +0.000 F 
ATOM     20  F   UNL     1       1.276  15.848  21.216  0.00  0.00    +0.000 F 
ENDBRANCH  12  17
ENDBRANCH   5   7
BRANCH   1  21
ATOM     21  C   UNL     1       2.692   5.361  19.796  0.00  0.00    +0.000 C 
ATOM     22  C   UNL     1       1.918   4.885  21.075  0.00  0.00    +0.000 C 
ATOM     23  O   UNL     1       0.876   4.289  20.267  0.00  0.00    +0.000 OA
ATOM     24  C   UNL     1       1.727   4.345  19.095  0.00  0.00    +0.000 C 
BRANCH  21  25
ATOM     25  C   UNL     1       4.204   5.066  19.745  0.00  0.00    +0.000 C 
BRANCH  25  26
ATOM     26  C   UNL     1       4.629   4.206  18.545  0.00  0.00    +0.000 C 
BRANCH  26  28
ATOM     27  C   UNL     1       6.705   5.583  18.597  0.00  0.00    +0.000 C 
ATOM     28  N   UNL     1       5.739   4.826  17.828  0.00  0.00    +0.000 N 
ATOM     29  C   UNL     1       6.005   4.419  16.583  0.00  0.00    +0.000 C 
ATOM     30  N   UNL     1       5.761   3.785  15.540  0.00  0.00    +0.000 NA
ATOM     31  C   UNL     1       7.041   4.584  15.654  0.00  0.00    +0.000 C 
ENDBRANCH  26  28
ENDBRANCH  25  26
ENDBRANCH  21  25
ENDBRANCH   1  21
TORSDOF 6
ENDMDL
MODEL 7
REMARK VINA RESULT:      -7.8      0.544      1.326
REMARK  Name = 
REMARK  7 active torsions:
REMARK  status: ('A' for Active; 'I' for Inactive)
REMARK    1  A    between atoms: C_1  and  N_2
REMARK    2  A    between atoms: N_2  and  C_3
REMARK    3  A    between atoms: C_3  and  C_4
REMARK    4  A    between atoms: C_4  and  C_5
REMARK    5  A    between atoms: C_5  and  C_6
REMARK    6  A    between atoms: C_10  and  N_11
REMARK    7  A    between atoms: C_16  and  C_17
REMARK                            x       y       z     vdW  Elec       q    Type
REMARK                         _______ _______ _______ _____ _____    ______ ____
ROOT
ATOM      1  C   UNL     1       3.195   3.775  19.459  0.00  0.00    +0.000 A 
ATOM      2  C   UNL     1       2.824   3.098  18.275  0.00  0.00    +0.000 A 
ATOM      3  C   UNL     1       3.761   2.735  17.307  0.00  0.00    +0.000 A 
ATOM      4  C   UNL     1       5.088   3.126  17.449  0.00  0.00    +0.000 A 
ATOM      5  C   UNL     1       5.453   3.931  18.535  0.00  0.00    +0.000 A 
ATOM      6  C   UNL     1       4.565   4.064  19.606  0.00  0.00    +0.000 A 
ENDROOT
BRANCH   5   7
ATOM      7  N   UNL     1       6.447   4.991  18.370  0.00  0.00    +0.000 N 
ATOM      8  C   UNL     1       5.803   6.231  17.853  0.00  0.00    +0.000 C 
ATOM      9  C   UNL     1       5.934   6.039  16.374  0.00  0.00    +0.000 A 
ATOM     10  C   UNL     1       5.002   6.262  15.376  0.00  0.00    +0.000 A 
ATOM     11  C   UNL     1       5.208   5.625  14.145  0.00  0.00    +0.000 A 
ATOM     12  C   UNL     1       6.343   4.806  13.913  0.00  0.00    +0.000 A 
ATOM     13  C   UNL     1       7.304   4.643  14.924  0.00  0.00    +0.000 A 
ATOM     14  C   UNL     1       7.058   5.240  16.146  0.00  0.00    +0.000 A 
ATOM     15  C   UNL     1       7.493   4.707  17.453  0.00  0.00    +0.000 C 
ATOM     16  O   UNL     1       8.458   3.982  17.606  0.00  0.00    +0.000 OA
BRANCH  12  17
ATOM     17  C   UNL     1       6.463   3.982  12.653  0.00  0.00    +0.000 C 
ATOM     18  F   UNL     1       6.787   2.680  12.882  0.00  0.00    +0.000 F 
ATOM     19  F   UNL     1       5.314   3.966  11.928  0.00  0.00    +0.000 F 
ATOM     20  F   UNL     1       7.429   4.460  11.818  0.00  0.00    +0.000 F 
ENDBRANCH  12  17
ENDBRANCH   5   7
BRANCH   1  21
ATOM     21  C   UNL     1       2.080   4.379  20.493  0.00  0.00    +0.000 C 
ATOM     22  C   UNL     1       0.637   3.780  20.357  0.00  0.00    +0.000 C 
ATOM     23  O   UNL     1       0.879   2.853  21.442  0.00  0.00    +0.000 OA
ATOM     24  C   UNL     1       2.034   3.621  21.864  0.00  0.00    +0.000 C 
BRANCH  21  25
ATOM     25  C   UNL     1       2.198   5.915  20.528  0.00  0.00    +0.000 C 
BRANCH  25  26
ATOM     26  C   UNL     1       2.238   6.568  19.138  0.00  0.00    +0.000 C 
BRANCH  26  28
ATOM     27  C   UNL     1       2.240   8.805  18.041  0.00  0.00    +0.000 C 
ATOM     28  N   UNL     1       2.032   8.009  19.233  0.00  0.00    +0.000 N 
ATOM     29  C   UNL     1       1.365   8.495  20.286  0.00  0.00    +0.000 C 
ATOM     30  N   UNL     1       0.822   8.401  21.402  0.00  0.00    +0.000 NA
ATOM     31  C   UNL     1       0.795   9.718  20.658  0.00  0.00    +0.000 C 
ENDBRANCH  26  28
ENDBRANCH  25  26
ENDBRANCH  21  25
ENDBRANCH   1  21
TORSDOF 6
ENDMDL
MODEL 8
REMARK VINA RESULT:      -7.8      4.852      8.065
REMARK  Name = 
REMARK  7 active torsions:
REMARK  status: ('A' for Active; 'I' for Inactive)
REMARK    1  A    between atoms: C_1  and  N_2
REMARK    2  A    between atoms: N_2  and  C_3
REMARK    3  A    between atoms: C_3  and  C_4
REMARK    4  A    between atoms: C_4  and  C_5
REMARK    5  A    between atoms: C_5  and  C_6
REMARK    6  A    between atoms: C_10  and  N_11
REMARK    7  A    between atoms: C_16  and  C_17
REMARK                            x       y       z     vdW  Elec       q    Type
REMARK                         _______ _______ _______ _____ _____    ______ ____
ROOT
ATOM      1  C   UNL     1       2.383   6.131  19.103  0.00  0.00    +0.000 A 
ATOM      2  C   UNL     1       2.502   6.673  17.804  0.00  0.00    +0.000 A 
ATOM      3  C   UNL     1       2.320   8.034  17.551  0.00  0.00    +0.000 A 
ATOM      4  C   UNL     1       1.917   8.879  18.579  0.00  0.00    +0.000 A 
ATOM      5  C   UNL     1       1.642   8.340  19.841  0.00  0.00    +0.000 A 
ATOM      6  C   UNL     1       2.069   7.041  20.130  0.00  0.00    +0.000 A 
ENDROOT
BRANCH   5   7
ATOM      7  N   UNL     1       0.535   8.861  20.642  0.00  0.00    +0.000 N 
ATOM      8  C   UNL     1      -0.491   9.490  19.764  0.00  0.00    +0.000 C 
ATOM      9  C   UNL     1      -0.014  10.908  19.717  0.00  0.00    +0.000 A 
ATOM     10  C   UNL     1       0.081  11.765  18.635  0.00  0.00    +0.000 A 
ATOM     11  C   UNL     1       0.932  12.871  18.758  0.00  0.00    +0.000 A 
ATOM     12  C   UNL     1       1.649  13.127  19.955  0.00  0.00    +0.000 A 
ATOM     13  C   UNL     1       1.490  12.273  21.059  0.00  0.00    +0.000 A 
ATOM     14  C   UNL     1       0.684  11.161  20.901  0.00  0.00    +0.000 A 
ATOM     15  C   UNL     1       0.883   9.866  21.582  0.00  0.00    +0.000 C 
ATOM     16  O   UNL     1       1.448   9.739  22.653  0.00  0.00    +0.000 OA
BRANCH  12  17
ATOM     17  C   UNL     1       2.697  14.212  20.017  0.00  0.00    +0.000 C 
ATOM     18  F   UNL     1       3.395  14.362  18.858  0.00  0.00    +0.000 F 
ATOM     19  F   UNL     1       2.170  15.431  20.305  0.00  0.00    +0.000 F 
ATOM     20  F   UNL     1       3.630  13.968  20.981  0.00  0.00    +0.000 F 
ENDBRANCH  12  17
ENDBRANCH   5   7
BRANCH   1  21
ATOM     21  C   UNL     1       2.393   4.516  19.369  0.00  0.00    +0.000 C 
ATOM     22  C   UNL     1       2.409   4.079  20.874  0.00  0.00    +0.000 C 
ATOM     23  O   UNL     1       0.975   3.889  20.873  0.00  0.00    +0.000 OA
ATOM     24  C   UNL     1       0.958   3.890  19.424  0.00  0.00    +0.000 C 
BRANCH  21  25
ATOM     25  C   UNL     1       3.428   3.854  18.438  0.00  0.00    +0.000 C 
BRANCH  25  26
ATOM     26  C   UNL     1       4.833   3.742  19.050  0.00  0.00    +0.000 C 
BRANCH  26  28
ATOM     27  C   UNL     1       5.511   4.754  16.876  0.00  0.00    +0.000 C 
ATOM     28  N   UNL     1       5.801   4.511  18.275  0.00  0.00    +0.000 N 
ATOM     29  C   UNL     1       6.727   5.220  18.927  0.00  0.00    +0.000 C 
ATOM     30  N   UNL     1       7.348   5.575  19.946  0.00  0.00    +0.000 NA
ATOM     31  C   UNL     1       7.670   6.206  18.609  0.00  0.00    +0.000 C 
ENDBRANCH  26  28
ENDBRANCH  25  26
ENDBRANCH  21  25
ENDBRANCH   1  21
TORSDOF 6
ENDMDL
MODEL 9
REMARK VINA RESULT:      -7.8      4.129      6.184
REMARK  Name = 
REMARK  7 active torsions:
REMARK  status: ('A' for Active; 'I' for Inactive)
REMARK    1  A    between atoms: C_1  and  N_2
REMARK    2  A    between atoms: N_2  and  C_3
REMARK    3  A    between atoms: C_3  and  C_4
REMARK    4  A    between atoms: C_4  and  C_5
REMARK    5  A    between atoms: C_5  and  C_6
REMARK    6  A    between atoms: C_10  and  N_11
REMARK    7  A    between atoms: C_16  and  C_17
REMARK                            x       y       z     vdW  Elec       q    Type
REMARK                         _______ _______ _______ _____ _____    ______ ____
ROOT
ATOM      1  C   UNL     1       0.892   9.402  20.308  0.00  0.00    +0.000 A 
ATOM      2  C   UNL     1       0.530   8.540  21.367  0.00  0.00    +0.000 A 
ATOM      3  C   UNL     1       1.026   7.239  21.464  0.00  0.00    +0.000 A 
ATOM      4  C   UNL     1       1.826   6.727  20.448  0.00  0.00    +0.000 A 
ATOM      5  C   UNL     1       2.073   7.507  19.312  0.00  0.00    +0.000 A 
ATOM      6  C   UNL     1       1.783   8.874  19.354  0.00  0.00    +0.000 A 
ENDROOT
BRANCH   5   7
ATOM      7  N   UNL     1       2.134   6.889  17.989  0.00  0.00    +0.000 N 
ATOM      8  C   UNL     1       2.068   5.405  18.106  0.00  0.00    +0.000 C 
ATOM      9  C   UNL     1       3.518   5.049  18.208  0.00  0.00    +0.000 A 
ATOM     10  C   UNL     1       4.142   4.150  19.054  0.00  0.00    +0.000 A 
ATOM     11  C   UNL     1       5.521   4.296  19.251  0.00  0.00    +0.000 A 
ATOM     12  C   UNL     1       6.263   5.306  18.587  0.00  0.00    +0.000 A 
ATOM     13  C   UNL     1       5.616   6.170  17.688  0.00  0.00    +0.000 A 
ATOM     14  C   UNL     1       4.247   6.041  17.545  0.00  0.00    +0.000 A 
ATOM     15  C   UNL     1       3.317   7.149  17.248  0.00  0.00    +0.000 C 
ATOM     16  O   UNL     1       3.635   8.167  16.662  0.00  0.00    +0.000 OA
BRANCH  12  17
ATOM     17  C   UNL     1       7.707   5.571  18.941  0.00  0.00    +0.000 C 
ATOM     18  F   UNL     1       8.569   4.642  18.445  0.00  0.00    +0.000 F 
ATOM     19  F   UNL     1       8.144   6.776  18.488  0.00  0.00    +0.000 F 
ATOM     20  F   UNL     1       7.910   5.580  20.289  0.00  0.00    +0.000 F 
ENDBRANCH  12  17
ENDBRANCH   5   7
BRANCH   1  21
ATOM     21  C   UNL     1       0.159  10.847  20.082  0.00  0.00    +0.000 C 
ATOM     22  C   UNL     1      -0.778  11.319  21.247  0.00  0.00    +0.000 C 
ATOM     23  O   UNL     1       0.272  12.143  21.807  0.00  0.00    +0.000 OA
ATOM     24  C   UNL     1       1.021  12.061  20.569  0.00  0.00    +0.000 C 
BRANCH  21  25
ATOM     25  C   UNL     1      -0.419  10.906  18.654  0.00  0.00    +0.000 C 
BRANCH  25  26
ATOM     26  C   UNL     1      -1.350  12.104  18.409  0.00  0.00    +0.000 C 
BRANCH  26  28
ATOM     27  C   UNL     1      -3.765  12.013  19.017  0.00  0.00    +0.000 C 
ATOM     28  N   UNL     1      -2.704  11.656  18.097  0.00  0.00    +0.000 N 
ATOM     29  C   UNL     1      -2.970  11.232  16.858  0.00  0.00    +0.000 C 
ATOM     30  N   UNL     1      -2.654  10.892  15.703  0.00  0.00    +0.000 NA
ATOM     31  C   UNL     1      -4.111  10.922  16.108  0.00  0.00    +0.000 C 
ENDBRANCH  26  28
ENDBRANCH  25  26
ENDBRANCH  21  25
ENDBRANCH   1  21
TORSDOF 6
ENDMDL
