MODEL 1
REMARK VINA RESULT:      -9.8      0.000      0.000
REMARK  Name = 
REMARK  5 active torsions:
REMARK  status: ('A' for Active; 'I' for Inactive)
REMARK    1  A    between atoms: C_2  and  C_3
REMARK    2  A    between atoms: C_3  and  C_4
REMARK    3  A    between atoms: C_4  and  N_5
REMARK    4  A    between atoms: C_6  and  C_8
REMARK    5  A    between atoms: C_16  and  C_17
REMARK                            x       y       z     vdW  Elec       q    Type
REMARK                         _______ _______ _______ _____ _____    ______ ____
ROOT
ATOM      1  O   UNL     1       8.379   4.091  17.780  0.00  0.00    +0.000 OA
ATOM      2  C   UNL     1       7.359   4.668  18.163  0.00  0.00    +0.000 C 
ATOM      3  N   UNL     1       6.248   3.922  18.433  0.00  0.00    +0.000 N 
ATOM      4  C   UNL     1       5.047   4.427  18.833  0.00  0.00    +0.000 A 
ATOM      5  N   UNL     1       4.621   5.659  18.760  0.00  0.00    +0.000 NA
ATOM      6  C   UNL     1       3.352   5.757  19.306  0.00  0.00    +0.000 A 
ATOM      7  C   UNL     1       2.889   4.577  19.863  0.00  0.00    +0.000 A 
ATOM      8  S   UNL     1       3.992   3.296  19.540  0.00  0.00    +0.000 S 
ATOM      9  H   UNL     1       6.352   2.920  18.388  0.00  0.00    +0.000 HD
ENDROOT
BRANCH   6  10
ATOM     10  C   UNL     1       2.610   7.016  19.255  0.00  0.00    +0.000 A 
ATOM     11  C   UNL     1       2.532   7.738  18.055  0.00  0.00    +0.000 A 
ATOM     12  C   UNL     1       1.771   8.910  17.966  0.00  0.00    +0.000 A 
ATOM     13  C   UNL     1       1.063   9.387  19.078  0.00  0.00    +0.000 A 
ATOM     14  C   UNL     1       0.273  10.547  19.017  0.00  0.00    +0.000 A 
ATOM     15  C   UNL     1      -0.427  10.994  20.140  0.00  0.00    +0.000 A 
ATOM     16  C   UNL     1      -0.342  10.293  21.340  0.00  0.00    +0.000 A 
ATOM     17  C   UNL     1       0.438   9.141  21.416  0.00  0.00    +0.000 A 
ATOM     18  C   UNL     1       1.143   8.677  20.297  0.00  0.00    +0.000 A 
ATOM     19  C   UNL     1       1.912   7.506  20.368  0.00  0.00    +0.000 A 
ENDBRANCH   6  10
BRANCH   2  20
ATOM     20  C   UNL     1       7.325   6.163  18.424  0.00  0.00    +0.000 C 
BRANCH  20  21
ATOM     21  C   UNL     1       7.389   6.975  17.142  0.00  0.00    +0.000 C 
BRANCH  21  22
ATOM     22  N   UNL     1       7.366   6.112  15.977  0.00  0.00    +0.000 N 
ATOM     23  C   UNL     1       6.205   5.812  15.297  0.00  0.00    +0.000 C 
ATOM     24  O   UNL     1       5.104   6.225  15.655  0.00  0.00    +0.000 OA
ATOM     25  H   UNL     1       8.239   5.817  15.548  0.00  0.00    +0.000 HD
BRANCH  23  26
ATOM     26  C   UNL     1       6.401   4.980  14.129  0.00  0.00    +0.000 A 
ATOM     27  C   UNL     1       7.429   4.942  13.205  0.00  0.00    +0.000 A 
ATOM     28  C   UNL     1       7.095   3.943  12.261  0.00  0.00    +0.000 A 
ATOM     29  C   UNL     1       5.886   3.427  12.662  0.00  0.00    +0.000 A 
ATOM     30  O   UNL     1       5.454   4.043  13.794  0.00  0.00    +0.000 OA
ENDBRANCH  23  26
ENDBRANCH  21  22
ENDBRANCH  20  21
ENDBRANCH   2  20
TORSDOF 5
ENDMDL
MODEL 2
REMARK VINA RESULT:      -9.5      0.800      1.637
REMARK  Name = 
REMARK  5 active torsions:
REMARK  status: ('A' for Active; 'I' for Inactive)
REMARK    1  A    between atoms: C_2  and  C_3
REMARK    2  A    between atoms: C_3  and  C_4
REMARK    3  A    between atoms: C_4  and  N_5
REMARK    4  A    between atoms: C_6  and  C_8
REMARK    5  A    between atoms: C_16  and  C_17
REMARK                            x       y       z     vdW  Elec       q    Type
REMARK                         _______ _______ _______ _____ _____    ______ ____
ROOT
ATOM      1  O   UNL     1       8.316   4.120  17.713  0.00  0.00    +0.000 OA
ATOM      2  C   UNL     1       7.297   4.606  18.208  0.00  0.00    +0.000 C 
ATOM      3  N   UNL     1       6.263   3.771  18.526  0.00  0.00    +0.000 N 
ATOM      4  C   UNL     1       5.069   4.170  19.048  0.00  0.00    +0.000 A 
ATOM      5  N   UNL     1       4.559   5.372  19.077  0.00  0.00    +0.000 NA
ATOM      6  C   UNL     1       3.337   5.354  19.727  0.00  0.00    +0.000 A 
ATOM      7  C   UNL     1       3.001   4.118  20.255  0.00  0.00    +0.000 A 
ATOM      8  S   UNL     1       4.154   2.935  19.774  0.00  0.00    +0.000 S 
ATOM      9  H   UNL     1       6.429   2.782  18.417  0.00  0.00    +0.000 HD
ENDROOT
BRANCH   6  10
ATOM     10  C   UNL     1       2.512   6.558  19.805  0.00  0.00    +0.000 A 
ATOM     11  C   UNL     1       1.709   6.789  20.933  0.00  0.00    +0.000 A 
ATOM     12  C   UNL     1       0.963   7.966  21.059  0.00  0.00    +0.000 A 
ATOM     13  C   UNL     1       1.004   8.948  20.058  0.00  0.00    +0.000 A 
ATOM     14  C   UNL     1       0.285  10.150  20.163  0.00  0.00    +0.000 A 
ATOM     15  C   UNL     1       0.352  11.112  19.153  0.00  0.00    +0.000 A 
ATOM     16  C   UNL     1       1.131  10.884  18.022  0.00  0.00    +0.000 A 
ATOM     17  C   UNL     1       1.850   9.696  17.903  0.00  0.00    +0.000 A 
ATOM     18  C   UNL     1       1.797   8.723  18.910  0.00  0.00    +0.000 A 
ATOM     19  C   UNL     1       2.536   7.536  18.801  0.00  0.00    +0.000 A 
ENDBRANCH   6  10
BRANCH   2  20
ATOM     20  C   UNL     1       7.186   6.080  18.552  0.00  0.00    +0.000 C 
BRANCH  20  21
ATOM     21  C   UNL     1       7.125   6.959  17.315  0.00  0.00    +0.000 C 
BRANCH  21  22
ATOM     22  N   UNL     1       7.193   6.163  16.106  0.00  0.00    +0.000 N 
ATOM     23  C   UNL     1       6.069   5.733  15.435  0.00  0.00    +0.000 C 
ATOM     24  O   UNL     1       4.930   5.964  15.837  0.00  0.00    +0.000 OA
ATOM     25  H   UNL     1       8.087   6.018  15.644  0.00  0.00    +0.000 HD
BRANCH  23  26
ATOM     26  C   UNL     1       6.348   4.999  14.219  0.00  0.00    +0.000 A 
ATOM     27  C   UNL     1       5.678   3.948  13.620  0.00  0.00    +0.000 A 
ATOM     28  C   UNL     1       6.404   3.610  12.454  0.00  0.00    +0.000 A 
ATOM     29  C   UNL     1       7.472   4.473  12.405  0.00  0.00    +0.000 A 
ATOM     30  O   UNL     1       7.450   5.323  13.465  0.00  0.00    +0.000 OA
ENDBRANCH  23  26
ENDBRANCH  21  22
ENDBRANCH  20  21
ENDBRANCH   2  20
TORSDOF 5
ENDMDL
MODEL 3
REMARK VINA RESULT:      -9.1      2.909      4.658
REMARK  Name = 
REMARK  5 active torsions:
REMARK  status: ('A' for Active; 'I' for Inactive)
REMARK    1  A    between atoms: C_2  and  C_3
REMARK    2  A    between atoms: C_3  and  C_4
REMARK    3  A    between atoms: C_4  and  N_5
REMARK    4  A    between atoms: C_6  and  C_8
REMARK    5  A    between atoms: C_16  and  C_17
REMARK                            x       y       z     vdW  Elec       q    Type
REMARK                         _______ _______ _______ _____ _____    ______ ____
ROOT
ATOM      1  O   UNL     1       8.473   4.172  17.902  0.00  0.00    +0.000 OA
ATOM      2  C   UNL     1       7.413   4.699  18.250  0.00  0.00    +0.000 C 
ATOM      3  N   UNL     1       6.258   3.979  18.137  0.00  0.00    +0.000 N 
ATOM      4  C   UNL     1       5.016   4.442  18.452  0.00  0.00    +0.000 A 
ATOM      5  N   UNL     1       4.632   5.677  18.630  0.00  0.00    +0.000 NA
ATOM      6  C   UNL     1       3.290   5.715  18.969  0.00  0.00    +0.000 A 
ATOM      7  C   UNL     1       2.716   4.464  19.124  0.00  0.00    +0.000 A 
ATOM      8  S   UNL     1       3.833   3.239  18.666  0.00  0.00    +0.000 S 
ATOM      9  H   UNL     1       6.349   3.015  17.854  0.00  0.00    +0.000 HD
ENDROOT
BRANCH   6  10
ATOM     10  C   UNL     1       2.591   6.990  19.123  0.00  0.00    +0.000 A 
ATOM     11  C   UNL     1       2.472   7.862  18.030  0.00  0.00    +0.000 A 
ATOM     12  C   UNL     1       1.750   9.056  18.137  0.00  0.00    +0.000 A 
ATOM     13  C   UNL     1       1.123   9.407  19.341  0.00  0.00    +0.000 A 
ATOM     14  C   UNL     1       0.373  10.587  19.475  0.00  0.00    +0.000 A 
ATOM     15  C   UNL     1      -0.246  10.906  20.686  0.00  0.00    +0.000 A 
ATOM     16  C   UNL     1      -0.118  10.054  21.781  0.00  0.00    +0.000 A 
ATOM     17  C   UNL     1       0.623   8.881  21.663  0.00  0.00    +0.000 A 
ATOM     18  C   UNL     1       1.247   8.544  20.454  0.00  0.00    +0.000 A 
ATOM     19  C   UNL     1       1.976   7.353  20.329  0.00  0.00    +0.000 A 
ENDBRANCH   6  10
BRANCH   2  20
ATOM     20  C   UNL     1       7.362   6.080  18.876  0.00  0.00    +0.000 C 
BRANCH  20  21
ATOM     21  C   UNL     1       7.857   7.161  17.931  0.00  0.00    +0.000 C 
BRANCH  21  22
ATOM     22  N   UNL     1       8.604   8.177  18.647  0.00  0.00    +0.000 N 
ATOM     23  C   UNL     1       8.514   9.518  18.342  0.00  0.00    +0.000 C 
ATOM     24  O   UNL     1       7.824   9.942  17.417  0.00  0.00    +0.000 OA
ATOM     25  H   UNL     1       9.113   7.931  19.491  0.00  0.00    +0.000 HD
BRANCH  23  26
ATOM     26  C   UNL     1       9.295  10.376  19.209  0.00  0.00    +0.000 A 
ATOM     27  C   UNL     1       9.168  10.660  20.556  0.00  0.00    +0.000 A 
ATOM     28  C   UNL     1      10.195  11.577  20.880  0.00  0.00    +0.000 A 
ATOM     29  C   UNL     1      10.891  11.799  19.716  0.00  0.00    +0.000 A 
ATOM     30  O   UNL     1      10.360  11.076  18.695  0.00  0.00    +0.000 OA
ENDBRANCH  23  26
ENDBRANCH  21  22
ENDBRANCH  20  21
ENDBRANCH   2  20
TORSDOF 5
ENDMDL
MODEL 4
REMARK VINA RESULT:      -8.6      3.416      8.587
REMARK  Name = 
REMARK  5 active torsions:
REMARK  status: ('A' for Active; 'I' for Inactive)
REMARK    1  A    between atoms: C_2  and  C_3
REMARK    2  A    between atoms: C_3  and  C_4
REMARK    3  A    between atoms: C_4  and  N_5
REMARK    4  A    between atoms: C_6  and  C_8
REMARK    5  A    between atoms: C_16  and  C_17
REMARK                            x       y       z     vdW  Elec       q    Type
REMARK                         _______ _______ _______ _____ _____    ______ ____
ROOT
ATOM      1  O   UNL     1       1.349   8.269  20.744  0.00  0.00    +0.000 OA
ATOM      2  C   UNL     1       1.967   7.619  19.897  0.00  0.00    +0.000 C 
ATOM      3  N   UNL     1       2.483   6.405  20.253  0.00  0.00    +0.000 N 
ATOM      4  C   UNL     1       3.211   5.596  19.433  0.00  0.00    +0.000 A 
ATOM      5  N   UNL     1       3.799   5.900  18.308  0.00  0.00    +0.000 NA
ATOM      6  C   UNL     1       4.410   4.779  17.772  0.00  0.00    +0.000 A 
ATOM      7  C   UNL     1       4.179   3.618  18.491  0.00  0.00    +0.000 A 
ATOM      8  S   UNL     1       3.334   3.979  19.945  0.00  0.00    +0.000 S 
ATOM      9  H   UNL     1       2.251   6.066  21.174  0.00  0.00    +0.000 HD
ENDROOT
BRANCH   6  10
ATOM     10  C   UNL     1       5.224   4.875  16.562  0.00  0.00    +0.000 A 
ATOM     11  C   UNL     1       6.376   5.677  16.552  0.00  0.00    +0.000 A 
ATOM     12  C   UNL     1       7.207   5.730  15.427  0.00  0.00    +0.000 A 
ATOM     13  C   UNL     1       6.908   4.979  14.281  0.00  0.00    +0.000 A 
ATOM     14  C   UNL     1       7.733   4.994  13.144  0.00  0.00    +0.000 A 
ATOM     15  C   UNL     1       7.412   4.229  12.021  0.00  0.00    +0.000 A 
ATOM     16  C   UNL     1       6.261   3.444  12.015  0.00  0.00    +0.000 A 
ATOM     17  C   UNL     1       5.434   3.420  13.136  0.00  0.00    +0.000 A 
ATOM     18  C   UNL     1       5.744   4.178  14.273  0.00  0.00    +0.000 A 
ATOM     19  C   UNL     1       4.922   4.138  15.408  0.00  0.00    +0.000 A 
ENDBRANCH   6  10
BRANCH   2  20
ATOM     20  C   UNL     1       2.098   8.082  18.458  0.00  0.00    +0.000 C 
BRANCH  20  21
ATOM     21  C   UNL     1       1.800   9.563  18.298  0.00  0.00    +0.000 C 
BRANCH  21  22
ATOM     22  N   UNL     1       0.445   9.774  17.827  0.00  0.00    +0.000 N 
ATOM     23  C   UNL     1      -0.501  10.451  18.567  0.00  0.00    +0.000 C 
ATOM     24  O   UNL     1      -0.271  10.889  19.692  0.00  0.00    +0.000 OA
ATOM     25  H   UNL     1       0.200   9.543  16.869  0.00  0.00    +0.000 HD
BRANCH  23  26
ATOM     26  C   UNL     1      -1.776  10.604  17.899  0.00  0.00    +0.000 A 
ATOM     27  C   UNL     1      -2.299   9.970  16.787  0.00  0.00    +0.000 A 
ATOM     28  C   UNL     1      -3.583  10.522  16.567  0.00  0.00    +0.000 A 
ATOM     29  C   UNL     1      -3.772  11.457  17.556  0.00  0.00    +0.000 A 
ATOM     30  O   UNL     1      -2.688  11.516  18.373  0.00  0.00    +0.000 OA
ENDBRANCH  23  26
ENDBRANCH  21  22
ENDBRANCH  20  21
ENDBRANCH   2  20
TORSDOF 5
ENDMDL
MODEL 5
REMARK VINA RESULT:      -8.2      2.470      4.287
REMARK  Name = 
REMARK  5 active torsions:
REMARK  status: ('A' for Active; 'I' for Inactive)
REMARK    1  A    between atoms: C_2  and  C_3
REMARK    2  A    between atoms: C_3  and  C_4
REMARK    3  A    between atoms: C_4  and  N_5
REMARK    4  A    between atoms: C_6  and  C_8
REMARK    5  A    between atoms: C_16  and  C_17
REMARK                            x       y       z     vdW  Elec       q    Type
REMARK                         _______ _______ _______ _____ _____    ______ ____
ROOT
ATOM      1  O   UNL     1       7.798   4.215  16.869  0.00  0.00    +0.000 OA
ATOM      2  C   UNL     1       6.780   4.659  17.404  0.00  0.00    +0.000 C 
ATOM      3  N   UNL     1       5.578   4.089  17.095  0.00  0.00    +0.000 N 
ATOM      4  C   UNL     1       4.372   4.496  17.584  0.00  0.00    +0.000 A 
ATOM      5  N   UNL     1       4.074   5.623  18.171  0.00  0.00    +0.000 NA
ATOM      6  C   UNL     1       2.741   5.628  18.545  0.00  0.00    +0.000 A 
ATOM      7  C   UNL     1       2.086   4.433  18.295  0.00  0.00    +0.000 A 
ATOM      8  S   UNL     1       3.114   3.364  17.424  0.00  0.00    +0.000 S 
ATOM      9  H   UNL     1       5.602   3.270  16.506  0.00  0.00    +0.000 HD
ENDROOT
BRANCH   6  10
ATOM     10  C   UNL     1       2.131   6.819  19.132  0.00  0.00    +0.000 A 
ATOM     11  C   UNL     1       1.680   6.796  20.460  0.00  0.00    +0.000 A 
ATOM     12  C   UNL     1       1.155   7.945  21.064  0.00  0.00    +0.000 A 
ATOM     13  C   UNL     1       1.071   9.151  20.352  0.00  0.00    +0.000 A 
ATOM     14  C   UNL     1       0.569  10.326  20.935  0.00  0.00    +0.000 A 
ATOM     15  C   UNL     1       0.504  11.513  20.202  0.00  0.00    +0.000 A 
ATOM     16  C   UNL     1       0.933  11.541  18.878  0.00  0.00    +0.000 A 
ATOM     17  C   UNL     1       1.432  10.383  18.286  0.00  0.00    +0.000 A 
ATOM     18  C   UNL     1       1.508   9.184  19.009  0.00  0.00    +0.000 A 
ATOM     19  C   UNL     1       2.030   8.024  18.421  0.00  0.00    +0.000 A 
ENDBRANCH   6  10
BRANCH   2  20
ATOM     20  C   UNL     1       6.828   5.755  18.452  0.00  0.00    +0.000 C 
BRANCH  20  21
ATOM     21  C   UNL     1       8.226   5.962  19.008  0.00  0.00    +0.000 C 
BRANCH  21  22
ATOM     22  N   UNL     1       8.552   7.373  19.086  0.00  0.00    +0.000 N 
ATOM     23  C   UNL     1       8.270   8.258  18.068  0.00  0.00    +0.000 C 
ATOM     24  O   UNL     1       7.756   7.905  17.008  0.00  0.00    +0.000 OA
ATOM     25  H   UNL     1       8.877   7.770  19.962  0.00  0.00    +0.000 HD
BRANCH  23  26
ATOM     26  C   UNL     1       8.623   9.631  18.361  0.00  0.00    +0.000 A 
ATOM     27  C   UNL     1       9.324  10.180  19.419  0.00  0.00    +0.000 A 
ATOM     28  C   UNL     1       9.361  11.578  19.204  0.00  0.00    +0.000 A 
ATOM     29  C   UNL     1       8.684  11.803  18.029  0.00  0.00    +0.000 A 
ATOM     30  O   UNL     1       8.234  10.633  17.505  0.00  0.00    +0.000 OA
ENDBRANCH  23  26
ENDBRANCH  21  22
ENDBRANCH  20  21
ENDBRANCH   2  20
TORSDOF 5
ENDMDL
MODEL 6
REMARK VINA RESULT:      -8.2      2.039      3.825
REMARK  Name = 
REMARK  5 active torsions:
REMARK  status: ('A' for Active; 'I' for Inactive)
REMARK    1  A    between atoms: C_2  and  C_3
REMARK    2  A    between atoms: C_3  and  C_4
REMARK    3  A    between atoms: C_4  and  N_5
REMARK    4  A    between atoms: C_6  and  C_8
REMARK    5  A    between atoms: C_16  and  C_17
REMARK                            x       y       z     vdW  Elec       q    Type
REMARK                         _______ _______ _______ _____ _____    ______ ____
ROOT
ATOM      1  O   UNL     1       5.825   3.207  15.930  0.00  0.00    +0.000 OA
ATOM      2  C   UNL     1       5.238   3.972  16.699  0.00  0.00    +0.000 C 
ATOM      3  N   UNL     1       4.396   3.441  17.634  0.00  0.00    +0.000 N 
ATOM      4  C   UNL     1       3.661   4.165  18.524  0.00  0.00    +0.000 A 
ATOM      5  N   UNL     1       3.377   5.439  18.494  0.00  0.00    +0.000 NA
ATOM      6  C   UNL     1       2.630   5.786  19.606  0.00  0.00    +0.000 A 
ATOM      7  C   UNL     1       2.446   4.748  20.504  0.00  0.00    +0.000 A 
ATOM      8  S   UNL     1       3.071   3.284  19.853  0.00  0.00    +0.000 S 
ATOM      9  H   UNL     1       4.369   2.435  17.700  0.00  0.00    +0.000 HD
ENDROOT
BRANCH   6  10
ATOM     10  C   UNL     1       2.097   7.139  19.759  0.00  0.00    +0.000 A 
ATOM     11  C   UNL     1       2.139   8.037  18.681  0.00  0.00    +0.000 A 
ATOM     12  C   UNL     1       1.574   9.313  18.784  0.00  0.00    +0.000 A 
ATOM     13  C   UNL     1       0.946   9.724  19.969  0.00  0.00    +0.000 A 
ATOM     14  C   UNL     1       0.350  10.989  20.097  0.00  0.00    +0.000 A 
ATOM     15  C   UNL     1      -0.273  11.367  21.289  0.00  0.00    +0.000 A 
ATOM     16  C   UNL     1      -0.304  10.489  22.369  0.00  0.00    +0.000 A 
ATOM     17  C   UNL     1       0.283   9.230  22.257  0.00  0.00    +0.000 A 
ATOM     18  C   UNL     1       0.909   8.834  21.067  0.00  0.00    +0.000 A 
ATOM     19  C   UNL     1       1.482   7.561  20.946  0.00  0.00    +0.000 A 
ENDBRANCH   6  10
BRANCH   2  20
ATOM     20  C   UNL     1       5.486   5.469  16.696  0.00  0.00    +0.000 C 
BRANCH  20  21
ATOM     21  C   UNL     1       6.870   5.826  16.181  0.00  0.00    +0.000 C 
BRANCH  21  22
ATOM     22  N   UNL     1       7.292   7.121  16.676  0.00  0.00    +0.000 N 
ATOM     23  C   UNL     1       7.861   7.293  17.919  0.00  0.00    +0.000 C 
ATOM     24  O   UNL     1       8.014   6.364  18.710  0.00  0.00    +0.000 OA
ATOM     25  H   UNL     1       7.303   7.923  16.051  0.00  0.00    +0.000 HD
BRANCH  23  26
ATOM     26  C   UNL     1       8.265   8.653  18.203  0.00  0.00    +0.000 A 
ATOM     27  C   UNL     1       8.020   9.832  17.524  0.00  0.00    +0.000 A 
ATOM     28  C   UNL     1       8.669  10.863  18.244  0.00  0.00    +0.000 A 
ATOM     29  C   UNL     1       9.270  10.257  19.321  0.00  0.00    +0.000 A 
ATOM     30  O   UNL     1       9.031   8.919  19.313  0.00  0.00    +0.000 OA
ENDBRANCH  23  26
ENDBRANCH  21  22
ENDBRANCH  20  21
ENDBRANCH   2  20
TORSDOF 5
ENDMDL
MODEL 7
REMARK VINA RESULT:      -8.1      2.529      4.299
REMARK  Name = 
REMARK  5 active torsions:
REMARK  status: ('A' for Active; 'I' for Inactive)
REMARK    1  A    between atoms: C_2  and  C_3
REMARK    2  A    between atoms: C_3  and  C_4
REMARK    3  A    between atoms: C_4  and  N_5
REMARK    4  A    between atoms: C_6  and  C_8
REMARK    5  A    between atoms: C_16  and  C_17
REMARK                            x       y       z     vdW  Elec       q    Type
REMARK                         _______ _______ _______ _____ _____    ______ ____
ROOT
ATOM      1  O   UNL     1       8.127   4.178  17.132  0.00  0.00    +0.000 OA
ATOM      2  C   UNL     1       7.138   4.724  17.626  0.00  0.00    +0.000 C 
ATOM      3  N   UNL     1       6.010   3.978  17.823  0.00  0.00    +0.000 N 
ATOM      4  C   UNL     1       4.838   4.454  18.328  0.00  0.00    +0.000 A 
ATOM      5  N   UNL     1       4.451   5.696  18.445  0.00  0.00    +0.000 NA
ATOM      6  C   UNL     1       3.201   5.751  19.039  0.00  0.00    +0.000 A 
ATOM      7  C   UNL     1       2.716   4.516  19.438  0.00  0.00    +0.000 A 
ATOM      8  S   UNL     1       3.766   3.265  18.901  0.00  0.00    +0.000 S 
ATOM      9  H   UNL     1       6.080   2.990  17.632  0.00  0.00    +0.000 HD
ENDROOT
BRANCH   6  10
ATOM     10  C   UNL     1       2.499   7.024  19.192  0.00  0.00    +0.000 A 
ATOM     11  C   UNL     1       2.350   7.881  18.091  0.00  0.00    +0.000 A 
ATOM     12  C   UNL     1       1.623   9.072  18.198  0.00  0.00    +0.000 A 
ATOM     13  C   UNL     1       1.022   9.436  19.412  0.00  0.00    +0.000 A 
ATOM     14  C   UNL     1       0.268  10.614  19.547  0.00  0.00    +0.000 A 
ATOM     15  C   UNL     1      -0.323  10.946  20.767  0.00  0.00    +0.000 A 
ATOM     16  C   UNL     1      -0.166  10.110  21.870  0.00  0.00    +0.000 A 
ATOM     17  C   UNL     1       0.579   8.939  21.751  0.00  0.00    +0.000 A 
ATOM     18  C   UNL     1       1.177   8.589  20.532  0.00  0.00    +0.000 A 
ATOM     19  C   UNL     1       1.909   7.401  20.407  0.00  0.00    +0.000 A 
ENDBRANCH   6  10
BRANCH   2  20
ATOM     20  C   UNL     1       7.159   6.166  18.097  0.00  0.00    +0.000 C 
BRANCH  20  21
ATOM     21  C   UNL     1       7.170   7.152  16.942  0.00  0.00    +0.000 C 
BRANCH  21  22
ATOM     22  N   UNL     1       7.621   8.459  17.377  0.00  0.00    +0.000 N 
ATOM     23  C   UNL     1       8.465   8.634  18.453  0.00  0.00    +0.000 C 
ATOM     24  O   UNL     1       8.863   7.696  19.140  0.00  0.00    +0.000 OA
ATOM     25  H   UNL     1       7.430   9.277  16.805  0.00  0.00    +0.000 HD
BRANCH  23  26
ATOM     26  C   UNL     1       8.843  10.011  18.691  0.00  0.00    +0.000 A 
ATOM     27  C   UNL     1       8.835  11.112  17.854  0.00  0.00    +0.000 A 
ATOM     28  C   UNL     1       9.321  12.205  18.609  0.00  0.00    +0.000 A 
ATOM     29  C   UNL     1       9.595  11.712  19.862  0.00  0.00    +0.000 A 
ATOM     30  O   UNL     1       9.307  10.386  19.929  0.00  0.00    +0.000 OA
ENDBRANCH  23  26
ENDBRANCH  21  22
ENDBRANCH  20  21
ENDBRANCH   2  20
TORSDOF 5
ENDMDL
MODEL 8
REMARK VINA RESULT:      -8.1      5.437      9.976
REMARK  Name = 
REMARK  5 active torsions:
REMARK  status: ('A' for Active; 'I' for Inactive)
REMARK    1  A    between atoms: C_2  and  C_3
REMARK    2  A    between atoms: C_3  and  C_4
REMARK    3  A    between atoms: C_4  and  N_5
REMARK    4  A    between atoms: C_6  and  C_8
REMARK    5  A    between atoms: C_16  and  C_17
REMARK                            x       y       z     vdW  Elec       q    Type
REMARK                         _______ _______ _______ _____ _____    ______ ____
ROOT
ATOM      1  O   UNL     1      -1.470  12.488  18.280  0.00  0.00    +0.000 OA
ATOM      2  C   UNL     1      -0.921  11.426  18.581  0.00  0.00    +0.000 C 
ATOM      3  N   UNL     1      -0.319  11.325  19.804  0.00  0.00    +0.000 N 
ATOM      4  C   UNL     1       0.350  10.228  20.256  0.00  0.00    +0.000 A 
ATOM      5  N   UNL     1       0.801   9.213  19.569  0.00  0.00    +0.000 NA
ATOM      6  C   UNL     1       1.396   8.292  20.414  0.00  0.00    +0.000 A 
ATOM      7  C   UNL     1       1.293   8.617  21.757  0.00  0.00    +0.000 A 
ATOM      8  S   UNL     1       0.595  10.178  21.938  0.00  0.00    +0.000 S 
ATOM      9  H   UNL     1      -0.436  12.105  20.432  0.00  0.00    +0.000 HD
ENDROOT
BRANCH   6  10
ATOM     10  C   UNL     1       2.071   7.111  19.880  0.00  0.00    +0.000 A 
ATOM     11  C   UNL     1       1.866   5.856  20.473  0.00  0.00    +0.000 A 
ATOM     12  C   UNL     1       2.449   4.701  19.937  0.00  0.00    +0.000 A 
ATOM     13  C   UNL     1       3.251   4.773  18.789  0.00  0.00    +0.000 A 
ATOM     14  C   UNL     1       3.833   3.631  18.214  0.00  0.00    +0.000 A 
ATOM     15  C   UNL     1       4.621   3.734  17.065  0.00  0.00    +0.000 A 
ATOM     16  C   UNL     1       4.844   4.977  16.480  0.00  0.00    +0.000 A 
ATOM     17  C   UNL     1       4.274   6.119  17.040  0.00  0.00    +0.000 A 
ATOM     18  C   UNL     1       3.477   6.033  18.190  0.00  0.00    +0.000 A 
ATOM     19  C   UNL     1       2.887   7.178  18.741  0.00  0.00    +0.000 A 
ENDBRANCH   6  10
BRANCH   2  20
ATOM     20  C   UNL     1      -0.965  10.207  17.679  0.00  0.00    +0.000 C 
BRANCH  20  21
ATOM     21  C   UNL     1      -2.305  10.054  16.979  0.00  0.00    +0.000 C 
BRANCH  21  22
ATOM     22  N   UNL     1      -3.402  10.292  17.897  0.00  0.00    +0.000 N 
ATOM     23  C   UNL     1      -4.490  11.070  17.568  0.00  0.00    +0.000 C 
ATOM     24  O   UNL     1      -4.588  11.648  16.488  0.00  0.00    +0.000 OA
ATOM     25  H   UNL     1      -3.457   9.769  18.766  0.00  0.00    +0.000 HD
BRANCH  23  26
ATOM     26  C   UNL     1      -5.504  11.138  18.600  0.00  0.00    +0.000 A 
ATOM     27  C   UNL     1      -6.707  10.470  18.734  0.00  0.00    +0.000 A 
ATOM     28  C   UNL     1      -7.303  10.935  19.930  0.00  0.00    +0.000 A 
ATOM     29  C   UNL     1      -6.430  11.855  20.459  0.00  0.00    +0.000 A 
ATOM     30  O   UNL     1      -5.334  11.987  19.667  0.00  0.00    +0.000 OA
ENDBRANCH  23  26
ENDBRANCH  21  22
ENDBRANCH  20  21
ENDBRANCH   2  20
TORSDOF 5
ENDMDL
MODEL 9
REMARK VINA RESULT:      -7.9      5.674      8.773
REMARK  Name = 
REMARK  5 active torsions:
REMARK  status: ('A' for Active; 'I' for Inactive)
REMARK    1  A    between atoms: C_2  and  C_3
REMARK    2  A    between atoms: C_3  and  C_4
REMARK    3  A    between atoms: C_4  and  N_5
REMARK    4  A    between atoms: C_6  and  C_8
REMARK    5  A    between atoms: C_16  and  C_17
REMARK                            x       y       z     vdW  Elec       q    Type
REMARK                         _______ _______ _______ _____ _____    ______ ____
ROOT
ATOM      1  O   UNL     1       0.444  14.796  21.370  0.00  0.00    +0.000 OA
ATOM      2  C   UNL     1       0.554  13.627  20.993  0.00  0.00    +0.000 C 
ATOM      3  N   UNL     1       0.151  12.628  21.834  0.00  0.00    +0.000 N 
ATOM      4  C   UNL     1       0.242  11.296  21.564  0.00  0.00    +0.000 A 
ATOM      5  N   UNL     1       0.956  10.702  20.646  0.00  0.00    +0.000 NA
ATOM      6  C   UNL     1       0.739   9.335  20.686  0.00  0.00    +0.000 A 
ATOM      7  C   UNL     1      -0.224   8.947  21.603  0.00  0.00    +0.000 A 
ATOM      8  S   UNL     1      -0.729  10.298  22.540  0.00  0.00    +0.000 S 
ATOM      9  H   UNL     1      -0.299  12.911  22.691  0.00  0.00    +0.000 HD
ENDROOT
BRANCH   6  10
ATOM     10  C   UNL     1       1.499   8.430  19.824  0.00  0.00    +0.000 A 
ATOM     11  C   UNL     1       1.833   8.818  18.518  0.00  0.00    +0.000 A 
ATOM     12  C   UNL     1       2.617   7.997  17.700  0.00  0.00    +0.000 A 
ATOM     13  C   UNL     1       3.091   6.763  18.171  0.00  0.00    +0.000 A 
ATOM     14  C   UNL     1       3.898   5.925  17.383  0.00  0.00    +0.000 A 
ATOM     15  C   UNL     1       4.360   4.706  17.883  0.00  0.00    +0.000 A 
ATOM     16  C   UNL     1       4.019   4.305  19.172  0.00  0.00    +0.000 A 
ATOM     17  C   UNL     1       3.219   5.125  19.964  0.00  0.00    +0.000 A 
ATOM     18  C   UNL     1       2.750   6.354  19.480  0.00  0.00    +0.000 A 
ATOM     19  C   UNL     1       1.963   7.189  20.284  0.00  0.00    +0.000 A 
ENDBRANCH   6  10
BRANCH   2  20
ATOM     20  C   UNL     1       1.037  13.266  19.600  0.00  0.00    +0.000 C 
BRANCH  20  21
ATOM     21  C   UNL     1       0.177  13.885  18.512  0.00  0.00    +0.000 C 
BRANCH  21  22
ATOM     22  N   UNL     1      -0.567  12.868  17.795  0.00  0.00    +0.000 N 
ATOM     23  C   UNL     1      -1.705  12.282  18.305  0.00  0.00    +0.000 C 
ATOM     24  O   UNL     1      -2.146  12.554  19.420  0.00  0.00    +0.000 OA
ATOM     25  H   UNL     1      -0.339  12.662  16.827  0.00  0.00    +0.000 HD
BRANCH  23  26
ATOM     26  C   UNL     1      -2.333  11.331  17.412  0.00  0.00    +0.000 A 
ATOM     27  C   UNL     1      -1.899  10.104  16.945  0.00  0.00    +0.000 A 
ATOM     28  C   UNL     1      -2.910   9.612  16.086  0.00  0.00    +0.000 A 
ATOM     29  C   UNL     1      -3.903  10.562  16.080  0.00  0.00    +0.000 A 
ATOM     30  O   UNL     1      -3.570  11.608  16.882  0.00  0.00    +0.000 OA
ENDBRANCH  23  26
ENDBRANCH  21  22
ENDBRANCH  20  21
ENDBRANCH   2  20
TORSDOF 5
ENDMDL
