MODEL 1
REMARK VINA RESULT:      -7.7      0.000      0.000
REMARK  Name = 
REMARK  7 active torsions:
REMARK  status: ('A' for Active; 'I' for Inactive)
REMARK    1  A    between atoms: C_1  and  C_2
REMARK    2  A    between atoms: C_2  and  C_3
REMARK    3  A    between atoms: C_3  and  C_4
REMARK    4  A    between atoms: C_4  and  C_5
REMARK    5  A    between atoms: C_9  and  N_10
REMARK    6  A    between atoms: C_15  and  C_16
REMARK    7  A    between atoms: C_19  and  C_20
REMARK                            x       y       z     vdW  Elec       q    Type
REMARK                         _______ _______ _______ _____ _____    ______ ____
ROOT
ATOM      1  N   UNL     1       0.731   8.278  21.251  0.00  0.00    +0.000 N 
ATOM      2  C   UNL     1      -0.499   8.620  20.488  0.00  0.00    +0.000 C 
ATOM      3  C   UNL     1      -0.279  10.063  20.165  0.00  0.00    +0.000 A 
ATOM      4  C   UNL     1       0.572  10.584  21.140  0.00  0.00    +0.000 A 
ATOM      5  C   UNL     1       1.091  11.863  21.082  0.00  0.00    +0.000 A 
ATOM      6  C   UNL     1       0.759  12.649  19.974  0.00  0.00    +0.000 A 
ATOM      7  C   UNL     1      -0.095  12.124  18.976  0.00  0.00    +0.000 A 
ATOM      8  C   UNL     1      -0.631  10.819  19.052  0.00  0.00    +0.000 A 
ATOM      9  C   UNL     1       1.118   9.457  21.930  0.00  0.00    +0.000 C 
ATOM     10  O   UNL     1       1.910   9.589  22.843  0.00  0.00    +0.000 OA
ENDROOT
BRANCH   1  15
ATOM     11  C   UNL     1       2.130   5.477  19.418  0.00  0.00    +0.000 A 
ATOM     12  C   UNL     1       2.308   6.119  18.176  0.00  0.00    +0.000 A 
ATOM     13  C   UNL     1       2.337   7.511  18.060  0.00  0.00    +0.000 A 
ATOM     14  C   UNL     1       2.072   8.302  19.170  0.00  0.00    +0.000 A 
ATOM     15  C   UNL     1       1.731   7.686  20.379  0.00  0.00    +0.000 A 
ATOM     16  C   UNL     1       1.960   6.317  20.531  0.00  0.00    +0.000 A 
BRANCH  11  17
ATOM     17  C   UNL     1       2.011   3.876  19.557  0.00  0.00    +0.000 C 
ATOM     18  C   UNL     1       2.980   3.150  20.542  0.00  0.00    +0.000 C 
ATOM     19  O   UNL     1       1.954   3.067  21.557  0.00  0.00    +0.000 OA
ATOM     20  C   UNL     1       0.939   3.371  20.572  0.00  0.00    +0.000 C 
BRANCH  17  21
ATOM     21  C   UNL     1       1.908   3.218  18.172  0.00  0.00    +0.000 C 
BRANCH  21  23
ATOM     22  C   UNL     1       4.180   3.290  17.078  0.00  0.00    +0.000 C 
ATOM     23  C   UNL     1       3.173   2.429  17.821  0.00  0.00    +0.000 C 
ENDBRANCH  21  23
ENDBRANCH  17  21
ENDBRANCH  11  17
ENDBRANCH   1  15
BRANCH   8  24
ATOM     24  C   UNL     1      -1.444  10.286  17.896  0.00  0.00    +0.000 C 
ATOM     25  F   UNL     1      -2.589   9.656  18.270  0.00  0.00    +0.000 F 
ATOM     26  F   UNL     1      -1.829  11.274  17.042  0.00  0.00    +0.000 F 
ATOM     27  F   UNL     1      -0.749   9.389  17.143  0.00  0.00    +0.000 F 
ENDBRANCH   8  24
BRANCH   6  28
ATOM     28  C   UNL     1       1.390  14.006  19.818  0.00  0.00    +0.000 C 
ATOM     29  F   UNL     1       2.131  14.125  18.681  0.00  0.00    +0.000 F 
ENDBRANCH   6  28
TORSDOF 6
ENDMDL
MODEL 2
REMARK VINA RESULT:      -7.5      1.088      1.728
REMARK  Name = 
REMARK  7 active torsions:
REMARK  status: ('A' for Active; 'I' for Inactive)
REMARK    1  A    between atoms: C_1  and  C_2
REMARK    2  A    between atoms: C_2  and  C_3
REMARK    3  A    between atoms: C_3  and  C_4
REMARK    4  A    between atoms: C_4  and  C_5
REMARK    5  A    between atoms: C_9  and  N_10
REMARK    6  A    between atoms: C_15  and  C_16
REMARK    7  A    between atoms: C_19  and  C_20
REMARK                            x       y       z     vdW  Elec       q    Type
REMARK                         _______ _______ _______ _____ _____    ______ ____
ROOT
ATOM      1  N   UNL     1       0.752   8.388  21.034  0.00  0.00    +0.000 N 
ATOM      2  C   UNL     1      -0.516   8.657  20.304  0.00  0.00    +0.000 C 
ATOM      3  C   UNL     1      -0.462  10.139  20.114  0.00  0.00    +0.000 A 
ATOM      4  C   UNL     1       0.334  10.662  21.134  0.00  0.00    +0.000 A 
ATOM      5  C   UNL     1       0.706  11.991  21.193  0.00  0.00    +0.000 A 
ATOM      6  C   UNL     1       0.277  12.832  20.162  0.00  0.00    +0.000 A 
ATOM      7  C   UNL     1      -0.522  12.307  19.119  0.00  0.00    +0.000 A 
ATOM      8  C   UNL     1      -0.907  10.948  19.075  0.00  0.00    +0.000 A 
ATOM      9  C   UNL     1       1.011   9.536  21.818  0.00  0.00    +0.000 C 
ATOM     10  O   UNL     1       1.792   9.674  22.739  0.00  0.00    +0.000 OA
ENDROOT
BRANCH   1  15
ATOM     11  C   UNL     1       2.385   5.967  18.881  0.00  0.00    +0.000 A 
ATOM     12  C   UNL     1       2.523   6.778  17.736  0.00  0.00    +0.000 A 
ATOM     13  C   UNL     1       2.443   8.171  17.802  0.00  0.00    +0.000 A 
ATOM     14  C   UNL     1       2.106   8.787  19.001  0.00  0.00    +0.000 A 
ATOM     15  C   UNL     1       1.804   7.994  20.112  0.00  0.00    +0.000 A 
ATOM     16  C   UNL     1       2.139   6.639  20.090  0.00  0.00    +0.000 A 
BRANCH  11  17
ATOM     17  C   UNL     1       2.392   4.358  18.809  0.00  0.00    +0.000 C 
ATOM     18  C   UNL     1       2.636   3.685  17.421  0.00  0.00    +0.000 C 
ATOM     19  O   UNL     1       4.023   3.432  17.740  0.00  0.00    +0.000 OA
ATOM     20  C   UNL     1       3.758   3.680  19.141  0.00  0.00    +0.000 C 
BRANCH  17  21
ATOM     21  C   UNL     1       1.206   3.774  19.594  0.00  0.00    +0.000 C 
BRANCH  21  23
ATOM     22  C   UNL     1       1.559   2.637  21.818  0.00  0.00    +0.000 C 
ATOM     23  C   UNL     1       1.582   2.473  20.308  0.00  0.00    +0.000 C 
ENDBRANCH  21  23
ENDBRANCH  17  21
ENDBRANCH  11  17
ENDBRANCH   1  15
BRANCH   8  24
ATOM     24  C   UNL     1      -1.667  10.435  17.875  0.00  0.00    +0.000 C 
ATOM     25  F   UNL     1      -2.832   9.808  18.185  0.00  0.00    +0.000 F 
ATOM     26  F   UNL     1      -2.004  11.435  17.015  0.00  0.00    +0.000 F 
ATOM     27  F   UNL     1      -0.941   9.543  17.146  0.00  0.00    +0.000 F 
ENDBRANCH   8  24
BRANCH   6  28
ATOM     28  C   UNL     1       0.750  14.261  20.130  0.00  0.00    +0.000 C 
ATOM     29  F   UNL     1       1.493  14.555  19.027  0.00  0.00    +0.000 F 
ENDBRANCH   6  28
TORSDOF 6
ENDMDL
MODEL 3
REMARK VINA RESULT:      -7.5      0.728      1.039
REMARK  Name = 
REMARK  7 active torsions:
REMARK  status: ('A' for Active; 'I' for Inactive)
REMARK    1  A    between atoms: C_1  and  C_2
REMARK    2  A    between atoms: C_2  and  C_3
REMARK    3  A    between atoms: C_3  and  C_4
REMARK    4  A    between atoms: C_4  and  C_5
REMARK    5  A    between atoms: C_9  and  N_10
REMARK    6  A    between atoms: C_15  and  C_16
REMARK    7  A    between atoms: C_19  and  C_20
REMARK                            x       y       z     vdW  Elec       q    Type
REMARK                         _______ _______ _______ _____ _____    ______ ____
ROOT
ATOM      1  N   UNL     1       0.717   8.312  21.188  0.00  0.00    +0.000 N 
ATOM      2  C   UNL     1      -0.519   8.632  20.425  0.00  0.00    +0.000 C 
ATOM      3  C   UNL     1      -0.346  10.091  20.143  0.00  0.00    +0.000 A 
ATOM      4  C   UNL     1       0.480  10.614  21.138  0.00  0.00    +0.000 A 
ATOM      5  C   UNL     1       0.956  11.910  21.119  0.00  0.00    +0.000 A 
ATOM      6  C   UNL     1       0.604  12.715  20.030  0.00  0.00    +0.000 A 
ATOM      7  C   UNL     1      -0.224  12.188  19.012  0.00  0.00    +0.000 A 
ATOM      8  C   UNL     1      -0.715  10.864  19.048  0.00  0.00    +0.000 A 
ATOM      9  C   UNL     1       1.059   9.484  21.901  0.00  0.00    +0.000 C 
ATOM     10  O   UNL     1       1.840   9.619  22.824  0.00  0.00    +0.000 OA
ENDROOT
BRANCH   1  15
ATOM     11  C   UNL     1       2.323   5.576  19.428  0.00  0.00    +0.000 A 
ATOM     12  C   UNL     1       2.401   6.175  18.155  0.00  0.00    +0.000 A 
ATOM     13  C   UNL     1       2.293   7.557  17.979  0.00  0.00    +0.000 A 
ATOM     14  C   UNL     1       1.986   8.368  19.064  0.00  0.00    +0.000 A 
ATOM     15  C   UNL     1       1.743   7.778  20.309  0.00  0.00    +0.000 A 
ATOM     16  C   UNL     1       2.106   6.445  20.510  0.00  0.00    +0.000 A 
BRANCH  11  17
ATOM     17  C   UNL     1       2.362   3.979  19.638  0.00  0.00    +0.000 C 
ATOM     18  C   UNL     1       2.372   3.430  21.100  0.00  0.00    +0.000 C 
ATOM     19  O   UNL     1       0.956   3.140  21.045  0.00  0.00    +0.000 OA
ATOM     20  C   UNL     1       0.974   3.266  19.604  0.00  0.00    +0.000 C 
BRANCH  17  21
ATOM     21  C   UNL     1       3.409   3.336  18.715  0.00  0.00    +0.000 C 
BRANCH  21  23
ATOM     22  C   UNL     1       5.655   4.392  18.264  0.00  0.00    +0.000 C 
ATOM     23  C   UNL     1       4.834   3.556  19.231  0.00  0.00    +0.000 C 
ENDBRANCH  21  23
ENDBRANCH  17  21
ENDBRANCH  11  17
ENDBRANCH   1  15
BRANCH   8  24
ATOM     24  C   UNL     1      -1.503  10.336  17.872  0.00  0.00    +0.000 C 
ATOM     25  F   UNL     1      -1.891  11.295  16.990  0.00  0.00    +0.000 F 
ATOM     26  F   UNL     1      -0.792   9.432  17.144  0.00  0.00    +0.000 F 
ATOM     27  F   UNL     1      -2.641   9.695  18.258  0.00  0.00    +0.000 F 
ENDBRANCH   8  24
BRANCH   6  28
ATOM     28  C   UNL     1       1.190  14.097  19.915  0.00  0.00    +0.000 C 
ATOM     29  F   UNL     1       2.339  14.133  19.184  0.00  0.00    +0.000 F 
ENDBRANCH   6  28
TORSDOF 6
ENDMDL
MODEL 4
REMARK VINA RESULT:      -7.5      1.338      1.675
REMARK  Name = 
REMARK  7 active torsions:
REMARK  status: ('A' for Active; 'I' for Inactive)
REMARK    1  A    between atoms: C_1  and  C_2
REMARK    2  A    between atoms: C_2  and  C_3
REMARK    3  A    between atoms: C_3  and  C_4
REMARK    4  A    between atoms: C_4  and  C_5
REMARK    5  A    between atoms: C_9  and  N_10
REMARK    6  A    between atoms: C_15  and  C_16
REMARK    7  A    between atoms: C_19  and  C_20
REMARK                            x       y       z     vdW  Elec       q    Type
REMARK                         _______ _______ _______ _____ _____    ______ ____
ROOT
ATOM      1  N   UNL     1       0.255   9.174  20.737  0.00  0.00    +0.000 N 
ATOM      2  C   UNL     1      -0.963   9.174  19.884  0.00  0.00    +0.000 C 
ATOM      3  C   UNL     1      -1.025  10.595  19.422  0.00  0.00    +0.000 A 
ATOM      4  C   UNL     1      -0.369  11.373  20.377  0.00  0.00    +0.000 A 
ATOM      5  C   UNL     1      -0.123  12.722  20.209  0.00  0.00    +0.000 A 
ATOM      6  C   UNL     1      -0.534  13.313  19.010  0.00  0.00    +0.000 A 
ATOM      7  C   UNL     1      -1.191  12.528  18.033  0.00  0.00    +0.000 A 
ATOM      8  C   UNL     1      -1.448  11.151  18.220  0.00  0.00    +0.000 A 
ATOM      9  C   UNL     1       0.343  10.466  21.305  0.00  0.00    +0.000 C 
ATOM     10  O   UNL     1       1.026  10.848  22.236  0.00  0.00    +0.000 OA
ENDROOT
BRANCH   1  15
ATOM     11  C   UNL     1       2.371   6.575  19.348  0.00  0.00    +0.000 A 
ATOM     12  C   UNL     1       2.464   7.074  18.032  0.00  0.00    +0.000 A 
ATOM     13  C   UNL     1       2.174   8.405  17.724  0.00  0.00    +0.000 A 
ATOM     14  C   UNL     1       1.669   9.247  18.706  0.00  0.00    +0.000 A 
ATOM     15  C   UNL     1       1.414   8.730  19.981  0.00  0.00    +0.000 A 
ATOM     16  C   UNL     1       1.947   7.487  20.328  0.00  0.00    +0.000 A 
BRANCH  11  17
ATOM     17  C   UNL     1       2.622   5.024  19.706  0.00  0.00    +0.000 C 
ATOM     18  C   UNL     1       2.192   4.517  21.119  0.00  0.00    +0.000 C 
ATOM     19  O   UNL     1       0.975   3.944  20.589  0.00  0.00    +0.000 OA
ATOM     20  C   UNL     1       1.500   4.042  19.244  0.00  0.00    +0.000 C 
BRANCH  17  21
ATOM     21  C   UNL     1       4.034   4.591  19.282  0.00  0.00    +0.000 C 
BRANCH  21  23
ATOM     22  C   UNL     1       4.417   4.134  16.831  0.00  0.00    +0.000 C 
ATOM     23  C   UNL     1       3.997   3.543  18.166  0.00  0.00    +0.000 C 
ENDBRANCH  21  23
ENDBRANCH  17  21
ENDBRANCH  11  17
ENDBRANCH   1  15
BRANCH   8  24
ATOM     24  C   UNL     1      -2.053  10.353  17.090  0.00  0.00    +0.000 C 
ATOM     25  F   UNL     1      -1.253   9.358  16.625  0.00  0.00    +0.000 F 
ATOM     26  F   UNL     1      -3.217   9.749  17.455  0.00  0.00    +0.000 F 
ATOM     27  F   UNL     1      -2.355  11.129  16.012  0.00  0.00    +0.000 F 
ENDBRANCH   8  24
BRANCH   6  28
ATOM     28  C   UNL     1      -0.188  14.753  18.742  0.00  0.00    +0.000 C 
ATOM     29  F   UNL     1      -1.007  15.631  19.386  0.00  0.00    +0.000 F 
ENDBRANCH   6  28
TORSDOF 6
ENDMDL
MODEL 5
REMARK VINA RESULT:      -7.4      3.924      7.662
REMARK  Name = 
REMARK  7 active torsions:
REMARK  status: ('A' for Active; 'I' for Inactive)
REMARK    1  A    between atoms: C_1  and  C_2
REMARK    2  A    between atoms: C_2  and  C_3
REMARK    3  A    between atoms: C_3  and  C_4
REMARK    4  A    between atoms: C_4  and  C_5
REMARK    5  A    between atoms: C_9  and  N_10
REMARK    6  A    between atoms: C_15  and  C_16
REMARK    7  A    between atoms: C_19  and  C_20
REMARK                            x       y       z     vdW  Elec       q    Type
REMARK                         _______ _______ _______ _____ _____    ______ ____
ROOT
ATOM      1  N   UNL     1       2.164   7.090  18.052  0.00  0.00    +0.000 N 
ATOM      2  C   UNL     1       2.064   5.625  18.287  0.00  0.00    +0.000 C 
ATOM      3  C   UNL     1       3.500   5.227  18.416  0.00  0.00    +0.000 A 
ATOM      4  C   UNL     1       4.258   6.163  17.711  0.00  0.00    +0.000 A 
ATOM      5  C   UNL     1       5.639   6.179  17.724  0.00  0.00    +0.000 A 
ATOM      6  C   UNL     1       6.292   5.220  18.505  0.00  0.00    +0.000 A 
ATOM      7  C   UNL     1       5.530   4.274  19.230  0.00  0.00    +0.000 A 
ATOM      8  C   UNL     1       4.118   4.260  19.201  0.00  0.00    +0.000 A 
ATOM      9  C   UNL     1       3.377   7.299  17.355  0.00  0.00    +0.000 C 
ATOM     10  O   UNL     1       3.753   8.287  16.754  0.00  0.00    +0.000 OA
ENDROOT
BRANCH   1  15
ATOM     11  C   UNL     1       0.676   9.723  20.056  0.00  0.00    +0.000 A 
ATOM     12  C   UNL     1       0.322   8.945  21.178  0.00  0.00    +0.000 A 
ATOM     13  C   UNL     1       0.903   7.700  21.427  0.00  0.00    +0.000 A 
ATOM     14  C   UNL     1       1.770   7.143  20.495  0.00  0.00    +0.000 A 
ATOM     15  C   UNL     1       2.009   7.824  19.297  0.00  0.00    +0.000 A 
ATOM     16  C   UNL     1       1.629   9.162  19.189  0.00  0.00    +0.000 A 
BRANCH  11  17
ATOM     17  C   UNL     1      -0.043  11.123  19.711  0.00  0.00    +0.000 C 
ATOM     18  C   UNL     1       0.107  12.297  20.729  0.00  0.00    +0.000 C 
ATOM     19  O   UNL     1       1.143  12.914  19.930  0.00  0.00    +0.000 OA
ATOM     20  C   UNL     1       0.778  12.088  18.799  0.00  0.00    +0.000 C 
BRANCH  17  21
ATOM     21  C   UNL     1      -1.481  10.888  19.224  0.00  0.00    +0.000 C 
BRANCH  21  23
ATOM     22  C   UNL     1      -2.902   9.773  17.463  0.00  0.00    +0.000 C 
ATOM     23  C   UNL     1      -1.514  10.276  17.820  0.00  0.00    +0.000 C 
ENDBRANCH  21  23
ENDBRANCH  17  21
ENDBRANCH  11  17
ENDBRANCH   1  15
BRANCH   8  24
ATOM     24  C   UNL     1       3.370   3.292  20.087  0.00  0.00    +0.000 C 
ATOM     25  F   UNL     1       2.439   2.548  19.432  0.00  0.00    +0.000 F 
ATOM     26  F   UNL     1       4.202   2.396  20.685  0.00  0.00    +0.000 F 
ATOM     27  F   UNL     1       2.708   3.921  21.097  0.00  0.00    +0.000 F 
ENDBRANCH   8  24
BRANCH   6  28
ATOM     28  C   UNL     1       7.791   5.270  18.633  0.00  0.00    +0.000 C 
ATOM     29  F   UNL     1       8.273   6.533  18.796  0.00  0.00    +0.000 F 
ENDBRANCH   6  28
TORSDOF 6
ENDMDL
MODEL 6
REMARK VINA RESULT:      -7.4      5.087      7.708
REMARK  Name = 
REMARK  7 active torsions:
REMARK  status: ('A' for Active; 'I' for Inactive)
REMARK    1  A    between atoms: C_1  and  C_2
REMARK    2  A    between atoms: C_2  and  C_3
REMARK    3  A    between atoms: C_3  and  C_4
REMARK    4  A    between atoms: C_4  and  C_5
REMARK    5  A    between atoms: C_9  and  N_10
REMARK    6  A    between atoms: C_15  and  C_16
REMARK    7  A    between atoms: C_19  and  C_20
REMARK                            x       y       z     vdW  Elec       q    Type
REMARK                         _______ _______ _______ _____ _____    ______ ____
ROOT
ATOM      1  N   UNL     1      -0.230  11.109  18.466  0.00  0.00    +0.000 N 
ATOM      2  C   UNL     1       0.466  10.377  19.558  0.00  0.00    +0.000 C 
ATOM      3  C   UNL     1      -0.005  11.105  20.775  0.00  0.00    +0.000 A 
ATOM      4  C   UNL     1      -0.344  12.401  20.383  0.00  0.00    +0.000 A 
ATOM      5  C   UNL     1      -0.940  13.314  21.230  0.00  0.00    +0.000 A 
ATOM      6  C   UNL     1      -1.234  12.896  22.532  0.00  0.00    +0.000 A 
ATOM      7  C   UNL     1      -0.903  11.581  22.934  0.00  0.00    +0.000 A 
ATOM      8  C   UNL     1      -0.282  10.659  22.063  0.00  0.00    +0.000 A 
ATOM      9  C   UNL     1      -0.357  12.448  18.902  0.00  0.00    +0.000 C 
ATOM     10  O   UNL     1      -0.639  13.440  18.258  0.00  0.00    +0.000 OA
ENDROOT
BRANCH   1  15
ATOM     11  C   UNL     1      -3.835  11.025  18.068  0.00  0.00    +0.000 A 
ATOM     12  C   UNL     1      -3.879  10.512  16.755  0.00  0.00    +0.000 A 
ATOM     13  C   UNL     1      -2.790   9.853  16.181  0.00  0.00    +0.000 A 
ATOM     14  C   UNL     1      -1.582   9.792  16.864  0.00  0.00    +0.000 A 
ATOM     15  C   UNL     1      -1.465  10.437  18.100  0.00  0.00    +0.000 A 
ATOM     16  C   UNL     1      -2.623  10.858  18.757  0.00  0.00    +0.000 A 
BRANCH  11  17
ATOM     17  C   UNL     1      -5.053  11.859  18.714  0.00  0.00    +0.000 C 
ATOM     18  C   UNL     1      -6.025  12.607  17.749  0.00  0.00    +0.000 C 
ATOM     19  O   UNL     1      -7.011  11.555  17.859  0.00  0.00    +0.000 OA
ATOM     20  C   UNL     1      -6.338  11.030  19.027  0.00  0.00    +0.000 C 
BRANCH  17  21
ATOM     21  C   UNL     1      -4.561  12.707  19.898  0.00  0.00    +0.000 C 
BRANCH  21  23
ATOM     22  C   UNL     1      -5.448  12.896  22.252  0.00  0.00    +0.000 C 
ATOM     23  C   UNL     1      -5.721  13.173  20.783  0.00  0.00    +0.000 C 
ENDBRANCH  21  23
ENDBRANCH  17  21
ENDBRANCH  11  17
ENDBRANCH   1  15
BRANCH   8  24
ATOM     24  C   UNL     1      -0.060   9.239  22.527  0.00  0.00    +0.000 C 
ATOM     25  F   UNL     1       1.156   8.732  22.193  0.00  0.00    +0.000 F 
ATOM     26  F   UNL     1      -0.148   9.122  23.880  0.00  0.00    +0.000 F 
ATOM     27  F   UNL     1      -0.981   8.376  22.015  0.00  0.00    +0.000 F 
ENDBRANCH   8  24
BRANCH   6  28
ATOM     28  C   UNL     1      -1.982  13.823  23.453  0.00  0.00    +0.000 C 
ATOM     29  F   UNL     1      -2.902  13.183  24.226  0.00  0.00    +0.000 F 
ENDBRANCH   6  28
TORSDOF 6
ENDMDL
MODEL 7
REMARK VINA RESULT:      -7.4      1.454      2.057
REMARK  Name = 
REMARK  7 active torsions:
REMARK  status: ('A' for Active; 'I' for Inactive)
REMARK    1  A    between atoms: C_1  and  C_2
REMARK    2  A    between atoms: C_2  and  C_3
REMARK    3  A    between atoms: C_3  and  C_4
REMARK    4  A    between atoms: C_4  and  C_5
REMARK    5  A    between atoms: C_9  and  N_10
REMARK    6  A    between atoms: C_15  and  C_16
REMARK    7  A    between atoms: C_19  and  C_20
REMARK                            x       y       z     vdW  Elec       q    Type
REMARK                         _______ _______ _______ _____ _____    ______ ____
ROOT
ATOM      1  N   UNL     1       0.449   9.246  20.763  0.00  0.00    +0.000 N 
ATOM      2  C   UNL     1      -0.815   9.343  19.984  0.00  0.00    +0.000 C 
ATOM      3  C   UNL     1      -0.809  10.773  19.549  0.00  0.00    +0.000 A 
ATOM      4  C   UNL     1      -0.048  11.489  20.474  0.00  0.00    +0.000 A 
ATOM      5  C   UNL     1       0.277  12.821  20.314  0.00  0.00    +0.000 A 
ATOM      6  C   UNL     1      -0.163  13.461  19.151  0.00  0.00    +0.000 A 
ATOM      7  C   UNL     1      -0.926  12.740  18.203  0.00  0.00    +0.000 A 
ATOM      8  C   UNL     1      -1.263  11.380  18.383  0.00  0.00    +0.000 A 
ATOM      9  C   UNL     1       0.655  10.519  21.345  0.00  0.00    +0.000 C 
ATOM     10  O   UNL     1       1.415  10.837  22.239  0.00  0.00    +0.000 OA
ENDROOT
BRANCH   1  15
ATOM     11  C   UNL     1       2.212   6.557  19.082  0.00  0.00    +0.000 A 
ATOM     12  C   UNL     1       2.332   7.159  17.813  0.00  0.00    +0.000 A 
ATOM     13  C   UNL     1       2.193   8.537  17.631  0.00  0.00    +0.000 A 
ATOM     14  C   UNL     1       1.814   9.340  18.700  0.00  0.00    +0.000 A 
ATOM     15  C   UNL     1       1.529   8.742  19.932  0.00  0.00    +0.000 A 
ATOM     16  C   UNL     1       1.921   7.420  20.151  0.00  0.00    +0.000 A 
BRANCH  11  17
ATOM     17  C   UNL     1       2.287   4.962  19.295  0.00  0.00    +0.000 C 
ATOM     18  C   UNL     1       2.331   4.052  18.027  0.00  0.00    +0.000 C 
ATOM     19  O   UNL     1       3.763   3.888  18.143  0.00  0.00    +0.000 OA
ATOM     20  C   UNL     1       3.721   4.383  19.502  0.00  0.00    +0.000 C 
BRANCH  17  21
ATOM     21  C   UNL     1       1.279   4.510  20.363  0.00  0.00    +0.000 C 
BRANCH  21  23
ATOM     22  C   UNL     1       1.618   2.479  21.821  0.00  0.00    +0.000 C 
ATOM     23  C   UNL     1       1.192   2.983  20.453  0.00  0.00    +0.000 C 
ENDBRANCH  21  23
ENDBRANCH  17  21
ENDBRANCH  11  17
ENDBRANCH   1  15
BRANCH   8  24
ATOM     24  C   UNL     1      -1.985  10.645  17.278  0.00  0.00    +0.000 C 
ATOM     25  F   UNL     1      -3.190  10.136  17.647  0.00  0.00    +0.000 F 
ATOM     26  F   UNL     1      -2.236  11.447  16.208  0.00  0.00    +0.000 F 
ATOM     27  F   UNL     1      -1.263   9.594  16.798  0.00  0.00    +0.000 F 
ENDBRANCH   8  24
BRANCH   6  28
ATOM     28  C   UNL     1       0.262  14.881  18.885  0.00  0.00    +0.000 C 
ATOM     29  F   UNL     1      -0.751  15.665  18.421  0.00  0.00    +0.000 F 
ENDBRANCH   6  28
TORSDOF 6
ENDMDL
MODEL 8
REMARK VINA RESULT:      -7.3      1.257      1.681
REMARK  Name = 
REMARK  7 active torsions:
REMARK  status: ('A' for Active; 'I' for Inactive)
REMARK    1  A    between atoms: C_1  and  C_2
REMARK    2  A    between atoms: C_2  and  C_3
REMARK    3  A    between atoms: C_3  and  C_4
REMARK    4  A    between atoms: C_4  and  C_5
REMARK    5  A    between atoms: C_9  and  N_10
REMARK    6  A    between atoms: C_15  and  C_16
REMARK    7  A    between atoms: C_19  and  C_20
REMARK                            x       y       z     vdW  Elec       q    Type
REMARK                         _______ _______ _______ _____ _____    ______ ____
ROOT
ATOM      1  N   UNL     1       0.646   8.487  21.051  0.00  0.00    +0.000 N 
ATOM      2  C   UNL     1      -0.608   8.767  20.301  0.00  0.00    +0.000 C 
ATOM      3  C   UNL     1      -0.559  10.254  20.149  0.00  0.00    +0.000 A 
ATOM      4  C   UNL     1       0.213  10.756  21.197  0.00  0.00    +0.000 A 
ATOM      5  C   UNL     1       0.576  12.085  21.297  0.00  0.00    +0.000 A 
ATOM      6  C   UNL     1       0.163  12.949  20.277  0.00  0.00    +0.000 A 
ATOM      7  C   UNL     1      -0.611  12.445  19.205  0.00  0.00    +0.000 A 
ATOM      8  C   UNL     1      -0.987  11.086  19.120  0.00  0.00    +0.000 A 
ATOM      9  C   UNL     1       0.882   9.618  21.868  0.00  0.00    +0.000 C 
ATOM     10  O   UNL     1       1.643   9.737  22.809  0.00  0.00    +0.000 OA
ENDROOT
BRANCH   1  15
ATOM     11  C   UNL     1       2.416   6.088  18.984  0.00  0.00    +0.000 A 
ATOM     12  C   UNL     1       2.508   6.864  17.810  0.00  0.00    +0.000 A 
ATOM     13  C   UNL     1       2.348   8.251  17.826  0.00  0.00    +0.000 A 
ATOM     14  C   UNL     1       1.975   8.890  19.002  0.00  0.00    +0.000 A 
ATOM     15  C   UNL     1       1.719   8.121  20.143  0.00  0.00    +0.000 A 
ATOM     16  C   UNL     1       2.131   6.788  20.168  0.00  0.00    +0.000 A 
BRANCH  11  17
ATOM     17  C   UNL     1       2.516   4.480  18.970  0.00  0.00    +0.000 C 
ATOM     18  C   UNL     1       1.199   3.660  19.148  0.00  0.00    +0.000 C 
ATOM     19  O   UNL     1       1.105   3.422  17.725  0.00  0.00    +0.000 OA
ATOM     20  C   UNL     1       2.485   3.821  17.555  0.00  0.00    +0.000 C 
BRANCH  17  21
ATOM     21  C   UNL     1       3.682   4.001  19.848  0.00  0.00    +0.000 C 
BRANCH  21  23
ATOM     22  C   UNL     1       5.828   5.118  19.132  0.00  0.00    +0.000 C 
ATOM     23  C   UNL     1       4.979   3.861  19.046  0.00  0.00    +0.000 C 
ENDBRANCH  21  23
ENDBRANCH  17  21
ENDBRANCH  11  17
ENDBRANCH   1  15
BRANCH   8  24
ATOM     24  C   UNL     1      -1.718  10.597  17.892  0.00  0.00    +0.000 C 
ATOM     25  F   UNL     1      -1.018   9.700  17.150  0.00  0.00    +0.000 F 
ATOM     26  F   UNL     1      -2.890   9.981  18.206  0.00  0.00    +0.000 F 
ATOM     27  F   UNL     1      -2.044  11.614  17.046  0.00  0.00    +0.000 F 
ENDBRANCH   8  24
BRANCH   6  28
ATOM     28  C   UNL     1       0.629  14.380  20.290  0.00  0.00    +0.000 C 
ATOM     29  F   UNL     1       0.402  15.029  19.114  0.00  0.00    +0.000 F 
ENDBRANCH   6  28
TORSDOF 6
ENDMDL
MODEL 9
REMARK VINA RESULT:      -7.2      1.386      1.597
REMARK  Name = 
REMARK  7 active torsions:
REMARK  status: ('A' for Active; 'I' for Inactive)
REMARK    1  A    between atoms: C_1  and  C_2
REMARK    2  A    between atoms: C_2  and  C_3
REMARK    3  A    between atoms: C_3  and  C_4
REMARK    4  A    between atoms: C_4  and  C_5
REMARK    5  A    between atoms: C_9  and  N_10
REMARK    6  A    between atoms: C_15  and  C_16
REMARK    7  A    between atoms: C_19  and  C_20
REMARK                            x       y       z     vdW  Elec       q    Type
REMARK                         _______ _______ _______ _____ _____    ______ ____
ROOT
ATOM      1  N   UNL     1       0.303   9.153  20.734  0.00  0.00    +0.000 N 
ATOM      2  C   UNL     1      -0.930   9.162  19.902  0.00  0.00    +0.000 C 
ATOM      3  C   UNL     1      -1.000  10.589  19.458  0.00  0.00    +0.000 A 
ATOM      4  C   UNL     1      -0.329  11.356  20.411  0.00  0.00    +0.000 A 
ATOM      5  C   UNL     1      -0.086  12.707  20.256  0.00  0.00    +0.000 A 
ATOM      6  C   UNL     1      -0.518  13.312  19.071  0.00  0.00    +0.000 A 
ATOM      7  C   UNL     1      -1.190  12.538  18.096  0.00  0.00    +0.000 A 
ATOM      8  C   UNL     1      -1.444  11.160  18.270  0.00  0.00    +0.000 A 
ATOM      9  C   UNL     1       0.399  10.438  21.316  0.00  0.00    +0.000 C 
ATOM     10  O   UNL     1       1.098  10.810  22.240  0.00  0.00    +0.000 OA
ENDROOT
BRANCH   1  15
ATOM     11  C   UNL     1       2.357   6.575  19.217  0.00  0.00    +0.000 A 
ATOM     12  C   UNL     1       2.456   7.133  17.925  0.00  0.00    +0.000 A 
ATOM     13  C   UNL     1       2.194   8.482  17.680  0.00  0.00    +0.000 A 
ATOM     14  C   UNL     1       1.711   9.289  18.702  0.00  0.00    +0.000 A 
ATOM     15  C   UNL     1       1.449   8.719  19.953  0.00  0.00    +0.000 A 
ATOM     16  C   UNL     1       1.956   7.451  20.240  0.00  0.00    +0.000 A 
BRANCH  11  17
ATOM     17  C   UNL     1       2.575   5.005  19.502  0.00  0.00    +0.000 C 
ATOM     18  C   UNL     1       2.379   4.489  20.962  0.00  0.00    +0.000 C 
ATOM     19  O   UNL     1       1.053   3.998  20.657  0.00  0.00    +0.000 OA
ATOM     20  C   UNL     1       1.330   4.100  19.240  0.00  0.00    +0.000 C 
BRANCH  17  21
ATOM     21  C   UNL     1       3.857   4.503  18.821  0.00  0.00    +0.000 C 
BRANCH  21  23
ATOM     22  C   UNL     1       6.281   5.103  18.463  0.00  0.00    +0.000 C 
ATOM     23  C   UNL     1       5.111   5.136  19.431  0.00  0.00    +0.000 C 
ENDBRANCH  21  23
ENDBRANCH  17  21
ENDBRANCH  11  17
ENDBRANCH   1  15
BRANCH   8  24
ATOM     24  C   UNL     1      -2.067  10.375  17.141  0.00  0.00    +0.000 C 
ATOM     25  F   UNL     1      -3.234   9.761  17.471  0.00  0.00    +0.000 F 
ATOM     26  F   UNL     1      -2.355  11.161  16.068  0.00  0.00    +0.000 F 
ATOM     27  F   UNL     1      -1.244   9.394  16.677  0.00  0.00    +0.000 F 
ENDBRANCH   8  24
BRANCH   6  28
ATOM     28  C   UNL     1      -0.178  14.756  18.814  0.00  0.00    +0.000 C 
ATOM     29  F   UNL     1       1.114  14.941  18.425  0.00  0.00    +0.000 F 
ENDBRANCH   6  28
TORSDOF 6
ENDMDL
