MODEL 1
REMARK VINA RESULT:      -8.7      0.000      0.000
REMARK  Name = 
REMARK  2 active torsions:
REMARK  status: ('A' for Active; 'I' for Inactive)
REMARK    1  A    between atoms: C_2  and  C_3
REMARK    2  A    between atoms: C_16  and  C_17
REMARK                            x       y       z     vdW  Elec       q    Type
REMARK                         _______ _______ _______ _____ _____    ______ ____
ROOT
ATOM      1  O   UNL     1       4.493   2.902  17.453  0.00  0.00    +0.000 OA
ATOM      2  C   UNL     1       4.745   4.064  17.130  0.00  0.00    +0.000 C 
ATOM      3  N   UNL     1       4.287   5.138  17.881  0.00  0.00    +0.000 N 
ATOM      4  C   UNL     1       3.765   4.857  19.217  0.00  0.00    +0.000 C 
ATOM      5  C   UNL     1       2.871   5.952  19.728  0.00  0.00    +0.000 C 
ATOM      6  C   UNL     1       2.657   7.109  19.074  0.00  0.00    +0.000 C 
ATOM      7  C   UNL     1       3.331   7.420  17.786  0.00  0.00    +0.000 C 
ATOM      8  C   UNL     1       4.544   6.551  17.593  0.00  0.00    +0.000 C 
ENDROOT
BRANCH   2   9
ATOM      9  C   UNL     1       5.529   4.303  15.883  0.00  0.00    +0.000 A 
ATOM     10  C   UNL     1       4.899   4.214  14.694  0.00  0.00    +0.000 A 
ATOM     11  C   UNL     1       5.678   4.381  13.493  0.00  0.00    +0.000 A 
ATOM     12  C   UNL     1       6.796   5.128  13.510  0.00  0.00    +0.000 A 
ATOM     13  N   UNL     1       7.402   5.346  14.729  0.00  0.00    +0.000 N 
ATOM     14  C   UNL     1       6.998   4.552  15.795  0.00  0.00    +0.000 A 
ATOM     15  O   UNL     1       7.823   4.102  16.586  0.00  0.00    +0.000 OA
ATOM     16  C   UNL     1       7.644   4.873  12.306  0.00  0.00    +0.000 C 
ATOM     17  C   UNL     1       7.341   3.383  12.191  0.00  0.00    +0.000 C 
ATOM     18  C   UNL     1       5.826   3.301  12.462  0.00  0.00    +0.000 C 
ATOM     19  H   UNL     1       8.402   5.514  14.722  0.00  0.00    +0.000 HD
ENDBRANCH   2   9
BRANCH   6  20
ATOM     20  C   UNL     1       1.781   8.155  19.578  0.00  0.00    +0.000 A 
ATOM     21  C   UNL     1       1.360   9.181  18.727  0.00  0.00    +0.000 A 
ATOM     22  C   UNL     1       0.457  10.139  19.186  0.00  0.00    +0.000 A 
ATOM     23  C   UNL     1      -0.026  10.070  20.491  0.00  0.00    +0.000 A 
ATOM     24  C   UNL     1       0.387   9.040  21.339  0.00  0.00    +0.000 A 
ATOM     25  C   UNL     1       1.288   8.081  20.881  0.00  0.00    +0.000 A 
ENDBRANCH   6  20
TORSDOF 2
ENDMDL
MODEL 2
REMARK VINA RESULT:      -7.9      2.161      3.673
REMARK  Name = 
REMARK  2 active torsions:
REMARK  status: ('A' for Active; 'I' for Inactive)
REMARK    1  A    between atoms: C_2  and  C_3
REMARK    2  A    between atoms: C_16  and  C_17
REMARK                            x       y       z     vdW  Elec       q    Type
REMARK                         _______ _______ _______ _____ _____    ______ ____
ROOT
ATOM      1  O   UNL     1       2.269   4.890  20.267  0.00  0.00    +0.000 OA
ATOM      2  C   UNL     1       2.707   5.636  19.389  0.00  0.00    +0.000 C 
ATOM      3  N   UNL     1       2.392   6.987  19.365  0.00  0.00    +0.000 N 
ATOM      4  C   UNL     1       1.786   7.563  20.565  0.00  0.00    +0.000 C 
ATOM      5  C   UNL     1       1.053   8.844  20.282  0.00  0.00    +0.000 C 
ATOM      6  C   UNL     1       1.042   9.448  19.079  0.00  0.00    +0.000 C 
ATOM      7  C   UNL     1       1.800   8.909  17.920  0.00  0.00    +0.000 C 
ATOM      8  C   UNL     1       2.872   7.958  18.379  0.00  0.00    +0.000 C 
ENDROOT
BRANCH   2   9
ATOM      9  C   UNL     1       3.562   5.047  18.317  0.00  0.00    +0.000 A 
ATOM     10  C   UNL     1       4.708   5.674  17.984  0.00  0.00    +0.000 A 
ATOM     11  C   UNL     1       5.494   5.135  16.902  0.00  0.00    +0.000 A 
ATOM     12  C   UNL     1       5.439   3.823  16.616  0.00  0.00    +0.000 A 
ATOM     13  N   UNL     1       4.337   3.118  17.051  0.00  0.00    +0.000 N 
ATOM     14  C   UNL     1       3.240   3.850  17.485  0.00  0.00    +0.000 A 
ATOM     15  O   UNL     1       2.100   3.507  17.182  0.00  0.00    +0.000 OA
ATOM     16  C   UNL     1       6.007   3.533  15.265  0.00  0.00    +0.000 C 
ATOM     17  C   UNL     1       5.514   4.807  14.590  0.00  0.00    +0.000 C 
ATOM     18  C   UNL     1       5.781   5.901  15.644  0.00  0.00    +0.000 C 
ATOM     19  H   UNL     1       4.074   2.298  16.514  0.00  0.00    +0.000 HD
ENDBRANCH   2   9
BRANCH   6  20
ATOM     20  C   UNL     1       0.319  10.684  18.818  0.00  0.00    +0.000 A 
ATOM     21  C   UNL     1       0.964  11.915  18.970  0.00  0.00    +0.000 A 
ATOM     22  C   UNL     1       0.297  13.094  18.644  0.00  0.00    +0.000 A 
ATOM     23  C   UNL     1      -1.009  13.045  18.163  0.00  0.00    +0.000 A 
ATOM     24  C   UNL     1      -1.652  11.814  18.002  0.00  0.00    +0.000 A 
ATOM     25  C   UNL     1      -0.986  10.634  18.326  0.00  0.00    +0.000 A 
ENDBRANCH   6  20
TORSDOF 2
ENDMDL
MODEL 3
REMARK VINA RESULT:      -7.8      2.280      3.857
REMARK  Name = 
REMARK  2 active torsions:
REMARK  status: ('A' for Active; 'I' for Inactive)
REMARK    1  A    between atoms: C_2  and  C_3
REMARK    2  A    between atoms: C_16  and  C_17
REMARK                            x       y       z     vdW  Elec       q    Type
REMARK                         _______ _______ _______ _____ _____    ______ ____
ROOT
ATOM      1  O   UNL     1       2.406   5.057  20.690  0.00  0.00    +0.000 OA
ATOM      2  C   UNL     1       2.671   5.782  19.729  0.00  0.00    +0.000 C 
ATOM      3  N   UNL     1       2.213   7.091  19.664  0.00  0.00    +0.000 N 
ATOM      4  C   UNL     1       1.674   7.682  20.888  0.00  0.00    +0.000 C 
ATOM      5  C   UNL     1       0.783   8.861  20.615  0.00  0.00    +0.000 C 
ATOM      6  C   UNL     1       0.585   9.379  19.388  0.00  0.00    +0.000 C 
ATOM      7  C   UNL     1       1.274   8.842  18.186  0.00  0.00    +0.000 C 
ATOM      8  C   UNL     1       2.483   8.036  18.579  0.00  0.00    +0.000 C 
ENDROOT
BRANCH   2   9
ATOM      9  C   UNL     1       3.470   5.212  18.606  0.00  0.00    +0.000 A 
ATOM     10  C   UNL     1       4.717   5.680  18.393  0.00  0.00    +0.000 A 
ATOM     11  C   UNL     1       5.456   5.170  17.266  0.00  0.00    +0.000 A 
ATOM     12  C   UNL     1       5.205   3.936  16.794  0.00  0.00    +0.000 A 
ATOM     13  N   UNL     1       3.984   3.371  17.097  0.00  0.00    +0.000 N 
ATOM     14  C   UNL     1       2.999   4.209  17.605  0.00  0.00    +0.000 A 
ATOM     15  O   UNL     1       1.835   4.105  17.228  0.00  0.00    +0.000 OA
ATOM     16  C   UNL     1       5.782   3.743  15.430  0.00  0.00    +0.000 C 
ATOM     17  C   UNL     1       5.533   5.162  14.932  0.00  0.00    +0.000 C 
ATOM     18  C   UNL     1       5.921   6.041  16.137  0.00  0.00    +0.000 C 
ATOM     19  H   UNL     1       3.619   2.688  16.443  0.00  0.00    +0.000 HD
ENDBRANCH   2   9
BRANCH   6  20
ATOM     20  C   UNL     1      -0.289  10.516  19.138  0.00  0.00    +0.000 A 
ATOM     21  C   UNL     1      -1.175  10.489  18.057  0.00  0.00    +0.000 A 
ATOM     22  C   UNL     1      -2.067  11.542  17.865  0.00  0.00    +0.000 A 
ATOM     23  C   UNL     1      -2.078  12.617  18.751  0.00  0.00    +0.000 A 
ATOM     24  C   UNL     1      -1.199  12.639  19.837  0.00  0.00    +0.000 A 
ATOM     25  C   UNL     1      -0.307  11.587  20.032  0.00  0.00    +0.000 A 
ENDBRANCH   6  20
TORSDOF 2
ENDMDL
MODEL 4
REMARK VINA RESULT:      -7.8      4.582      9.444
REMARK  Name = 
REMARK  2 active torsions:
REMARK  status: ('A' for Active; 'I' for Inactive)
REMARK    1  A    between atoms: C_2  and  C_3
REMARK    2  A    between atoms: C_16  and  C_17
REMARK                            x       y       z     vdW  Elec       q    Type
REMARK                         _______ _______ _______ _____ _____    ______ ____
ROOT
ATOM      1  O   UNL     1       1.013  10.409  22.072  0.00  0.00    +0.000 OA
ATOM      2  C   UNL     1       0.950  10.502  20.845  0.00  0.00    +0.000 C 
ATOM      3  N   UNL     1       1.242   9.423  20.023  0.00  0.00    +0.000 N 
ATOM      4  C   UNL     1       1.327   8.102  20.644  0.00  0.00    +0.000 C 
ATOM      5  C   UNL     1       2.107   7.123  19.812  0.00  0.00    +0.000 C 
ATOM      6  C   UNL     1       2.585   7.401  18.584  0.00  0.00    +0.000 C 
ATOM      7  C   UNL     1       2.344   8.710  17.923  0.00  0.00    +0.000 C 
ATOM      8  C   UNL     1       1.183   9.424  18.560  0.00  0.00    +0.000 C 
ENDROOT
BRANCH   2   9
ATOM      9  C   UNL     1       0.586  11.821  20.249  0.00  0.00    +0.000 A 
ATOM     10  C   UNL     1       1.567  12.707  19.987  0.00  0.00    +0.000 A 
ATOM     11  C   UNL     1       1.201  14.003  19.472  0.00  0.00    +0.000 A 
ATOM     12  C   UNL     1       0.071  14.152  18.759  0.00  0.00    +0.000 A 
ATOM     13  N   UNL     1      -0.910  13.194  18.906  0.00  0.00    +0.000 N 
ATOM     14  C   UNL     1      -0.795  12.319  19.979  0.00  0.00    +0.000 A 
ATOM     15  O   UNL     1      -1.783  12.005  20.638  0.00  0.00    +0.000 OA
ATOM     16  C   UNL     1      -0.321  15.589  18.647  0.00  0.00    +0.000 C 
ATOM     17  C   UNL     1       0.141  16.006  20.038  0.00  0.00    +0.000 C 
ATOM     18  C   UNL     1       1.492  15.280  20.203  0.00  0.00    +0.000 C 
ATOM     19  H   UNL     1      -1.867  13.486  18.739  0.00  0.00    +0.000 HD
ENDBRANCH   2   9
BRANCH   6  20
ATOM     20  C   UNL     1       3.347   6.445  17.794  0.00  0.00    +0.000 A 
ATOM     21  C   UNL     1       4.467   6.871  17.074  0.00  0.00    +0.000 A 
ATOM     22  C   UNL     1       5.243   5.943  16.383  0.00  0.00    +0.000 A 
ATOM     23  C   UNL     1       4.904   4.592  16.413  0.00  0.00    +0.000 A 
ATOM     24  C   UNL     1       3.790   4.164  17.140  0.00  0.00    +0.000 A 
ATOM     25  C   UNL     1       3.014   5.090  17.833  0.00  0.00    +0.000 A 
ENDBRANCH   6  20
TORSDOF 2
ENDMDL
MODEL 5
REMARK VINA RESULT:      -7.5      3.510      4.629
REMARK  Name = 
REMARK  2 active torsions:
REMARK  status: ('A' for Active; 'I' for Inactive)
REMARK    1  A    between atoms: C_2  and  C_3
REMARK    2  A    between atoms: C_16  and  C_17
REMARK                            x       y       z     vdW  Elec       q    Type
REMARK                         _______ _______ _______ _____ _____    ______ ____
ROOT
ATOM      1  O   UNL     1       4.245   7.490  16.993  0.00  0.00    +0.000 OA
ATOM      2  C   UNL     1       3.432   6.940  17.739  0.00  0.00    +0.000 C 
ATOM      3  N   UNL     1       2.439   7.663  18.385  0.00  0.00    +0.000 N 
ATOM      4  C   UNL     1       2.188   9.029  17.925  0.00  0.00    +0.000 C 
ATOM      5  C   UNL     1       1.486   9.864  18.958  0.00  0.00    +0.000 C 
ATOM      6  C   UNL     1       1.045   9.382  20.135  0.00  0.00    +0.000 C 
ATOM      7  C   UNL     1       1.184   7.948  20.500  0.00  0.00    +0.000 C 
ATOM      8  C   UNL     1       1.419   7.106  19.275  0.00  0.00    +0.000 C 
ENDROOT
BRANCH   2   9
ATOM      9  C   UNL     1       3.559   5.471  17.970  0.00  0.00    +0.000 A 
ATOM     10  C   UNL     1       2.617   4.651  17.462  0.00  0.00    +0.000 A 
ATOM     11  C   UNL     1       2.712   3.241  17.746  0.00  0.00    +0.000 A 
ATOM     12  C   UNL     1       3.908   2.679  17.990  0.00  0.00    +0.000 A 
ATOM     13  N   UNL     1       4.934   3.507  18.393  0.00  0.00    +0.000 N 
ATOM     14  C   UNL     1       4.597   4.792  18.800  0.00  0.00    +0.000 A 
ATOM     15  O   UNL     1       5.135   5.297  19.782  0.00  0.00    +0.000 OA
ATOM     16  C   UNL     1       3.763   1.333  18.622  0.00  0.00    +0.000 C 
ATOM     17  C   UNL     1       2.534   1.665  19.460  0.00  0.00    +0.000 C 
ATOM     18  C   UNL     1       1.654   2.490  18.500  0.00  0.00    +0.000 C 
ATOM     19  H   UNL     1       5.662   3.093  18.964  0.00  0.00    +0.000 HD
ENDBRANCH   2   9
BRANCH   6  20
ATOM     20  C   UNL     1       0.375  10.207  21.129  0.00  0.00    +0.000 A 
ATOM     21  C   UNL     1       0.203  11.575  20.899  0.00  0.00    +0.000 A 
ATOM     22  C   UNL     1      -0.509  12.349  21.813  0.00  0.00    +0.000 A 
ATOM     23  C   UNL     1      -1.051  11.758  22.953  0.00  0.00    +0.000 A 
ATOM     24  C   UNL     1      -0.888  10.389  23.179  0.00  0.00    +0.000 A 
ATOM     25  C   UNL     1      -0.178   9.613  22.265  0.00  0.00    +0.000 A 
ENDBRANCH   6  20
TORSDOF 2
ENDMDL
MODEL 6
REMARK VINA RESULT:      -7.4      3.612      8.926
REMARK  Name = 
REMARK  2 active torsions:
REMARK  status: ('A' for Active; 'I' for Inactive)
REMARK    1  A    between atoms: C_2  and  C_3
REMARK    2  A    between atoms: C_16  and  C_17
REMARK                            x       y       z     vdW  Elec       q    Type
REMARK                         _______ _______ _______ _____ _____    ______ ____
ROOT
ATOM      1  O   UNL     1       0.989   8.728  21.555  0.00  0.00    +0.000 OA
ATOM      2  C   UNL     1       1.171   9.010  20.370  0.00  0.00    +0.000 C 
ATOM      3  N   UNL     1       1.789   8.121  19.501  0.00  0.00    +0.000 N 
ATOM      4  C   UNL     1       1.940   6.736  19.944  0.00  0.00    +0.000 C 
ATOM      5  C   UNL     1       3.015   6.004  19.191  0.00  0.00    +0.000 C 
ATOM      6  C   UNL     1       3.692   6.532  18.154  0.00  0.00    +0.000 C 
ATOM      7  C   UNL     1       3.400   7.894  17.635  0.00  0.00    +0.000 C 
ATOM      8  C   UNL     1       2.037   8.353  18.077  0.00  0.00    +0.000 C 
ENDROOT
BRANCH   2   9
ATOM      9  C   UNL     1       0.746  10.356  19.886  0.00  0.00    +0.000 A 
ATOM     10  C   UNL     1       1.355  11.449  20.388  0.00  0.00    +0.000 A 
ATOM     11  C   UNL     1       0.893  12.747  19.964  0.00  0.00    +0.000 A 
ATOM     12  C   UNL     1       0.318  12.899  18.758  0.00  0.00    +0.000 A 
ATOM     13  N   UNL     1      -0.208  11.777  18.154  0.00  0.00    +0.000 N 
ATOM     14  C   UNL     1      -0.373  10.644  18.940  0.00  0.00    +0.000 A 
ATOM     15  O   UNL     1      -1.385   9.955  18.838  0.00  0.00    +0.000 OA
ATOM     16  C   UNL     1      -0.419  14.195  18.662  0.00  0.00    +0.000 C 
ATOM     17  C   UNL     1      -0.910  14.225  20.104  0.00  0.00    +0.000 C 
ATOM     18  C   UNL     1       0.315  13.755  20.913  0.00  0.00    +0.000 C 
ATOM     19  H   UNL     1      -0.975  11.920  17.506  0.00  0.00    +0.000 HD
ENDBRANCH   2   9
BRANCH   6  20
ATOM     20  C   UNL     1       4.737   5.814  17.441  0.00  0.00    +0.000 A 
ATOM     21  C   UNL     1       4.453   4.584  16.840  0.00  0.00    +0.000 A 
ATOM     22  C   UNL     1       5.431   3.935  16.089  0.00  0.00    +0.000 A 
ATOM     23  C   UNL     1       6.688   4.513  15.935  0.00  0.00    +0.000 A 
ATOM     24  C   UNL     1       6.971   5.747  16.527  0.00  0.00    +0.000 A 
ATOM     25  C   UNL     1       5.994   6.399  17.277  0.00  0.00    +0.000 A 
ENDBRANCH   6  20
TORSDOF 2
ENDMDL
MODEL 7
REMARK VINA RESULT:      -7.4      2.096      3.307
REMARK  Name = 
REMARK  2 active torsions:
REMARK  status: ('A' for Active; 'I' for Inactive)
REMARK    1  A    between atoms: C_2  and  C_3
REMARK    2  A    between atoms: C_16  and  C_17
REMARK                            x       y       z     vdW  Elec       q    Type
REMARK                         _______ _______ _______ _____ _____    ______ ____
ROOT
ATOM      1  O   UNL     1       3.117   5.283  20.225  0.00  0.00    +0.000 OA
ATOM      2  C   UNL     1       3.344   6.145  19.374  0.00  0.00    +0.000 C 
ATOM      3  N   UNL     1       2.615   7.326  19.330  0.00  0.00    +0.000 N 
ATOM      4  C   UNL     1       1.790   7.656  20.491  0.00  0.00    +0.000 C 
ATOM      5  C   UNL     1       0.703   8.641  20.164  0.00  0.00    +0.000 C 
ATOM      6  C   UNL     1       0.568   9.232  18.962  0.00  0.00    +0.000 C 
ATOM      7  C   UNL     1       1.523   8.984  17.850  0.00  0.00    +0.000 C 
ATOM      8  C   UNL     1       2.815   8.416  18.374  0.00  0.00    +0.000 C 
ENDROOT
BRANCH   2   9
ATOM      9  C   UNL     1       4.401   5.879  18.355  0.00  0.00    +0.000 A 
ATOM     10  C   UNL     1       4.044   5.787  17.059  0.00  0.00    +0.000 A 
ATOM     11  C   UNL     1       5.061   5.465  16.090  0.00  0.00    +0.000 A 
ATOM     12  C   UNL     1       6.344   5.792  16.323  0.00  0.00    +0.000 A 
ATOM     13  N   UNL     1       6.721   6.017  17.629  0.00  0.00    +0.000 N 
ATOM     14  C   UNL     1       5.844   5.610  18.627  0.00  0.00    +0.000 A 
ATOM     15  O   UNL     1       6.265   5.066  19.645  0.00  0.00    +0.000 OA
ATOM     16  C   UNL     1       7.271   5.056  15.411  0.00  0.00    +0.000 C 
ATOM     17  C   UNL     1       6.478   3.755  15.367  0.00  0.00    +0.000 C 
ATOM     18  C   UNL     1       5.016   4.227  15.243  0.00  0.00    +0.000 C 
ATOM     19  H   UNL     1       7.691   5.843  17.865  0.00  0.00    +0.000 HD
ENDBRANCH   2   9
BRANCH   6  20
ATOM     20  C   UNL     1      -0.496  10.177  18.657  0.00  0.00    +0.000 A 
ATOM     21  C   UNL     1      -1.279  10.000  17.513  0.00  0.00    +0.000 A 
ATOM     22  C   UNL     1      -2.349  10.858  17.263  0.00  0.00    +0.000 A 
ATOM     23  C   UNL     1      -2.638  11.887  18.156  0.00  0.00    +0.000 A 
ATOM     24  C   UNL     1      -1.862  12.059  19.305  0.00  0.00    +0.000 A 
ATOM     25  C   UNL     1      -0.794  11.201  19.557  0.00  0.00    +0.000 A 
ENDBRANCH   6  20
TORSDOF 2
ENDMDL
MODEL 8
REMARK VINA RESULT:      -7.4      2.137      3.314
REMARK  Name = 
REMARK  2 active torsions:
REMARK  status: ('A' for Active; 'I' for Inactive)
REMARK    1  A    between atoms: C_2  and  C_3
REMARK    2  A    between atoms: C_16  and  C_17
REMARK                            x       y       z     vdW  Elec       q    Type
REMARK                         _______ _______ _______ _____ _____    ______ ____
ROOT
ATOM      1  O   UNL     1       3.254   5.538  19.856  0.00  0.00    +0.000 OA
ATOM      2  C   UNL     1       3.283   6.354  18.934  0.00  0.00    +0.000 C 
ATOM      3  N   UNL     1       2.547   7.530  18.987  0.00  0.00    +0.000 N 
ATOM      4  C   UNL     1       1.986   7.921  20.279  0.00  0.00    +0.000 C 
ATOM      5  C   UNL     1       0.842   8.885  20.142  0.00  0.00    +0.000 C 
ATOM      6  C   UNL     1       0.444   9.412  18.969  0.00  0.00    +0.000 C 
ATOM      7  C   UNL     1       1.142   9.106  17.693  0.00  0.00    +0.000 C 
ATOM      8  C   UNL     1       2.523   8.569  17.955  0.00  0.00    +0.000 C 
ENDROOT
BRANCH   2   9
ATOM      9  C   UNL     1       4.100   6.036  17.727  0.00  0.00    +0.000 A 
ATOM     10  C   UNL     1       3.922   4.847  17.117  0.00  0.00    +0.000 A 
ATOM     11  C   UNL     1       4.762   4.521  15.992  0.00  0.00    +0.000 A 
ATOM     12  C   UNL     1       5.278   5.500  15.228  0.00  0.00    +0.000 A 
ATOM     13  N   UNL     1       5.361   6.763  15.775  0.00  0.00    +0.000 N 
ATOM     14  C   UNL     1       5.189   6.878  17.149  0.00  0.00    +0.000 A 
ATOM     15  O   UNL     1       5.906   7.627  17.808  0.00  0.00    +0.000 OA
ATOM     16  C   UNL     1       6.396   4.997  14.375  0.00  0.00    +0.000 C 
ATOM     17  C   UNL     1       6.959   4.007  15.388  0.00  0.00    +0.000 C 
ATOM     18  C   UNL     1       5.700   3.350  15.989  0.00  0.00    +0.000 C 
ATOM     19  H   UNL     1       6.090   7.371  15.419  0.00  0.00    +0.000 HD
ENDBRANCH   2   9
BRANCH   6  20
ATOM     20  C   UNL     1      -0.671  10.338  18.852  0.00  0.00    +0.000 A 
ATOM     21  C   UNL     1      -1.551  10.236  17.770  0.00  0.00    +0.000 A 
ATOM     22  C   UNL     1      -2.665  11.071  17.700  0.00  0.00    +0.000 A 
ATOM     23  C   UNL     1      -2.903  12.002  18.708  0.00  0.00    +0.000 A 
ATOM     24  C   UNL     1      -2.029  12.098  19.794  0.00  0.00    +0.000 A 
ATOM     25  C   UNL     1      -0.916  11.263  19.868  0.00  0.00    +0.000 A 
ENDBRANCH   6  20
TORSDOF 2
ENDMDL
MODEL 9
REMARK VINA RESULT:      -7.4      3.718      5.006
REMARK  Name = 
REMARK  2 active torsions:
REMARK  status: ('A' for Active; 'I' for Inactive)
REMARK    1  A    between atoms: C_2  and  C_3
REMARK    2  A    between atoms: C_16  and  C_17
REMARK                            x       y       z     vdW  Elec       q    Type
REMARK                         _______ _______ _______ _____ _____    ______ ____
ROOT
ATOM      1  O   UNL     1       4.247   7.242  17.071  0.00  0.00    +0.000 OA
ATOM      2  C   UNL     1       3.551   6.794  17.984  0.00  0.00    +0.000 C 
ATOM      3  N   UNL     1       2.530   7.545  18.550  0.00  0.00    +0.000 N 
ATOM      4  C   UNL     1       2.102   8.750  17.840  0.00  0.00    +0.000 C 
ATOM      5  C   UNL     1       1.383   9.721  18.734  0.00  0.00    +0.000 C 
ATOM      6  C   UNL     1       1.076   9.466  20.020  0.00  0.00    +0.000 C 
ATOM      7  C   UNL     1       1.395   8.164  20.662  0.00  0.00    +0.000 C 
ATOM      8  C   UNL     1       1.639   7.102  19.624  0.00  0.00    +0.000 C 
ENDROOT
BRANCH   2   9
ATOM      9  C   UNL     1       3.852   5.428  18.505  0.00  0.00    +0.000 A 
ATOM     10  C   UNL     1       2.856   4.520  18.558  0.00  0.00    +0.000 A 
ATOM     11  C   UNL     1       3.141   3.225  19.122  0.00  0.00    +0.000 A 
ATOM     12  C   UNL     1       4.388   2.725  19.074  0.00  0.00    +0.000 A 
ATOM     13  N   UNL     1       5.427   3.613  18.895  0.00  0.00    +0.000 N 
ATOM     14  C   UNL     1       5.153   4.964  19.071  0.00  0.00    +0.000 A 
ATOM     15  O   UNL     1       5.947   5.691  19.661  0.00  0.00    +0.000 OA
ATOM     16  C   UNL     1       4.557   1.583  20.022  0.00  0.00    +0.000 C 
ATOM     17  C   UNL     1       3.654   2.131  21.121  0.00  0.00    +0.000 C 
ATOM     18  C   UNL     1       2.449   2.702  20.347  0.00  0.00    +0.000 C 
ATOM     19  H   UNL     1       6.331   3.345  19.268  0.00  0.00    +0.000 HD
ENDBRANCH   2   9
BRANCH   6  20
ATOM     20  C   UNL     1       0.388  10.421  20.875  0.00  0.00    +0.000 A 
ATOM     21  C   UNL     1      -0.292   9.974  22.012  0.00  0.00    +0.000 A 
ATOM     22  C   UNL     1      -0.883  10.895  22.875  0.00  0.00    +0.000 A 
ATOM     23  C   UNL     1      -0.793  12.258  22.606  0.00  0.00    +0.000 A 
ATOM     24  C   UNL     1      -0.105  12.706  21.475  0.00  0.00    +0.000 A 
ATOM     25  C   UNL     1       0.488  11.788  20.612  0.00  0.00    +0.000 A 
ENDBRANCH   6  20
TORSDOF 2
ENDMDL
