MODEL 1
REMARK VINA RESULT:      -9.3      0.000      0.000
REMARK  Name = 
REMARK  5 active torsions:
REMARK  status: ('A' for Active; 'I' for Inactive)
REMARK    1  A    between atoms: C_2  and  C_3
REMARK    2  A    between atoms: C_3  and  N_4
REMARK    3  A    between atoms: C_5  and  C_7
REMARK    4  A    between atoms: N_17  and  C_18
REMARK    5  A    between atoms: C_18  and  C_19
REMARK                            x       y       z     vdW  Elec       q    Type
REMARK                         _______ _______ _______ _____ _____    ______ ____
ROOT
ATOM      1  O   UNL     1       8.284   6.932  18.897  0.00  0.00    +0.000 OA
ATOM      2  C   UNL     1       7.729   7.280  17.857  0.00  0.00    +0.000 C 
ATOM      3  N   UNL     1       7.300   6.392  16.897  0.00  0.00    +0.000 N 
ATOM      4  H   UNL     1       6.993   6.756  16.000  0.00  0.00    +0.000 HD
ENDROOT
BRANCH   2   5
ATOM      5  C   UNL     1       7.525   8.753  17.505  0.00  0.00    +0.000 C 
BRANCH   5   6
ATOM      6  N   UNL     1       8.561   9.601  18.087  0.00  0.00    +0.000 N 
ATOM      7  C   UNL     1       8.538  10.961  17.882  0.00  0.00    +0.000 C 
ATOM      8  O   UNL     1       7.644  11.473  17.201  0.00  0.00    +0.000 OA
ATOM      9  H   UNL     1       9.278   9.167  18.649  0.00  0.00    +0.000 HD
BRANCH   7  10
ATOM     10  C   UNL     1       9.648  11.790  18.550  0.00  0.00    +0.000 C 
ATOM     11  C   UNL     1       9.286  13.293  18.660  0.00  0.00    +0.000 C 
ATOM     12  C   UNL     1      10.415  14.070  19.374  0.00  0.00    +0.000 C 
ATOM     13  C   UNL     1      10.622  13.497  20.787  0.00  0.00    +0.000 C 
ATOM     14  C   UNL     1      10.999  12.010  20.699  0.00  0.00    +0.000 C 
ATOM     15  C   UNL     1      12.297  11.860  19.891  0.00  0.00    +0.000 C 
ATOM     16  C   UNL     1      12.106  12.431  18.477  0.00  0.00    +0.000 C 
ATOM     17  C   UNL     1      11.724  13.917  18.580  0.00  0.00    +0.000 C 
ATOM     18  C   UNL     1      10.978  11.663  17.766  0.00  0.00    +0.000 C 
ATOM     19  C   UNL     1       9.874  11.248  19.986  0.00  0.00    +0.000 C 
ENDBRANCH   7  10
ENDBRANCH   5   6
ENDBRANCH   2   5
BRANCH   3  20
ATOM     20  C   UNL     1       7.418   4.960  17.044  0.00  0.00    +0.000 C 
BRANCH  20  21
ATOM     21  C   UNL     1       6.080   4.422  17.399  0.00  0.00    +0.000 A 
ATOM     22  C   UNL     1       4.908   4.365  16.670  0.00  0.00    +0.000 A 
ATOM     23  C   UNL     1       3.917   3.737  17.472  0.00  0.00    +0.000 A 
ATOM     24  C   UNL     1       2.565   3.399  17.268  0.00  0.00    +0.000 A 
ATOM     25  C   UNL     1       1.857   2.757  18.289  0.00  0.00    +0.000 A 
ATOM     26  C   UNL     1       2.476   2.455  19.501  0.00  0.00    +0.000 A 
ATOM     27  C   UNL     1       3.817   2.787  19.729  0.00  0.00    +0.000 A 
ATOM     28  C   UNL     1       4.513   3.427  18.695  0.00  0.00    +0.000 A 
ATOM     29  N   UNL     1       5.819   3.862  18.628  0.00  0.00    +0.000 N 
ATOM     30  H   UNL     1       6.493   3.771  19.377  0.00  0.00    +0.000 HD
ENDBRANCH  20  21
ENDBRANCH   3  20
TORSDOF 5
ENDMDL
MODEL 2
REMARK VINA RESULT:      -9.1      6.400     10.435
REMARK  Name = 
REMARK  5 active torsions:
REMARK  status: ('A' for Active; 'I' for Inactive)
REMARK    1  A    between atoms: C_2  and  C_3
REMARK    2  A    between atoms: C_3  and  N_4
REMARK    3  A    between atoms: C_5  and  C_7
REMARK    4  A    between atoms: N_17  and  C_18
REMARK    5  A    between atoms: C_18  and  C_19
REMARK                            x       y       z     vdW  Elec       q    Type
REMARK                         _______ _______ _______ _____ _____    ______ ____
ROOT
ATOM      1  O   UNL     1       2.283  10.716  17.652  0.00  0.00    +0.000 OA
ATOM      2  C   UNL     1       2.141   9.586  18.116  0.00  0.00    +0.000 C 
ATOM      3  N   UNL     1       1.307   9.304  19.174  0.00  0.00    +0.000 N 
ATOM      4  H   UNL     1       1.357   8.384  19.601  0.00  0.00    +0.000 HD
ENDROOT
BRANCH   2   5
ATOM      5  C   UNL     1       2.941   8.392  17.594  0.00  0.00    +0.000 C 
BRANCH   5   6
ATOM      6  N   UNL     1       2.450   7.129  18.137  0.00  0.00    +0.000 N 
ATOM      7  C   UNL     1       3.314   6.076  18.328  0.00  0.00    +0.000 C 
ATOM      8  O   UNL     1       4.509   6.190  18.039  0.00  0.00    +0.000 OA
ATOM      9  H   UNL     1       1.472   7.056  18.377  0.00  0.00    +0.000 HD
BRANCH   7  10
ATOM     10  C   UNL     1       2.727   4.787  18.929  0.00  0.00    +0.000 C 
ATOM     11  C   UNL     1       1.789   4.044  17.944  0.00  0.00    +0.000 C 
ATOM     12  C   UNL     1       1.261   2.739  18.582  0.00  0.00    +0.000 C 
ATOM     13  C   UNL     1       2.445   1.823  18.938  0.00  0.00    +0.000 C 
ATOM     14  C   UNL     1       3.379   2.536  19.928  0.00  0.00    +0.000 C 
ATOM     15  C   UNL     1       2.599   2.884  21.206  0.00  0.00    +0.000 C 
ATOM     16  C   UNL     1       1.411   3.797  20.864  0.00  0.00    +0.000 C 
ATOM     17  C   UNL     1       0.487   3.074  19.869  0.00  0.00    +0.000 C 
ATOM     18  C   UNL     1       1.933   5.095  20.223  0.00  0.00    +0.000 C 
ATOM     19  C   UNL     1       3.895   3.832  19.288  0.00  0.00    +0.000 C 
ENDBRANCH   7  10
ENDBRANCH   5   6
ENDBRANCH   2   5
BRANCH   3  20
ATOM     20  C   UNL     1       0.479  10.303  19.809  0.00  0.00    +0.000 C 
BRANCH  20  21
ATOM     21  C   UNL     1      -0.723  10.511  18.962  0.00  0.00    +0.000 A 
ATOM     22  C   UNL     1      -1.907  11.173  19.223  0.00  0.00    +0.000 A 
ATOM     23  C   UNL     1      -2.726  11.088  18.065  0.00  0.00    +0.000 A 
ATOM     24  C   UNL     1      -4.009  11.570  17.739  0.00  0.00    +0.000 A 
ATOM     25  C   UNL     1      -4.536  11.313  16.468  0.00  0.00    +0.000 A 
ATOM     26  C   UNL     1      -3.806  10.583  15.532  0.00  0.00    +0.000 A 
ATOM     27  C   UNL     1      -2.532  10.088  15.836  0.00  0.00    +0.000 A 
ATOM     28  C   UNL     1      -2.018  10.357  17.111  0.00  0.00    +0.000 A 
ATOM     29  N   UNL     1      -0.813  10.011  17.684  0.00  0.00    +0.000 N 
ATOM     30  H   UNL     1      -0.092   9.473  17.221  0.00  0.00    +0.000 HD
ENDBRANCH  20  21
ENDBRANCH   3  20
TORSDOF 5
ENDMDL
MODEL 3
REMARK VINA RESULT:      -9.1      6.429     10.410
REMARK  Name = 
REMARK  5 active torsions:
REMARK  status: ('A' for Active; 'I' for Inactive)
REMARK    1  A    between atoms: C_2  and  C_3
REMARK    2  A    between atoms: C_3  and  N_4
REMARK    3  A    between atoms: C_5  and  C_7
REMARK    4  A    between atoms: N_17  and  C_18
REMARK    5  A    between atoms: C_18  and  C_19
REMARK                            x       y       z     vdW  Elec       q    Type
REMARK                         _______ _______ _______ _____ _____    ______ ____
ROOT
ATOM      1  O   UNL     1       2.336  10.708  17.699  0.00  0.00    +0.000 OA
ATOM      2  C   UNL     1       2.127   9.568  18.109  0.00  0.00    +0.000 C 
ATOM      3  N   UNL     1       1.249   9.283  19.130  0.00  0.00    +0.000 N 
ATOM      4  H   UNL     1       1.242   8.344  19.518  0.00  0.00    +0.000 HD
ENDROOT
BRANCH   2   5
ATOM      5  C   UNL     1       2.883   8.360  17.558  0.00  0.00    +0.000 C 
BRANCH   5   6
ATOM      6  N   UNL     1       2.450   7.115  18.184  0.00  0.00    +0.000 N 
ATOM      7  C   UNL     1       3.334   6.070  18.329  0.00  0.00    +0.000 C 
ATOM      8  O   UNL     1       4.496   6.177  17.926  0.00  0.00    +0.000 OA
ATOM      9  H   UNL     1       1.500   7.048  18.516  0.00  0.00    +0.000 HD
BRANCH   7  10
ATOM     10  C   UNL     1       2.811   4.800  19.023  0.00  0.00    +0.000 C 
ATOM     11  C   UNL     1       2.205   5.091  20.419  0.00  0.00    +0.000 C 
ATOM     12  C   UNL     1       1.659   3.791  21.053  0.00  0.00    +0.000 C 
ATOM     13  C   UNL     1       0.570   3.193  20.145  0.00  0.00    +0.000 C 
ATOM     14  C   UNL     1       1.156   2.881  18.760  0.00  0.00    +0.000 C 
ATOM     15  C   UNL     1       2.308   1.875  18.907  0.00  0.00    +0.000 C 
ATOM     16  C   UNL     1       3.403   2.459  19.814  0.00  0.00    +0.000 C 
ATOM     17  C   UNL     1       2.803   2.770  21.195  0.00  0.00    +0.000 C 
ATOM     18  C   UNL     1       3.944   3.757  19.189  0.00  0.00    +0.000 C 
ATOM     19  C   UNL     1       1.698   4.177  18.140  0.00  0.00    +0.000 C 
ENDBRANCH   7  10
ENDBRANCH   5   6
ENDBRANCH   2   5
BRANCH   3  20
ATOM     20  C   UNL     1       0.452  10.294  19.785  0.00  0.00    +0.000 C 
BRANCH  20  21
ATOM     21  C   UNL     1      -0.765  10.525  18.965  0.00  0.00    +0.000 A 
ATOM     22  C   UNL     1      -1.964  11.134  19.280  0.00  0.00    +0.000 A 
ATOM     23  C   UNL     1      -2.793  11.104  18.126  0.00  0.00    +0.000 A 
ATOM     24  C   UNL     1      -4.091  11.571  17.844  0.00  0.00    +0.000 A 
ATOM     25  C   UNL     1      -4.625  11.385  16.564  0.00  0.00    +0.000 A 
ATOM     26  C   UNL     1      -3.885  10.740  15.574  0.00  0.00    +0.000 A 
ATOM     27  C   UNL     1      -2.595  10.261  15.834  0.00  0.00    +0.000 A 
ATOM     28  C   UNL     1      -2.074  10.459  17.120  0.00  0.00    +0.000 A 
ATOM     29  N   UNL     1      -0.854  10.108  17.657  0.00  0.00    +0.000 N 
ATOM     30  H   UNL     1      -0.124   9.623  17.153  0.00  0.00    +0.000 HD
ENDBRANCH  20  21
ENDBRANCH   3  20
TORSDOF 5
ENDMDL
MODEL 4
REMARK VINA RESULT:      -9.0      1.943      9.895
REMARK  Name = 
REMARK  5 active torsions:
REMARK  status: ('A' for Active; 'I' for Inactive)
REMARK    1  A    between atoms: C_2  and  C_3
REMARK    2  A    between atoms: C_3  and  N_4
REMARK    3  A    between atoms: C_5  and  C_7
REMARK    4  A    between atoms: N_17  and  C_18
REMARK    5  A    between atoms: C_18  and  C_19
REMARK                            x       y       z     vdW  Elec       q    Type
REMARK                         _______ _______ _______ _____ _____    ______ ____
ROOT
ATOM      1  O   UNL     1       7.521   6.120  15.908  0.00  0.00    +0.000 OA
ATOM      2  C   UNL     1       6.617   6.606  16.584  0.00  0.00    +0.000 C 
ATOM      3  N   UNL     1       6.822   7.172  17.822  0.00  0.00    +0.000 N 
ATOM      4  H   UNL     1       6.012   7.412  18.388  0.00  0.00    +0.000 HD
ENDROOT
BRANCH   2   5
ATOM      5  C   UNL     1       5.158   6.566  16.131  0.00  0.00    +0.000 C 
BRANCH   5   6
ATOM      6  N   UNL     1       4.291   5.964  17.141  0.00  0.00    +0.000 N 
ATOM      7  C   UNL     1       4.038   4.612  17.119  0.00  0.00    +0.000 C 
ATOM      8  O   UNL     1       4.539   3.899  16.244  0.00  0.00    +0.000 OA
ATOM      9  H   UNL     1       3.898   6.560  17.854  0.00  0.00    +0.000 HD
BRANCH   7  10
ATOM     10  C   UNL     1       3.138   4.049  18.231  0.00  0.00    +0.000 C 
ATOM     11  C   UNL     1       1.631   4.133  17.878  0.00  0.00    +0.000 C 
ATOM     12  C   UNL     1       0.776   3.518  19.009  0.00  0.00    +0.000 C 
ATOM     13  C   UNL     1       1.165   2.042  19.205  0.00  0.00    +0.000 C 
ATOM     14  C   UNL     1       2.653   1.939  19.574  0.00  0.00    +0.000 C 
ATOM     15  C   UNL     1       2.913   2.714  20.875  0.00  0.00    +0.000 C 
ATOM     16  C   UNL     1       2.525   4.190  20.693  0.00  0.00    +0.000 C 
ATOM     17  C   UNL     1       1.036   4.279  20.321  0.00  0.00    +0.000 C 
ATOM     18  C   UNL     1       3.371   4.804  19.564  0.00  0.00    +0.000 C 
ATOM     19  C   UNL     1       3.494   2.555  18.447  0.00  0.00    +0.000 C 
ENDBRANCH   7  10
ENDBRANCH   5   6
ENDBRANCH   2   5
BRANCH   3  20
ATOM     20  C   UNL     1       8.129   7.290  18.424  0.00  0.00    +0.000 C 
BRANCH  20  21
ATOM     21  C   UNL     1       8.478   8.733  18.486  0.00  0.00    +0.000 A 
ATOM     22  C   UNL     1       8.212   9.765  17.607  0.00  0.00    +0.000 A 
ATOM     23  C   UNL     1       8.759  10.959  18.147  0.00  0.00    +0.000 A 
ATOM     24  C   UNL     1       8.792  12.300  17.717  0.00  0.00    +0.000 A 
ATOM     25  C   UNL     1       9.421  13.262  18.515  0.00  0.00    +0.000 A 
ATOM     26  C   UNL     1      10.017  12.902  19.723  0.00  0.00    +0.000 A 
ATOM     27  C   UNL     1      10.003  11.574  20.167  0.00  0.00    +0.000 A 
ATOM     28  C   UNL     1       9.365  10.624  19.358  0.00  0.00    +0.000 A 
ATOM     29  N   UNL     1       9.190   9.268  19.534  0.00  0.00    +0.000 N 
ATOM     30  H   UNL     1       9.530   8.745  20.330  0.00  0.00    +0.000 HD
ENDBRANCH  20  21
ENDBRANCH   3  20
TORSDOF 5
ENDMDL
MODEL 5
REMARK VINA RESULT:      -8.9      6.785     10.737
REMARK  Name = 
REMARK  5 active torsions:
REMARK  status: ('A' for Active; 'I' for Inactive)
REMARK    1  A    between atoms: C_2  and  C_3
REMARK    2  A    between atoms: C_3  and  N_4
REMARK    3  A    between atoms: C_5  and  C_7
REMARK    4  A    between atoms: N_17  and  C_18
REMARK    5  A    between atoms: C_18  and  C_19
REMARK                            x       y       z     vdW  Elec       q    Type
REMARK                         _______ _______ _______ _____ _____    ______ ____
ROOT
ATOM      1  O   UNL     1       1.260   9.101  19.873  0.00  0.00    +0.000 OA
ATOM      2  C   UNL     1       1.593   9.423  18.734  0.00  0.00    +0.000 C 
ATOM      3  N   UNL     1       1.372  10.677  18.210  0.00  0.00    +0.000 N 
ATOM      4  H   UNL     1       1.531  10.824  17.218  0.00  0.00    +0.000 HD
ENDROOT
BRANCH   2   5
ATOM      5  C   UNL     1       2.230   8.427  17.767  0.00  0.00    +0.000 C 
BRANCH   5   6
ATOM      6  N   UNL     1       2.026   7.046  18.195  0.00  0.00    +0.000 N 
ATOM      7  C   UNL     1       3.100   6.195  18.321  0.00  0.00    +0.000 C 
ATOM      8  O   UNL     1       4.242   6.592  18.070  0.00  0.00    +0.000 OA
ATOM      9  H   UNL     1       1.088   6.741  18.405  0.00  0.00    +0.000 HD
BRANCH   7  10
ATOM     10  C   UNL     1       2.807   4.764  18.803  0.00  0.00    +0.000 C 
ATOM     11  C   UNL     1       4.083   4.021  19.273  0.00  0.00    +0.000 C 
ATOM     12  C   UNL     1       3.727   2.606  19.784  0.00  0.00    +0.000 C 
ATOM     13  C   UNL     1       2.744   2.715  20.962  0.00  0.00    +0.000 C 
ATOM     14  C   UNL     1       1.464   3.434  20.510  0.00  0.00    +0.000 C 
ATOM     15  C   UNL     1       0.808   2.642  19.369  0.00  0.00    +0.000 C 
ATOM     16  C   UNL     1       1.781   2.523  18.185  0.00  0.00    +0.000 C 
ATOM     17  C   UNL     1       3.059   1.805  18.652  0.00  0.00    +0.000 C 
ATOM     18  C   UNL     1       2.142   3.930  17.679  0.00  0.00    +0.000 C 
ATOM     19  C   UNL     1       1.827   4.836  20.003  0.00  0.00    +0.000 C 
ENDBRANCH   7  10
ENDBRANCH   5   6
ENDBRANCH   2   5
BRANCH   3  20
ATOM     20  C   UNL     1       0.770  11.749  18.967  0.00  0.00    +0.000 C 
BRANCH  20  21
ATOM     21  C   UNL     1      -0.694  11.728  18.712  0.00  0.00    +0.000 A 
ATOM     22  C   UNL     1      -1.758  12.048  19.533  0.00  0.00    +0.000 A 
ATOM     23  C   UNL     1      -2.957  11.867  18.793  0.00  0.00    +0.000 A 
ATOM     24  C   UNL     1      -4.323  12.043  19.090  0.00  0.00    +0.000 A 
ATOM     25  C   UNL     1      -5.279  11.779  18.102  0.00  0.00    +0.000 A 
ATOM     26  C   UNL     1      -4.890  11.343  16.837  0.00  0.00    +0.000 A 
ATOM     27  C   UNL     1      -3.539  11.155  16.522  0.00  0.00    +0.000 A 
ATOM     28  C   UNL     1      -2.594  11.426  17.521  0.00  0.00    +0.000 A 
ATOM     29  N   UNL     1      -1.219  11.340  17.502  0.00  0.00    +0.000 N 
ATOM     30  H   UNL     1      -0.674  11.043  16.703  0.00  0.00    +0.000 HD
ENDBRANCH  20  21
ENDBRANCH   3  20
TORSDOF 5
ENDMDL
MODEL 6
REMARK VINA RESULT:      -8.9      1.703     10.104
REMARK  Name = 
REMARK  5 active torsions:
REMARK  status: ('A' for Active; 'I' for Inactive)
REMARK    1  A    between atoms: C_2  and  C_3
REMARK    2  A    between atoms: C_3  and  N_4
REMARK    3  A    between atoms: C_5  and  C_7
REMARK    4  A    between atoms: N_17  and  C_18
REMARK    5  A    between atoms: C_18  and  C_19
REMARK                            x       y       z     vdW  Elec       q    Type
REMARK                         _______ _______ _______ _____ _____    ______ ____
ROOT
ATOM      1  O   UNL     1       7.562   6.482  16.593  0.00  0.00    +0.000 OA
ATOM      2  C   UNL     1       7.745   6.700  17.789  0.00  0.00    +0.000 C 
ATOM      3  N   UNL     1       8.027   7.949  18.293  0.00  0.00    +0.000 N 
ATOM      4  H   UNL     1       8.318   8.028  19.264  0.00  0.00    +0.000 HD
ENDROOT
BRANCH   2   5
ATOM      5  C   UNL     1       7.738   5.577  18.825  0.00  0.00    +0.000 C 
BRANCH   5   6
ATOM      6  N   UNL     1       6.384   5.236  19.251  0.00  0.00    +0.000 N 
ATOM      7  C   UNL     1       5.605   4.406  18.479  0.00  0.00    +0.000 C 
ATOM      8  O   UNL     1       6.044   3.946  17.420  0.00  0.00    +0.000 OA
ATOM      9  H   UNL     1       6.045   5.613  20.123  0.00  0.00    +0.000 HD
BRANCH   7  10
ATOM     10  C   UNL     1       4.200   4.072  19.007  0.00  0.00    +0.000 C 
ATOM     11  C   UNL     1       3.561   5.249  19.787  0.00  0.00    +0.000 C 
ATOM     12  C   UNL     1       2.136   4.875  20.258  0.00  0.00    +0.000 C 
ATOM     13  C   UNL     1       1.260   4.544  19.037  0.00  0.00    +0.000 C 
ATOM     14  C   UNL     1       1.868   3.367  18.260  0.00  0.00    +0.000 C 
ATOM     15  C   UNL     1       1.952   2.137  19.178  0.00  0.00    +0.000 C 
ATOM     16  C   UNL     1       2.824   2.455  20.403  0.00  0.00    +0.000 C 
ATOM     17  C   UNL     1       2.207   3.637  21.170  0.00  0.00    +0.000 C 
ATOM     18  C   UNL     1       4.240   2.834  19.937  0.00  0.00    +0.000 C 
ATOM     19  C   UNL     1       3.282   3.746  17.799  0.00  0.00    +0.000 C 
ENDBRANCH   7  10
ENDBRANCH   5   6
ENDBRANCH   2   5
BRANCH   3  20
ATOM     20  C   UNL     1       8.088   9.133  17.468  0.00  0.00    +0.000 C 
BRANCH  20  21
ATOM     21  C   UNL     1       8.680  10.229  18.279  0.00  0.00    +0.000 A 
ATOM     22  C   UNL     1       9.308  10.204  19.509  0.00  0.00    +0.000 A 
ATOM     23  C   UNL     1       9.701  11.531  19.832  0.00  0.00    +0.000 A 
ATOM     24  C   UNL     1      10.374  12.111  20.925  0.00  0.00    +0.000 A 
ATOM     25  C   UNL     1      10.621  13.488  20.927  0.00  0.00    +0.000 A 
ATOM     26  C   UNL     1      10.203  14.285  19.862  0.00  0.00    +0.000 A 
ATOM     27  C   UNL     1       9.526  13.731  18.768  0.00  0.00    +0.000 A 
ATOM     28  C   UNL     1       9.290  12.350  18.781  0.00  0.00    +0.000 A 
ATOM     29  N   UNL     1       8.665  11.539  17.859  0.00  0.00    +0.000 N 
ATOM     30  H   UNL     1       8.262  11.863  16.989  0.00  0.00    +0.000 HD
ENDBRANCH  20  21
ENDBRANCH   3  20
TORSDOF 5
ENDMDL
MODEL 7
REMARK VINA RESULT:      -8.9      6.463      9.269
REMARK  Name = 
REMARK  5 active torsions:
REMARK  status: ('A' for Active; 'I' for Inactive)
REMARK    1  A    between atoms: C_2  and  C_3
REMARK    2  A    between atoms: C_3  and  N_4
REMARK    3  A    between atoms: C_5  and  C_7
REMARK    4  A    between atoms: N_17  and  C_18
REMARK    5  A    between atoms: C_18  and  C_19
REMARK                            x       y       z     vdW  Elec       q    Type
REMARK                         _______ _______ _______ _____ _____    ______ ____
ROOT
ATOM      1  O   UNL     1       0.686   8.989  22.006  0.00  0.00    +0.000 OA
ATOM      2  C   UNL     1       1.067   8.512  20.939  0.00  0.00    +0.000 C 
ATOM      3  N   UNL     1       1.121   9.233  19.768  0.00  0.00    +0.000 N 
ATOM      4  H   UNL     1       1.297   8.736  18.899  0.00  0.00    +0.000 HD
ENDROOT
BRANCH   2   5
ATOM      5  C   UNL     1       1.456   7.040  20.805  0.00  0.00    +0.000 C 
BRANCH   5   6
ATOM      6  N   UNL     1       2.621   6.862  19.943  0.00  0.00    +0.000 N 
ATOM      7  C   UNL     1       2.759   5.715  19.195  0.00  0.00    +0.000 C 
ATOM      8  O   UNL     1       1.901   4.829  19.250  0.00  0.00    +0.000 OA
ATOM      9  H   UNL     1       3.307   7.600  19.903  0.00  0.00    +0.000 HD
BRANCH   7  10
ATOM     10  C   UNL     1       3.999   5.612  18.292  0.00  0.00    +0.000 C 
ATOM     11  C   UNL     1       3.897   4.453  17.269  0.00  0.00    +0.000 C 
ATOM     12  C   UNL     1       5.148   4.421  16.361  0.00  0.00    +0.000 C 
ATOM     13  C   UNL     1       5.268   5.754  15.602  0.00  0.00    +0.000 C 
ATOM     14  C   UNL     1       5.388   6.915  16.600  0.00  0.00    +0.000 C 
ATOM     15  C   UNL     1       6.635   6.711  17.474  0.00  0.00    +0.000 C 
ATOM     16  C   UNL     1       6.529   5.381  18.237  0.00  0.00    +0.000 C 
ATOM     17  C   UNL     1       6.405   4.227  17.228  0.00  0.00    +0.000 C 
ATOM     18  C   UNL     1       5.281   5.407  19.137  0.00  0.00    +0.000 C 
ATOM     19  C   UNL     1       4.144   6.937  17.498  0.00  0.00    +0.000 C 
ENDBRANCH   7  10
ENDBRANCH   5   6
ENDBRANCH   2   5
BRANCH   3  20
ATOM     20  C   UNL     1       0.780  10.634  19.692  0.00  0.00    +0.000 C 
BRANCH  20  21
ATOM     21  C   UNL     1      -0.495  10.758  18.940  0.00  0.00    +0.000 A 
ATOM     22  C   UNL     1      -1.686  11.370  19.279  0.00  0.00    +0.000 A 
ATOM     23  C   UNL     1      -2.590  11.209  18.194  0.00  0.00    +0.000 A 
ATOM     24  C   UNL     1      -3.917  11.619  17.960  0.00  0.00    +0.000 A 
ATOM     25  C   UNL     1      -4.531  11.297  16.744  0.00  0.00    +0.000 A 
ATOM     26  C   UNL     1      -3.842  10.574  15.772  0.00  0.00    +0.000 A 
ATOM     27  C   UNL     1      -2.524  10.151  15.985  0.00  0.00    +0.000 A 
ATOM     28  C   UNL     1      -1.924  10.484  17.206  0.00  0.00    +0.000 A 
ATOM     29  N   UNL     1      -0.661  10.214  17.688  0.00  0.00    +0.000 N 
ATOM     30  H   UNL     1       0.047   9.697  17.183  0.00  0.00    +0.000 HD
ENDBRANCH  20  21
ENDBRANCH   3  20
TORSDOF 5
ENDMDL
MODEL 8
REMARK VINA RESULT:      -8.8      0.636      1.082
REMARK  Name = 
REMARK  5 active torsions:
REMARK  status: ('A' for Active; 'I' for Inactive)
REMARK    1  A    between atoms: C_2  and  C_3
REMARK    2  A    between atoms: C_3  and  N_4
REMARK    3  A    between atoms: C_5  and  C_7
REMARK    4  A    between atoms: N_17  and  C_18
REMARK    5  A    between atoms: C_18  and  C_19
REMARK                            x       y       z     vdW  Elec       q    Type
REMARK                         _______ _______ _______ _____ _____    ______ ____
ROOT
ATOM      1  O   UNL     1       8.296   6.917  19.070  0.00  0.00    +0.000 OA
ATOM      2  C   UNL     1       7.775   7.176  17.986  0.00  0.00    +0.000 C 
ATOM      3  N   UNL     1       7.315   6.209  17.121  0.00  0.00    +0.000 N 
ATOM      4  H   UNL     1       7.039   6.487  16.184  0.00  0.00    +0.000 HD
ENDROOT
BRANCH   2   5
ATOM      5  C   UNL     1       7.651   8.609  17.471  0.00  0.00    +0.000 C 
BRANCH   5   6
ATOM      6  N   UNL     1       8.648   9.491  18.071  0.00  0.00    +0.000 N 
ATOM      7  C   UNL     1       8.569  10.852  17.883  0.00  0.00    +0.000 C 
ATOM      8  O   UNL     1       7.659  11.335  17.205  0.00  0.00    +0.000 OA
ATOM      9  H   UNL     1       9.379   9.080  18.631  0.00  0.00    +0.000 HD
BRANCH   7  10
ATOM     10  C   UNL     1       9.640  11.717  18.569  0.00  0.00    +0.000 C 
ATOM     11  C   UNL     1       9.215  13.201  18.699  0.00  0.00    +0.000 C 
ATOM     12  C   UNL     1      10.307  14.015  19.430  0.00  0.00    +0.000 C 
ATOM     13  C   UNL     1      10.531  13.430  20.836  0.00  0.00    +0.000 C 
ATOM     14  C   UNL     1      10.971  11.962  20.728  0.00  0.00    +0.000 C 
ATOM     15  C   UNL     1      12.279  11.879  19.925  0.00  0.00    +0.000 C 
ATOM     16  C   UNL     1      12.069  12.462  18.518  0.00  0.00    +0.000 C 
ATOM     17  C   UNL     1      11.625  13.929  18.640  0.00  0.00    +0.000 C 
ATOM     18  C   UNL     1      10.978  11.658  17.790  0.00  0.00    +0.000 C 
ATOM     19  C   UNL     1       9.883  11.164  19.998  0.00  0.00    +0.000 C 
ENDBRANCH   7  10
ENDBRANCH   5   6
ENDBRANCH   2   5
BRANCH   3  20
ATOM     20  C   UNL     1       7.357   4.798  17.427  0.00  0.00    +0.000 C 
BRANCH  20  21
ATOM     21  C   UNL     1       6.019   4.396  17.931  0.00  0.00    +0.000 A 
ATOM     22  C   UNL     1       5.395   4.650  19.137  0.00  0.00    +0.000 A 
ATOM     23  C   UNL     1       4.110   4.045  19.107  0.00  0.00    +0.000 A 
ATOM     24  C   UNL     1       3.041   3.976  20.023  0.00  0.00    +0.000 A 
ATOM     25  C   UNL     1       1.875   3.290  19.666  0.00  0.00    +0.000 A 
ATOM     26  C   UNL     1       1.768   2.675  18.420  0.00  0.00    +0.000 A 
ATOM     27  C   UNL     1       2.819   2.724  17.497  0.00  0.00    +0.000 A 
ATOM     28  C   UNL     1       3.979   3.418  17.869  0.00  0.00    +0.000 A 
ATOM     29  N   UNL     1       5.153   3.636  17.180  0.00  0.00    +0.000 N 
ATOM     30  H   UNL     1       5.343   3.293  16.248  0.00  0.00    +0.000 HD
ENDBRANCH  20  21
ENDBRANCH   3  20
TORSDOF 5
ENDMDL
MODEL 9
REMARK VINA RESULT:      -8.8      0.957      1.764
REMARK  Name = 
REMARK  5 active torsions:
REMARK  status: ('A' for Active; 'I' for Inactive)
REMARK    1  A    between atoms: C_2  and  C_3
REMARK    2  A    between atoms: C_3  and  N_4
REMARK    3  A    between atoms: C_5  and  C_7
REMARK    4  A    between atoms: N_17  and  C_18
REMARK    5  A    between atoms: C_18  and  C_19
REMARK                            x       y       z     vdW  Elec       q    Type
REMARK                         _______ _______ _______ _____ _____    ______ ____
ROOT
ATOM      1  O   UNL     1       8.398   6.839  18.936  0.00  0.00    +0.000 OA
ATOM      2  C   UNL     1       7.618   7.170  18.046  0.00  0.00    +0.000 C 
ATOM      3  N   UNL     1       6.782   6.283  17.407  0.00  0.00    +0.000 N 
ATOM      4  H   UNL     1       6.280   6.595  16.581  0.00  0.00    +0.000 HD
ENDROOT
BRANCH   2   5
ATOM      5  C   UNL     1       7.555   8.603  17.519  0.00  0.00    +0.000 C 
BRANCH   5   6
ATOM      6  N   UNL     1       8.593   9.445  18.106  0.00  0.00    +0.000 N 
ATOM      7  C   UNL     1       8.549  10.811  17.945  0.00  0.00    +0.000 C 
ATOM      8  O   UNL     1       7.634  11.333  17.301  0.00  0.00    +0.000 OA
ATOM      9  H   UNL     1       9.328   9.003  18.638  0.00  0.00    +0.000 HD
BRANCH   7  10
ATOM     10  C   UNL     1       9.663  11.632  18.616  0.00  0.00    +0.000 C 
ATOM     11  C   UNL     1      11.005  11.559  17.844  0.00  0.00    +0.000 C 
ATOM     12  C   UNL     1      12.075  12.433  18.537  0.00  0.00    +0.000 C 
ATOM     13  C   UNL     1      11.598  13.895  18.582  0.00  0.00    +0.000 C 
ATOM     14  C   UNL     1      10.276  13.990  19.359  0.00  0.00    +0.000 C 
ATOM     15  C   UNL     1      10.488  13.478  20.792  0.00  0.00    +0.000 C 
ATOM     16  C   UNL     1      10.968  12.018  20.762  0.00  0.00    +0.000 C 
ATOM     17  C   UNL     1      12.289  11.936  19.978  0.00  0.00    +0.000 C 
ATOM     18  C   UNL     1       9.907  11.147  20.067  0.00  0.00    +0.000 C 
ATOM     19  C   UNL     1       9.221  13.118  18.666  0.00  0.00    +0.000 C 
ENDBRANCH   7  10
ENDBRANCH   5   6
ENDBRANCH   2   5
BRANCH   3  20
ATOM     20  C   UNL     1       6.708   4.883  17.757  0.00  0.00    +0.000 C 
BRANCH  20  21
ATOM     21  C   UNL     1       5.311   4.584  18.165  0.00  0.00    +0.000 A 
ATOM     22  C   UNL     1       4.315   3.876  17.521  0.00  0.00    +0.000 A 
ATOM     23  C   UNL     1       3.163   3.876  18.354  0.00  0.00    +0.000 A 
ATOM     24  C   UNL     1       1.874   3.320  18.237  0.00  0.00    +0.000 A 
ATOM     25  C   UNL     1       0.953   3.502  19.274  0.00  0.00    +0.000 A 
ATOM     26  C   UNL     1       1.299   4.229  20.412  0.00  0.00    +0.000 A 
ATOM     27  C   UNL     1       2.571   4.797  20.546  0.00  0.00    +0.000 A 
ATOM     28  C   UNL     1       3.484   4.603  19.500  0.00  0.00    +0.000 A 
ATOM     29  N   UNL     1       4.786   5.029  19.356  0.00  0.00    +0.000 N 
ATOM     30  H   UNL     1       5.287   5.583  20.038  0.00  0.00    +0.000 HD
ENDBRANCH  20  21
ENDBRANCH   3  20
TORSDOF 5
ENDMDL
