MODEL 1
REMARK VINA RESULT:      -8.9      0.000      0.000
REMARK  Name = 
REMARK  3 active torsions:
REMARK  status: ('A' for Active; 'I' for Inactive)
REMARK    1  A    between atoms: C_1  and  C_2
REMARK    2  A    between atoms: C_5  and  C_6
REMARK    3  A    between atoms: C_12  and  C_13
REMARK                            x       y       z     vdW  Elec       q    Type
REMARK                         _______ _______ _______ _____ _____    ______ ____
ROOT
ATOM      1  C   UNL     1       2.589   5.470  19.859  0.00  0.00    +0.000 C 
ATOM      2  O   UNL     1       2.495   5.093  21.019  0.00  0.00    +0.000 OA
ATOM      3  N   UNL     1       2.292   6.734  19.389  0.00  0.00    +0.000 N 
ATOM      4  C   UNL     1       1.732   7.733  20.150  0.00  0.00    +0.000 A 
ATOM      5  N   UNL     1       1.386   7.764  21.417  0.00  0.00    +0.000 NA
ATOM      6  C   UNL     1       0.749   8.976  21.610  0.00  0.00    +0.000 A 
ATOM      7  C   UNL     1       0.136   9.526  22.748  0.00  0.00    +0.000 A 
ATOM      8  C   UNL     1      -0.502  10.774  22.635  0.00  0.00    +0.000 A 
ATOM      9  C   UNL     1      -0.517  11.467  21.423  0.00  0.00    +0.000 A 
ATOM     10  C   UNL     1       0.118  10.953  20.289  0.00  0.00    +0.000 A 
ATOM     11  C   UNL     1       0.733   9.709  20.430  0.00  0.00    +0.000 A 
ATOM     12  N   UNL     1       1.421   8.926  19.545  0.00  0.00    +0.000 N 
ATOM     13  H   UNL     1       2.364   6.901  18.400  0.00  0.00    +0.000 HD
ATOM     14  H   UNL     1       1.619   9.168  18.590  0.00  0.00    +0.000 HD
ENDROOT
BRANCH   1  20
ATOM     15  C   UNL     1       1.028   2.780  18.575  0.00  0.00    +0.000 C 
ATOM     16  C   UNL     1       2.315   3.452  18.301  0.00  0.00    +0.000 A 
ATOM     17  O   UNL     1       3.025   2.890  17.294  0.00  0.00    +0.000 OA
ATOM     18  N   UNL     1       4.198   3.566  17.114  0.00  0.00    +0.000 NA
ATOM     19  C   UNL     1       4.222   4.557  18.023  0.00  0.00    +0.000 A 
ATOM     20  C   UNL     1       3.010   4.545  18.802  0.00  0.00    +0.000 A 
BRANCH  19  21
ATOM     21  C   UNL     1       5.419   5.400  18.124  0.00  0.00    +0.000 A 
ATOM     22  C   UNL     1       5.575   6.505  17.268  0.00  0.00    +0.000 A 
ATOM     23  C   UNL     1       6.729   7.290  17.312  0.00  0.00    +0.000 A 
ATOM     24  C   UNL     1       7.745   6.983  18.213  0.00  0.00    +0.000 A 
ATOM     25  C   UNL     1       7.611   5.885  19.060  0.00  0.00    +0.000 A 
ATOM     26  C   UNL     1       6.460   5.092  19.008  0.00  0.00    +0.000 A 
ENDBRANCH  19  21
ENDBRANCH   1  20
TORSDOF 2
ENDMDL
MODEL 2
REMARK VINA RESULT:      -8.9      0.198      1.004
REMARK  Name = 
REMARK  3 active torsions:
REMARK  status: ('A' for Active; 'I' for Inactive)
REMARK    1  A    between atoms: C_1  and  C_2
REMARK    2  A    between atoms: C_5  and  C_6
REMARK    3  A    between atoms: C_12  and  C_13
REMARK                            x       y       z     vdW  Elec       q    Type
REMARK                         _______ _______ _______ _____ _____    ______ ____
ROOT
ATOM      1  C   UNL     1       2.661   5.462  19.737  0.00  0.00    +0.000 C 
ATOM      2  O   UNL     1       2.583   5.134  20.913  0.00  0.00    +0.000 OA
ATOM      3  N   UNL     1       2.348   6.702  19.218  0.00  0.00    +0.000 N 
ATOM      4  C   UNL     1       1.788   7.728  19.943  0.00  0.00    +0.000 A 
ATOM      5  N   UNL     1       1.456   7.810  21.211  0.00  0.00    +0.000 NA
ATOM      6  C   UNL     1       0.811   9.024  21.360  0.00  0.00    +0.000 A 
ATOM      7  C   UNL     1       0.206   9.617  22.481  0.00  0.00    +0.000 A 
ATOM      8  C   UNL     1      -0.443  10.853  22.323  0.00  0.00    +0.000 A 
ATOM      9  C   UNL     1      -0.478  11.495  21.083  0.00  0.00    +0.000 A 
ATOM     10  C   UNL     1       0.148  10.938  19.965  0.00  0.00    +0.000 A 
ATOM     11  C   UNL     1       0.776   9.706  20.150  0.00  0.00    +0.000 A 
ATOM     12  N   UNL     1       1.460   8.892  19.292  0.00  0.00    +0.000 N 
ATOM     13  H   UNL     1       2.407   6.828  18.222  0.00  0.00    +0.000 HD
ATOM     14  H   UNL     1       1.646   9.095  18.325  0.00  0.00    +0.000 HD
ENDROOT
BRANCH   1  20
ATOM     15  C   UNL     1       1.101   2.717  18.575  0.00  0.00    +0.000 C 
ATOM     16  C   UNL     1       2.384   3.381  18.264  0.00  0.00    +0.000 A 
ATOM     17  O   UNL     1       3.089   2.782  17.276  0.00  0.00    +0.000 OA
ATOM     18  N   UNL     1       4.258   3.454  17.060  0.00  0.00    +0.000 NA
ATOM     19  C   UNL     1       4.285   4.482  17.928  0.00  0.00    +0.000 A 
ATOM     20  C   UNL     1       3.078   4.496  18.716  0.00  0.00    +0.000 A 
BRANCH  19  21
ATOM     21  C   UNL     1       5.479   5.331  17.985  0.00  0.00    +0.000 A 
ATOM     22  C   UNL     1       6.493   5.057  18.921  0.00  0.00    +0.000 A 
ATOM     23  C   UNL     1       7.615   5.882  19.027  0.00  0.00    +0.000 A 
ATOM     24  C   UNL     1       7.740   6.994  18.200  0.00  0.00    +0.000 A 
ATOM     25  C   UNL     1       6.739   7.287  17.276  0.00  0.00    +0.000 A 
ATOM     26  C   UNL     1       5.611   6.467  17.177  0.00  0.00    +0.000 A 
ENDBRANCH  19  21
ENDBRANCH   1  20
TORSDOF 2
ENDMDL
MODEL 3
REMARK VINA RESULT:      -8.7      1.567      3.961
REMARK  Name = 
REMARK  3 active torsions:
REMARK  status: ('A' for Active; 'I' for Inactive)
REMARK    1  A    between atoms: C_1  and  C_2
REMARK    2  A    between atoms: C_5  and  C_6
REMARK    3  A    between atoms: C_12  and  C_13
REMARK                            x       y       z     vdW  Elec       q    Type
REMARK                         _______ _______ _______ _____ _____    ______ ____
ROOT
ATOM      1  C   UNL     1       3.343   6.937  18.488  0.00  0.00    +0.000 C 
ATOM      2  O   UNL     1       3.140   7.725  17.575  0.00  0.00    +0.000 OA
ATOM      3  N   UNL     1       2.716   6.940  19.718  0.00  0.00    +0.000 N 
ATOM      4  C   UNL     1       1.841   7.914  20.140  0.00  0.00    +0.000 A 
ATOM      5  N   UNL     1       1.384   8.987  19.536  0.00  0.00    +0.000 NA
ATOM      6  C   UNL     1       0.641   9.670  20.481  0.00  0.00    +0.000 A 
ATOM      7  C   UNL     1      -0.039  10.897  20.409  0.00  0.00    +0.000 A 
ATOM      8  C   UNL     1      -0.669  11.389  21.565  0.00  0.00    +0.000 A 
ATOM      9  C   UNL     1      -0.638  10.670  22.763  0.00  0.00    +0.000 A 
ATOM     10  C   UNL     1       0.002   9.431  22.844  0.00  0.00    +0.000 A 
ATOM     11  C   UNL     1       0.626   8.975  21.683  0.00  0.00    +0.000 A 
ATOM     12  N   UNL     1       1.336   7.838  21.415  0.00  0.00    +0.000 N 
ATOM     13  H   UNL     1       3.012   6.266  20.403  0.00  0.00    +0.000 HD
ATOM     14  H   UNL     1       1.503   7.092  22.068  0.00  0.00    +0.000 HD
ENDROOT
BRANCH   1  20
ATOM     15  C   UNL     1       6.508   7.101  17.359  0.00  0.00    +0.000 C 
ATOM     16  C   UNL     1       5.662   6.016  17.896  0.00  0.00    +0.000 A 
ATOM     17  O   UNL     1       6.292   4.821  17.987  0.00  0.00    +0.000 OA
ATOM     18  N   UNL     1       5.438   3.877  18.484  0.00  0.00    +0.000 NA
ATOM     19  C   UNL     1       4.260   4.491  18.700  0.00  0.00    +0.000 A 
ATOM     20  C   UNL     1       4.359   5.888  18.360  0.00  0.00    +0.000 A 
BRANCH  19  21
ATOM     21  C   UNL     1       3.116   3.692  19.152  0.00  0.00    +0.000 A 
ATOM     22  C   UNL     1       2.143   3.271  18.228  0.00  0.00    +0.000 A 
ATOM     23  C   UNL     1       1.020   2.553  18.644  0.00  0.00    +0.000 A 
ATOM     24  C   UNL     1       0.852   2.244  19.991  0.00  0.00    +0.000 A 
ATOM     25  C   UNL     1       1.801   2.664  20.921  0.00  0.00    +0.000 A 
ATOM     26  C   UNL     1       2.920   3.392  20.506  0.00  0.00    +0.000 A 
ENDBRANCH  19  21
ENDBRANCH   1  20
TORSDOF 2
ENDMDL
MODEL 4
REMARK VINA RESULT:      -8.6      1.355      2.055
REMARK  Name = 
REMARK  3 active torsions:
REMARK  status: ('A' for Active; 'I' for Inactive)
REMARK    1  A    between atoms: C_1  and  C_2
REMARK    2  A    between atoms: C_5  and  C_6
REMARK    3  A    between atoms: C_12  and  C_13
REMARK                            x       y       z     vdW  Elec       q    Type
REMARK                         _______ _______ _______ _____ _____    ______ ____
ROOT
ATOM      1  C   UNL     1       2.538   6.286  19.511  0.00  0.00    +0.000 C 
ATOM      2  O   UNL     1       2.654   6.928  18.477  0.00  0.00    +0.000 OA
ATOM      3  N   UNL     1       1.811   6.663  20.623  0.00  0.00    +0.000 N 
ATOM      4  C   UNL     1       1.195   7.884  20.771  0.00  0.00    +0.000 A 
ATOM      5  N   UNL     1       1.114   8.914  19.961  0.00  0.00    +0.000 NA
ATOM      6  C   UNL     1       0.491   9.917  20.680  0.00  0.00    +0.000 A 
ATOM      7  C   UNL     1       0.182  11.244  20.337  0.00  0.00    +0.000 A 
ATOM      8  C   UNL     1      -0.407  12.073  21.307  0.00  0.00    +0.000 A 
ATOM      9  C   UNL     1      -0.697  11.591  22.586  0.00  0.00    +0.000 A 
ATOM     10  C   UNL     1      -0.431  10.264  22.934  0.00  0.00    +0.000 A 
ATOM     11  C   UNL     1       0.162   9.469  21.953  0.00  0.00    +0.000 A 
ATOM     12  N   UNL     1       0.559   8.161  21.956  0.00  0.00    +0.000 N 
ATOM     13  H   UNL     1       1.839   6.066  21.432  0.00  0.00    +0.000 HD
ATOM     14  H   UNL     1       0.447   7.524  22.725  0.00  0.00    +0.000 HD
ENDROOT
BRANCH   1  20
ATOM     15  C   UNL     1       1.493   3.406  20.901  0.00  0.00    +0.000 C 
ATOM     16  C   UNL     1       2.749   3.842  20.257  0.00  0.00    +0.000 A 
ATOM     17  O   UNL     1       3.691   2.872  20.175  0.00  0.00    +0.000 OA
ATOM     18  N   UNL     1       4.817   3.361  19.576  0.00  0.00    +0.000 NA
ATOM     19  C   UNL     1       4.576   4.653  19.286  0.00  0.00    +0.000 A 
ATOM     20  C   UNL     1       3.237   5.009  19.684  0.00  0.00    +0.000 A 
BRANCH  19  21
ATOM     21  C   UNL     1       5.655   5.465  18.713  0.00  0.00    +0.000 A 
ATOM     22  C   UNL     1       6.895   5.551  19.370  0.00  0.00    +0.000 A 
ATOM     23  C   UNL     1       7.919   6.358  18.869  0.00  0.00    +0.000 A 
ATOM     24  C   UNL     1       7.718   7.092  17.703  0.00  0.00    +0.000 A 
ATOM     25  C   UNL     1       6.491   7.027  17.046  0.00  0.00    +0.000 A 
ATOM     26  C   UNL     1       5.463   6.227  17.554  0.00  0.00    +0.000 A 
ENDBRANCH  19  21
ENDBRANCH   1  20
TORSDOF 2
ENDMDL
MODEL 5
REMARK VINA RESULT:      -8.5      1.779      4.133
REMARK  Name = 
REMARK  3 active torsions:
REMARK  status: ('A' for Active; 'I' for Inactive)
REMARK    1  A    between atoms: C_1  and  C_2
REMARK    2  A    between atoms: C_5  and  C_6
REMARK    3  A    between atoms: C_12  and  C_13
REMARK                            x       y       z     vdW  Elec       q    Type
REMARK                         _______ _______ _______ _____ _____    ______ ____
ROOT
ATOM      1  C   UNL     1       3.693   6.750  18.240  0.00  0.00    +0.000 C 
ATOM      2  O   UNL     1       3.729   7.354  17.177  0.00  0.00    +0.000 OA
ATOM      3  N   UNL     1       2.851   7.021  19.300  0.00  0.00    +0.000 N 
ATOM      4  C   UNL     1       1.996   8.097  19.357  0.00  0.00    +0.000 A 
ATOM      5  N   UNL     1       1.749   9.052  18.489  0.00  0.00    +0.000 NA
ATOM      6  C   UNL     1       0.902   9.939  19.127  0.00  0.00    +0.000 A 
ATOM      7  C   UNL     1       0.351  11.158  18.701  0.00  0.00    +0.000 A 
ATOM      8  C   UNL     1      -0.440  11.894  19.600  0.00  0.00    +0.000 A 
ATOM      9  C   UNL     1      -0.691  11.421  20.890  0.00  0.00    +0.000 A 
ATOM     10  C   UNL     1      -0.181  10.193  21.321  0.00  0.00    +0.000 A 
ATOM     11  C   UNL     1       0.608   9.492  20.409  0.00  0.00    +0.000 A 
ATOM     12  N   UNL     1       1.259   8.293  20.499  0.00  0.00    +0.000 N 
ATOM     13  H   UNL     1       2.958   6.480  20.141  0.00  0.00    +0.000 HD
ATOM     14  H   UNL     1       1.239   7.682  21.296  0.00  0.00    +0.000 HD
ENDROOT
BRANCH   1  20
ATOM     15  C   UNL     1       7.023   6.565  17.798  0.00  0.00    +0.000 C 
ATOM     16  C   UNL     1       6.001   5.634  18.318  0.00  0.00    +0.000 A 
ATOM     17  O   UNL     1       6.500   4.448  18.740  0.00  0.00    +0.000 OA
ATOM     18  N   UNL     1       5.490   3.650  19.195  0.00  0.00    +0.000 NA
ATOM     19  C   UNL     1       4.346   4.344  19.050  0.00  0.00    +0.000 A 
ATOM     20  C   UNL     1       4.625   5.651  18.509  0.00  0.00    +0.000 A 
BRANCH  19  21
ATOM     21  C   UNL     1       3.073   3.693  19.377  0.00  0.00    +0.000 A 
ATOM     22  C   UNL     1       2.270   3.164  18.350  0.00  0.00    +0.000 A 
ATOM     23  C   UNL     1       1.032   2.584  18.634  0.00  0.00    +0.000 A 
ATOM     24  C   UNL     1       0.577   2.524  19.948  0.00  0.00    +0.000 A 
ATOM     25  C   UNL     1       1.355   3.054  20.975  0.00  0.00    +0.000 A 
ATOM     26  C   UNL     1       2.590   3.644  20.690  0.00  0.00    +0.000 A 
ENDBRANCH  19  21
ENDBRANCH   1  20
TORSDOF 2
ENDMDL
MODEL 6
REMARK VINA RESULT:      -8.4      1.271      1.733
REMARK  Name = 
REMARK  3 active torsions:
REMARK  status: ('A' for Active; 'I' for Inactive)
REMARK    1  A    between atoms: C_1  and  C_2
REMARK    2  A    between atoms: C_5  and  C_6
REMARK    3  A    between atoms: C_12  and  C_13
REMARK                            x       y       z     vdW  Elec       q    Type
REMARK                         _______ _______ _______ _____ _____    ______ ____
ROOT
ATOM      1  C   UNL     1       2.535   6.195  19.386  0.00  0.00    +0.000 C 
ATOM      2  O   UNL     1       2.642   6.879  18.377  0.00  0.00    +0.000 OA
ATOM      3  N   UNL     1       1.816   6.524  20.517  0.00  0.00    +0.000 N 
ATOM      4  C   UNL     1       1.198   7.736  20.719  0.00  0.00    +0.000 A 
ATOM      5  N   UNL     1       1.109   8.800  19.953  0.00  0.00    +0.000 NA
ATOM      6  C   UNL     1       0.489   9.771  20.718  0.00  0.00    +0.000 A 
ATOM      7  C   UNL     1       0.175  11.110  20.432  0.00  0.00    +0.000 A 
ATOM      8  C   UNL     1      -0.408  11.897  21.440  0.00  0.00    +0.000 A 
ATOM      9  C   UNL     1      -0.689  11.362  22.699  0.00  0.00    +0.000 A 
ATOM     10  C   UNL     1      -0.417  10.022  22.991  0.00  0.00    +0.000 A 
ATOM     11  C   UNL     1       0.171   9.270  21.974  0.00  0.00    +0.000 A 
ATOM     12  N   UNL     1       0.570   7.964  21.920  0.00  0.00    +0.000 N 
ATOM     13  H   UNL     1       1.850   5.895  21.301  0.00  0.00    +0.000 HD
ATOM     14  H   UNL     1       0.465   7.295  22.662  0.00  0.00    +0.000 HD
ENDROOT
BRANCH   1  20
ATOM     15  C   UNL     1       1.442   3.206  20.477  0.00  0.00    +0.000 C 
ATOM     16  C   UNL     1       2.730   3.701  19.949  0.00  0.00    +0.000 A 
ATOM     17  O   UNL     1       3.687   2.748  19.849  0.00  0.00    +0.000 OA
ATOM     18  N   UNL     1       4.841   3.291  19.361  0.00  0.00    +0.000 NA
ATOM     19  C   UNL     1       4.603   4.600  19.159  0.00  0.00    +0.000 A 
ATOM     20  C   UNL     1       3.238   4.914  19.500  0.00  0.00    +0.000 A 
BRANCH  19  21
ATOM     21  C   UNL     1       5.704   5.463  18.720  0.00  0.00    +0.000 A 
ATOM     22  C   UNL     1       5.579   6.217  17.539  0.00  0.00    +0.000 A 
ATOM     23  C   UNL     1       6.633   7.006  17.075  0.00  0.00    +0.000 A 
ATOM     24  C   UNL     1       7.830   7.054  17.784  0.00  0.00    +0.000 A 
ATOM     25  C   UNL     1       7.975   6.305  18.950  0.00  0.00    +0.000 A 
ATOM     26  C   UNL     1       6.923   5.506  19.408  0.00  0.00    +0.000 A 
ENDBRANCH  19  21
ENDBRANCH   1  20
TORSDOF 2
ENDMDL
MODEL 7
REMARK VINA RESULT:      -8.3      3.097      7.605
REMARK  Name = 
REMARK  3 active torsions:
REMARK  status: ('A' for Active; 'I' for Inactive)
REMARK    1  A    between atoms: C_1  and  C_2
REMARK    2  A    between atoms: C_5  and  C_6
REMARK    3  A    between atoms: C_12  and  C_13
REMARK                            x       y       z     vdW  Elec       q    Type
REMARK                         _______ _______ _______ _____ _____    ______ ____
ROOT
ATOM      1  C   UNL     1       5.054   4.649  18.436  0.00  0.00    +0.000 C 
ATOM      2  O   UNL     1       5.859   5.544  18.647  0.00  0.00    +0.000 OA
ATOM      3  N   UNL     1       4.966   3.889  17.286  0.00  0.00    +0.000 N 
ATOM      4  C   UNL     1       5.712   4.110  16.152  0.00  0.00    +0.000 A 
ATOM      5  N   UNL     1       6.641   5.000  15.888  0.00  0.00    +0.000 NA
ATOM      6  C   UNL     1       6.950   4.845  14.549  0.00  0.00    +0.000 A 
ATOM      7  C   UNL     1       7.836   5.550  13.718  0.00  0.00    +0.000 A 
ATOM      8  C   UNL     1       7.900   5.211  12.356  0.00  0.00    +0.000 A 
ATOM      9  C   UNL     1       7.112   4.182  11.833  0.00  0.00    +0.000 A 
ATOM     10  C   UNL     1       6.251   3.445  12.650  0.00  0.00    +0.000 A 
ATOM     11  C   UNL     1       6.203   3.813  13.995  0.00  0.00    +0.000 A 
ATOM     12  N   UNL     1       5.481   3.325  15.049  0.00  0.00    +0.000 N 
ATOM     13  H   UNL     1       4.223   3.216  17.219  0.00  0.00    +0.000 HD
ATOM     14  H   UNL     1       4.845   2.548  15.005  0.00  0.00    +0.000 HD
ENDROOT
BRANCH   1  20
ATOM     15  C   UNL     1       4.534   1.805  20.157  0.00  0.00    +0.000 C 
ATOM     16  C   UNL     1       3.866   3.122  20.120  0.00  0.00    +0.000 A 
ATOM     17  O   UNL     1       2.829   3.238  20.983  0.00  0.00    +0.000 OA
ATOM     18  N   UNL     1       2.268   4.479  20.879  0.00  0.00    +0.000 NA
ATOM     19  C   UNL     1       2.960   5.142  19.934  0.00  0.00    +0.000 A 
ATOM     20  C   UNL     1       4.026   4.316  19.428  0.00  0.00    +0.000 A 
BRANCH  19  21
ATOM     21  C   UNL     1       2.518   6.485  19.541  0.00  0.00    +0.000 A 
ATOM     22  C   UNL     1       1.886   7.320  20.480  0.00  0.00    +0.000 A 
ATOM     23  C   UNL     1       1.412   8.582  20.115  0.00  0.00    +0.000 A 
ATOM     24  C   UNL     1       1.562   9.028  18.805  0.00  0.00    +0.000 A 
ATOM     25  C   UNL     1       2.175   8.208  17.860  0.00  0.00    +0.000 A 
ATOM     26  C   UNL     1       2.640   6.941  18.223  0.00  0.00    +0.000 A 
ENDBRANCH  19  21
ENDBRANCH   1  20
TORSDOF 2
ENDMDL
MODEL 8
REMARK VINA RESULT:      -8.2      1.801      2.361
REMARK  Name = 
REMARK  3 active torsions:
REMARK  status: ('A' for Active; 'I' for Inactive)
REMARK    1  A    between atoms: C_1  and  C_2
REMARK    2  A    between atoms: C_5  and  C_6
REMARK    3  A    between atoms: C_12  and  C_13
REMARK                            x       y       z     vdW  Elec       q    Type
REMARK                         _______ _______ _______ _____ _____    ______ ____
ROOT
ATOM      1  C   UNL     1       2.689   5.525  19.210  0.00  0.00    +0.000 C 
ATOM      2  O   UNL     1       2.613   5.855  18.035  0.00  0.00    +0.000 OA
ATOM      3  N   UNL     1       2.224   6.251  20.288  0.00  0.00    +0.000 N 
ATOM      4  C   UNL     1       1.702   7.521  20.202  0.00  0.00    +0.000 A 
ATOM      5  N   UNL     1       1.497   8.303  19.167  0.00  0.00    +0.000 NA
ATOM      6  C   UNL     1       1.078   9.516  19.682  0.00  0.00    +0.000 A 
ATOM      7  C   UNL     1       0.759  10.728  19.047  0.00  0.00    +0.000 A 
ATOM      8  C   UNL     1       0.419  11.837  19.840  0.00  0.00    +0.000 A 
ATOM      9  C   UNL     1       0.380  11.741  21.233  0.00  0.00    +0.000 A 
ATOM     10  C   UNL     1       0.658  10.535  21.881  0.00  0.00    +0.000 A 
ATOM     11  C   UNL     1       1.002   9.455  21.068  0.00  0.00    +0.000 A 
ATOM     12  N   UNL     1       1.338   8.162  21.361  0.00  0.00    +0.000 N 
ATOM     13  H   UNL     1       2.395   5.890  21.211  0.00  0.00    +0.000 HD
ATOM     14  H   UNL     1       1.362   7.765  22.284  0.00  0.00    +0.000 HD
ENDROOT
BRANCH   1  20
ATOM     15  C   UNL     1       2.007   3.380  21.711  0.00  0.00    +0.000 C 
ATOM     16  C   UNL     1       3.022   3.421  20.638  0.00  0.00    +0.000 A 
ATOM     17  O   UNL     1       3.853   2.352  20.626  0.00  0.00    +0.000 OA
ATOM     18  N   UNL     1       4.759   2.475  19.611  0.00  0.00    +0.000 NA
ATOM     19  C   UNL     1       4.493   3.636  18.986  0.00  0.00    +0.000 A 
ATOM     20  C   UNL     1       3.356   4.278  19.597  0.00  0.00    +0.000 A 
BRANCH  19  21
ATOM     21  C   UNL     1       5.375   4.077  17.900  0.00  0.00    +0.000 A 
ATOM     22  C   UNL     1       5.047   3.783  16.564  0.00  0.00    +0.000 A 
ATOM     23  C   UNL     1       5.897   4.149  15.519  0.00  0.00    +0.000 A 
ATOM     24  C   UNL     1       7.088   4.815  15.792  0.00  0.00    +0.000 A 
ATOM     25  C   UNL     1       7.433   5.105  17.111  0.00  0.00    +0.000 A 
ATOM     26  C   UNL     1       6.587   4.729  18.158  0.00  0.00    +0.000 A 
ENDBRANCH  19  21
ENDBRANCH   1  20
TORSDOF 2
ENDMDL
MODEL 9
REMARK VINA RESULT:      -8.2      1.139      1.407
REMARK  Name = 
REMARK  3 active torsions:
REMARK  status: ('A' for Active; 'I' for Inactive)
REMARK    1  A    between atoms: C_1  and  C_2
REMARK    2  A    between atoms: C_5  and  C_6
REMARK    3  A    between atoms: C_12  and  C_13
REMARK                            x       y       z     vdW  Elec       q    Type
REMARK                         _______ _______ _______ _____ _____    ______ ____
ROOT
ATOM      1  C   UNL     1       2.674   6.437  19.065  0.00  0.00    +0.000 C 
ATOM      2  O   UNL     1       2.619   6.319  20.281  0.00  0.00    +0.000 OA
ATOM      3  N   UNL     1       2.253   7.531  18.336  0.00  0.00    +0.000 N 
ATOM      4  C   UNL     1       1.597   8.615  18.872  0.00  0.00    +0.000 A 
ATOM      5  N   UNL     1       1.252   8.892  20.109  0.00  0.00    +0.000 NA
ATOM      6  C   UNL     1       0.498  10.050  20.046  0.00  0.00    +0.000 A 
ATOM      7  C   UNL     1      -0.165  10.776  21.049  0.00  0.00    +0.000 A 
ATOM      8  C   UNL     1      -0.923  11.900  20.680  0.00  0.00    +0.000 A 
ATOM      9  C   UNL     1      -1.008  12.304  19.346  0.00  0.00    +0.000 A 
ATOM     10  C   UNL     1      -0.327  11.616  18.338  0.00  0.00    +0.000 A 
ATOM     11  C   UNL     1       0.409  10.499  18.734  0.00  0.00    +0.000 A 
ATOM     12  N   UNL     1       1.169   9.610  18.028  0.00  0.00    +0.000 N 
ATOM     13  H   UNL     1       2.306   7.482  17.333  0.00  0.00    +0.000 HD
ATOM     14  H   UNL     1       1.341   9.654  17.038  0.00  0.00    +0.000 HD
ENDROOT
BRANCH   1  20
ATOM     15  C   UNL     1       1.092   3.756  17.789  0.00  0.00    +0.000 C 
ATOM     16  C   UNL     1       2.477   4.265  17.717  0.00  0.00    +0.000 A 
ATOM     17  O   UNL     1       3.300   3.513  16.948  0.00  0.00    +0.000 OA
ATOM     18  N   UNL     1       4.556   4.049  16.943  0.00  0.00    +0.000 NA
ATOM     19  C   UNL     1       4.517   5.146  17.722  0.00  0.00    +0.000 A 
ATOM     20  C   UNL     1       3.183   5.347  18.228  0.00  0.00    +0.000 A 
BRANCH  19  21
ATOM     21  C   UNL     1       5.761   5.881  17.976  0.00  0.00    +0.000 A 
ATOM     22  C   UNL     1       6.066   7.029  17.221  0.00  0.00    +0.000 A 
ATOM     23  C   UNL     1       7.267   7.715  17.412  0.00  0.00    +0.000 A 
ATOM     24  C   UNL     1       8.182   7.265  18.360  0.00  0.00    +0.000 A 
ATOM     25  C   UNL     1       7.900   6.123  19.108  0.00  0.00    +0.000 A 
ATOM     26  C   UNL     1       6.702   5.430  18.909  0.00  0.00    +0.000 A 
ENDBRANCH  19  21
ENDBRANCH   1  20
TORSDOF 2
ENDMDL
