MODEL 1
REMARK VINA RESULT:      -9.7      0.000      0.000
REMARK  Name = 
REMARK  5 active torsions:
REMARK  status: ('A' for Active; 'I' for Inactive)
REMARK    1  A    between atoms: C_1  and  C_2
REMARK    2  A    between atoms: C_2  and  C_3
REMARK    3  A    between atoms: N_16  and  C_17
REMARK    4  A    between atoms: C_17  and  C_18
REMARK    5  A    between atoms: C_20  and  C_21
REMARK                            x       y       z     vdW  Elec       q    Type
REMARK                         _______ _______ _______ _____ _____    ______ ____
ROOT
ATOM      1  C   UNL     1       3.177   3.269  17.856  0.00  0.00    +0.000 C 
ATOM      2  C   UNL     1       4.122   4.447  17.681  0.00  0.00    +0.000 C 
ATOM      3  N   UNL     1       4.717   4.485  16.358  0.00  0.00    +0.000 N 
ATOM      4  C   UNL     1       6.043   4.858  16.412  0.00  0.00    +0.000 C 
ATOM      5  O   UNL     1       6.696   5.194  15.440  0.00  0.00    +0.000 OA
ATOM      6  N   UNL     1       6.448   4.805  17.704  0.00  0.00    +0.000 N 
ATOM      7  C   UNL     1       5.442   4.316  18.489  0.00  0.00    +0.000 C 
ATOM      8  O   UNL     1       5.546   3.995  19.665  0.00  0.00    +0.000 OA
ATOM      9  H   UNL     1       4.210   4.578  15.490  0.00  0.00    +0.000 HD
ENDROOT
BRANCH   2  10
ATOM     10  C   UNL     1       3.430   5.773  18.039  0.00  0.00    +0.000 A 
ATOM     11  C   UNL     1       3.470   6.887  17.190  0.00  0.00    +0.000 A 
ATOM     12  C   UNL     1       2.850   8.089  17.554  0.00  0.00    +0.000 A 
ATOM     13  C   UNL     1       2.170   8.215  18.774  0.00  0.00    +0.000 A 
ATOM     14  C   UNL     1       1.545   9.411  19.163  0.00  0.00    +0.000 A 
ATOM     15  C   UNL     1       0.878   9.507  20.386  0.00  0.00    +0.000 A 
ATOM     16  C   UNL     1       0.836   8.412  21.245  0.00  0.00    +0.000 A 
ATOM     17  C   UNL     1       1.450   7.217  20.873  0.00  0.00    +0.000 A 
ATOM     18  C   UNL     1       2.113   7.103  19.637  0.00  0.00    +0.000 A 
ATOM     19  C   UNL     1       2.722   5.901  19.252  0.00  0.00    +0.000 A 
ENDBRANCH   2  10
BRANCH   6  20
ATOM     20  C   UNL     1       7.694   5.324  18.204  0.00  0.00    +0.000 C 
BRANCH  20  21
ATOM     21  C   UNL     1       7.811   6.787  18.051  0.00  0.00    +0.000 A 
ATOM     22  N   UNL     1       8.609   7.663  18.616  0.00  0.00    +0.000 NA
ATOM     23  C   UNL     1       8.147   8.857  18.103  0.00  0.00    +0.000 A 
ATOM     24  N   UNL     1       7.132   8.718  17.236  0.00  0.00    +0.000 NA
ATOM     25  O   UNL     1       6.907   7.349  17.201  0.00  0.00    +0.000 OA
BRANCH  23  26
ATOM     26  C   UNL     1       8.695  10.144  18.505  0.00  0.00    +0.000 A 
ATOM     27  C   UNL     1       9.463  10.248  19.675  0.00  0.00    +0.000 A 
ATOM     28  C   UNL     1       9.972  11.484  20.079  0.00  0.00    +0.000 A 
ATOM     29  C   UNL     1       9.717  12.625  19.323  0.00  0.00    +0.000 A 
ATOM     30  C   UNL     1       8.958  12.535  18.159  0.00  0.00    +0.000 A 
ATOM     31  C   UNL     1       8.450  11.300  17.750  0.00  0.00    +0.000 A 
ENDBRANCH  23  26
ENDBRANCH  20  21
ENDBRANCH   6  20
TORSDOF 4
ENDMDL
MODEL 2
REMARK VINA RESULT:      -9.6      1.042      1.096
REMARK  Name = 
REMARK  5 active torsions:
REMARK  status: ('A' for Active; 'I' for Inactive)
REMARK    1  A    between atoms: C_1  and  C_2
REMARK    2  A    between atoms: C_2  and  C_3
REMARK    3  A    between atoms: N_16  and  C_17
REMARK    4  A    between atoms: C_17  and  C_18
REMARK    5  A    between atoms: C_20  and  C_21
REMARK                            x       y       z     vdW  Elec       q    Type
REMARK                         _______ _______ _______ _____ _____    ______ ____
ROOT
ATOM      1  C   UNL     1       3.499   3.777  20.221  0.00  0.00    +0.000 C 
ATOM      2  C   UNL     1       4.069   4.475  18.997  0.00  0.00    +0.000 C 
ATOM      3  N   UNL     1       3.982   3.654  17.804  0.00  0.00    +0.000 N 
ATOM      4  C   UNL     1       5.112   3.776  17.024  0.00  0.00    +0.000 C 
ATOM      5  O   UNL     1       5.191   3.386  15.872  0.00  0.00    +0.000 OA
ATOM      6  N   UNL     1       6.064   4.410  17.751  0.00  0.00    +0.000 N 
ATOM      7  C   UNL     1       5.614   4.624  19.022  0.00  0.00    +0.000 C 
ATOM      8  O   UNL     1       6.291   5.024  19.961  0.00  0.00    +0.000 OA
ATOM      9  H   UNL     1       3.128   3.311  17.389  0.00  0.00    +0.000 HD
ENDROOT
BRANCH   2  10
ATOM     10  C   UNL     1       3.423   5.855  18.793  0.00  0.00    +0.000 A 
ATOM     11  C   UNL     1       3.580   6.584  17.606  0.00  0.00    +0.000 A 
ATOM     12  C   UNL     1       2.999   7.850  17.459  0.00  0.00    +0.000 A 
ATOM     13  C   UNL     1       2.242   8.425  18.490  0.00  0.00    +0.000 A 
ATOM     14  C   UNL     1       1.653   9.695  18.367  0.00  0.00    +0.000 A 
ATOM     15  C   UNL     1       0.907  10.244  19.413  0.00  0.00    +0.000 A 
ATOM     16  C   UNL     1       0.748   9.537  20.601  0.00  0.00    +0.000 A 
ATOM     17  C   UNL     1       1.325   8.275  20.738  0.00  0.00    +0.000 A 
ATOM     18  C   UNL     1       2.067   7.705  19.687  0.00  0.00    +0.000 A 
ATOM     19  C   UNL     1       2.639   6.431  19.814  0.00  0.00    +0.000 A 
ENDBRANCH   2  10
BRANCH   6  20
ATOM     20  C   UNL     1       7.306   4.916  17.227  0.00  0.00    +0.000 C 
BRANCH  20  21
ATOM     21  C   UNL     1       7.409   6.385  17.312  0.00  0.00    +0.000 A 
ATOM     22  N   UNL     1       8.282   7.167  17.905  0.00  0.00    +0.000 NA
ATOM     23  C   UNL     1       7.761   8.422  17.671  0.00  0.00    +0.000 A 
ATOM     24  N   UNL     1       6.635   8.415  16.940  0.00  0.00    +0.000 NA
ATOM     25  O   UNL     1       6.400   7.068  16.702  0.00  0.00    +0.000 OA
BRANCH  23  26
ATOM     26  C   UNL     1       8.366   9.632  18.209  0.00  0.00    +0.000 A 
ATOM     27  C   UNL     1       9.102   9.581  19.402  0.00  0.00    +0.000 A 
ATOM     28  C   UNL     1       9.665  10.741  19.936  0.00  0.00    +0.000 A 
ATOM     29  C   UNL     1       9.498  11.962  19.287  0.00  0.00    +0.000 A 
ATOM     30  C   UNL     1       8.771  12.026  18.100  0.00  0.00    +0.000 A 
ATOM     31  C   UNL     1       8.209  10.866  17.562  0.00  0.00    +0.000 A 
ENDBRANCH  23  26
ENDBRANCH  20  21
ENDBRANCH   6  20
TORSDOF 4
ENDMDL
MODEL 3
REMARK VINA RESULT:      -9.3      0.530      1.381
REMARK  Name = 
REMARK  5 active torsions:
REMARK  status: ('A' for Active; 'I' for Inactive)
REMARK    1  A    between atoms: C_1  and  C_2
REMARK    2  A    between atoms: C_2  and  C_3
REMARK    3  A    between atoms: N_16  and  C_17
REMARK    4  A    between atoms: C_17  and  C_18
REMARK    5  A    between atoms: C_20  and  C_21
REMARK                            x       y       z     vdW  Elec       q    Type
REMARK                         _______ _______ _______ _____ _____    ______ ____
ROOT
ATOM      1  C   UNL     1       3.164   3.198  17.608  0.00  0.00    +0.000 C 
ATOM      2  C   UNL     1       4.029   4.446  17.669  0.00  0.00    +0.000 C 
ATOM      3  N   UNL     1       4.512   4.846  16.361  0.00  0.00    +0.000 N 
ATOM      4  C   UNL     1       5.817   5.287  16.418  0.00  0.00    +0.000 C 
ATOM      5  O   UNL     1       6.372   5.895  15.519  0.00  0.00    +0.000 OA
ATOM      6  N   UNL     1       6.328   4.950  17.627  0.00  0.00    +0.000 N 
ATOM      7  C   UNL     1       5.416   4.215  18.330  0.00  0.00    +0.000 C 
ATOM      8  O   UNL     1       5.631   3.625  19.381  0.00  0.00    +0.000 OA
ATOM      9  H   UNL     1       3.933   5.112  15.578  0.00  0.00    +0.000 HD
ENDROOT
BRANCH   2  10
ATOM     10  C   UNL     1       3.301   5.592  18.390  0.00  0.00    +0.000 A 
ATOM     11  C   UNL     1       2.821   5.464  19.700  0.00  0.00    +0.000 A 
ATOM     12  C   UNL     1       2.140   6.518  20.321  0.00  0.00    +0.000 A 
ATOM     13  C   UNL     1       1.920   7.733  19.655  0.00  0.00    +0.000 A 
ATOM     14  C   UNL     1       1.237   8.803  20.256  0.00  0.00    +0.000 A 
ATOM     15  C   UNL     1       1.029   9.999  19.566  0.00  0.00    +0.000 A 
ATOM     16  C   UNL     1       1.493  10.140  18.262  0.00  0.00    +0.000 A 
ATOM     17  C   UNL     1       2.175   9.088  17.652  0.00  0.00    +0.000 A 
ATOM     18  C   UNL     1       2.402   7.883  18.340  0.00  0.00    +0.000 A 
ATOM     19  C   UNL     1       3.098   6.826  17.738  0.00  0.00    +0.000 A 
ENDBRANCH   2  10
BRANCH   6  20
ATOM     20  C   UNL     1       7.582   5.418  18.156  0.00  0.00    +0.000 C 
BRANCH  20  21
ATOM     21  C   UNL     1       7.751   6.878  18.030  0.00  0.00    +0.000 A 
ATOM     22  N   UNL     1       8.582   7.714  18.609  0.00  0.00    +0.000 NA
ATOM     23  C   UNL     1       8.162   8.933  18.119  0.00  0.00    +0.000 A 
ATOM     24  N   UNL     1       7.140   8.847  17.253  0.00  0.00    +0.000 NA
ATOM     25  O   UNL     1       6.865   7.488  17.194  0.00  0.00    +0.000 OA
BRANCH  23  26
ATOM     26  C   UNL     1       8.757  10.192  18.543  0.00  0.00    +0.000 A 
ATOM     27  C   UNL     1       9.541  10.245  19.706  0.00  0.00    +0.000 A 
ATOM     28  C   UNL     1      10.095  11.453  20.131  0.00  0.00    +0.000 A 
ATOM     29  C   UNL     1       9.871  12.619  19.403  0.00  0.00    +0.000 A 
ATOM     30  C   UNL     1       9.097  12.580  18.245  0.00  0.00    +0.000 A 
ATOM     31  C   UNL     1       8.543  11.372  17.816  0.00  0.00    +0.000 A 
ENDBRANCH  23  26
ENDBRANCH  20  21
ENDBRANCH   6  20
TORSDOF 4
ENDMDL
MODEL 4
REMARK VINA RESULT:      -9.3      3.411      6.470
REMARK  Name = 
REMARK  5 active torsions:
REMARK  status: ('A' for Active; 'I' for Inactive)
REMARK    1  A    between atoms: C_1  and  C_2
REMARK    2  A    between atoms: C_2  and  C_3
REMARK    3  A    between atoms: N_16  and  C_17
REMARK    4  A    between atoms: C_17  and  C_18
REMARK    5  A    between atoms: C_20  and  C_21
REMARK                            x       y       z     vdW  Elec       q    Type
REMARK                         _______ _______ _______ _____ _____    ______ ____
ROOT
ATOM      1  C   UNL     1       4.018   1.359  17.721  0.00  0.00    +0.000 C 
ATOM      2  C   UNL     1       3.690   2.532  18.630  0.00  0.00    +0.000 C 
ATOM      3  N   UNL     1       3.914   2.223  20.030  0.00  0.00    +0.000 N 
ATOM      4  C   UNL     1       2.929   2.764  20.830  0.00  0.00    +0.000 C 
ATOM      5  O   UNL     1       3.010   2.855  22.042  0.00  0.00    +0.000 OA
ATOM      6  N   UNL     1       1.915   3.178  20.034  0.00  0.00    +0.000 N 
ATOM      7  C   UNL     1       2.171   2.838  18.736  0.00  0.00    +0.000 C 
ATOM      8  O   UNL     1       1.381   2.925  17.805  0.00  0.00    +0.000 OA
ATOM      9  H   UNL     1       4.801   1.969  20.440  0.00  0.00    +0.000 HD
ENDROOT
BRANCH   2  10
ATOM     10  C   UNL     1       4.441   3.800  18.193  0.00  0.00    +0.000 A 
ATOM     11  C   UNL     1       4.026   4.572  17.099  0.00  0.00    +0.000 A 
ATOM     12  C   UNL     1       4.745   5.709  16.710  0.00  0.00    +0.000 A 
ATOM     13  C   UNL     1       5.896   6.113  17.402  0.00  0.00    +0.000 A 
ATOM     14  C   UNL     1       6.635   7.247  17.028  0.00  0.00    +0.000 A 
ATOM     15  C   UNL     1       7.780   7.622  17.735  0.00  0.00    +0.000 A 
ATOM     16  C   UNL     1       8.210   6.863  18.819  0.00  0.00    +0.000 A 
ATOM     17  C   UNL     1       7.486   5.735  19.204  0.00  0.00    +0.000 A 
ATOM     18  C   UNL     1       6.323   5.354  18.509  0.00  0.00    +0.000 A 
ATOM     19  C   UNL     1       5.584   4.228  18.898  0.00  0.00    +0.000 A 
ENDBRANCH   2  10
BRANCH   6  20
ATOM     20  C   UNL     1       0.803   3.987  20.462  0.00  0.00    +0.000 C 
BRANCH  20  21
ATOM     21  C   UNL     1       1.111   5.429  20.471  0.00  0.00    +0.000 A 
ATOM     22  N   UNL     1       0.476   6.455  20.990  0.00  0.00    +0.000 NA
ATOM     23  C   UNL     1       1.246   7.520  20.573  0.00  0.00    +0.000 A 
ATOM     24  N   UNL     1       2.325   7.164  19.859  0.00  0.00    +0.000 NA
ATOM     25  O   UNL     1       2.237   5.781  19.788  0.00  0.00    +0.000 OA
BRANCH  23  26
ATOM     26  C   UNL     1       0.887   8.902  20.858  0.00  0.00    +0.000 A 
ATOM     27  C   UNL     1       0.307   9.240  22.091  0.00  0.00    +0.000 A 
ATOM     28  C   UNL     1      -0.062  10.559  22.361  0.00  0.00    +0.000 A 
ATOM     29  C   UNL     1       0.141  11.551  21.404  0.00  0.00    +0.000 A 
ATOM     30  C   UNL     1       0.717  11.229  20.177  0.00  0.00    +0.000 A 
ATOM     31  C   UNL     1       1.090   9.911  19.905  0.00  0.00    +0.000 A 
ENDBRANCH  23  26
ENDBRANCH  20  21
ENDBRANCH   6  20
TORSDOF 4
ENDMDL
MODEL 5
REMARK VINA RESULT:      -9.3      9.198     12.431
REMARK  Name = 
REMARK  5 active torsions:
REMARK  status: ('A' for Active; 'I' for Inactive)
REMARK    1  A    between atoms: C_1  and  C_2
REMARK    2  A    between atoms: C_2  and  C_3
REMARK    3  A    between atoms: N_16  and  C_17
REMARK    4  A    between atoms: C_17  and  C_18
REMARK    5  A    between atoms: C_20  and  C_21
REMARK                            x       y       z     vdW  Elec       q    Type
REMARK                         _______ _______ _______ _____ _____    ______ ____
ROOT
ATOM      1  C   UNL     1      -3.542  14.121  24.674  0.00  0.00    +0.000 C 
ATOM      2  C   UNL     1      -3.970  13.830  23.245  0.00  0.00    +0.000 C 
ATOM      3  N   UNL     1      -4.343  15.033  22.525  0.00  0.00    +0.000 N 
ATOM      4  C   UNL     1      -5.441  14.819  21.719  0.00  0.00    +0.000 C 
ATOM      5  O   UNL     1      -5.804  15.586  20.844  0.00  0.00    +0.000 OA
ATOM      6  N   UNL     1      -5.994  13.631  22.060  0.00  0.00    +0.000 N 
ATOM      7  C   UNL     1      -5.338  13.102  23.135  0.00  0.00    +0.000 C 
ATOM      8  O   UNL     1      -5.695  12.125  23.781  0.00  0.00    +0.000 OA
ATOM      9  H   UNL     1      -3.733  15.815  22.335  0.00  0.00    +0.000 HD
ENDROOT
BRANCH   2  10
ATOM     10  C   UNL     1      -2.897  13.022  22.497  0.00  0.00    +0.000 A 
ATOM     11  C   UNL     1      -2.520  13.322  21.181  0.00  0.00    +0.000 A 
ATOM     12  C   UNL     1      -1.556  12.552  20.517  0.00  0.00    +0.000 A 
ATOM     13  C   UNL     1      -0.938  11.462  21.147  0.00  0.00    +0.000 A 
ATOM     14  C   UNL     1       0.029  10.674  20.501  0.00  0.00    +0.000 A 
ATOM     15  C   UNL     1       0.625   9.592  21.154  0.00  0.00    +0.000 A 
ATOM     16  C   UNL     1       0.256   9.276  22.458  0.00  0.00    +0.000 A 
ATOM     17  C   UNL     1      -0.700  10.050  23.114  0.00  0.00    +0.000 A 
ATOM     18  C   UNL     1      -1.298  11.151  22.473  0.00  0.00    +0.000 A 
ATOM     19  C   UNL     1      -2.251  11.940  23.131  0.00  0.00    +0.000 A 
ENDBRANCH   2  10
BRANCH   6  20
ATOM     20  C   UNL     1      -7.021  12.950  21.316  0.00  0.00    +0.000 C 
BRANCH  20  21
ATOM     21  C   UNL     1      -6.521  12.343  20.068  0.00  0.00    +0.000 A 
ATOM     22  N   UNL     1      -5.338  11.878  19.736  0.00  0.00    +0.000 NA
ATOM     23  C   UNL     1      -5.519  11.532  18.413  0.00  0.00    +0.000 A 
ATOM     24  N   UNL     1      -6.765  11.744  17.962  0.00  0.00    +0.000 NA
ATOM     25  O   UNL     1      -7.429  12.282  19.055  0.00  0.00    +0.000 OA
BRANCH  23  26
ATOM     26  C   UNL     1      -4.436  11.022  17.585  0.00  0.00    +0.000 A 
ATOM     27  C   UNL     1      -3.320  10.414  18.179  0.00  0.00    +0.000 A 
ATOM     28  C   UNL     1      -2.267   9.944  17.392  0.00  0.00    +0.000 A 
ATOM     29  C   UNL     1      -2.316  10.079  16.007  0.00  0.00    +0.000 A 
ATOM     30  C   UNL     1      -3.419  10.679  15.404  0.00  0.00    +0.000 A 
ATOM     31  C   UNL     1      -4.476  11.148  16.188  0.00  0.00    +0.000 A 
ENDBRANCH  23  26
ENDBRANCH  20  21
ENDBRANCH   6  20
TORSDOF 4
ENDMDL
MODEL 6
REMARK VINA RESULT:      -9.3      0.573      1.050
REMARK  Name = 
REMARK  5 active torsions:
REMARK  status: ('A' for Active; 'I' for Inactive)
REMARK    1  A    between atoms: C_1  and  C_2
REMARK    2  A    between atoms: C_2  and  C_3
REMARK    3  A    between atoms: N_16  and  C_17
REMARK    4  A    between atoms: C_17  and  C_18
REMARK    5  A    between atoms: C_20  and  C_21
REMARK                            x       y       z     vdW  Elec       q    Type
REMARK                         _______ _______ _______ _____ _____    ______ ____
ROOT
ATOM      1  C   UNL     1       3.662   3.525  17.462  0.00  0.00    +0.000 C 
ATOM      2  C   UNL     1       4.533   4.769  17.529  0.00  0.00    +0.000 C 
ATOM      3  N   UNL     1       5.289   4.979  16.308  0.00  0.00    +0.000 N 
ATOM      4  C   UNL     1       6.566   5.425  16.576  0.00  0.00    +0.000 C 
ATOM      5  O   UNL     1       7.313   5.898  15.737  0.00  0.00    +0.000 OA
ATOM      6  N   UNL     1       6.803   5.264  17.900  0.00  0.00    +0.000 N 
ATOM      7  C   UNL     1       5.744   4.636  18.491  0.00  0.00    +0.000 C 
ATOM      8  O   UNL     1       5.719   4.202  19.636  0.00  0.00    +0.000 OA
ATOM      9  H   UNL     1       4.893   5.131  15.392  0.00  0.00    +0.000 HD
ENDROOT
BRANCH   2  10
ATOM     10  C   UNL     1       3.705   6.007  17.912  0.00  0.00    +0.000 A 
ATOM     11  C   UNL     1       3.617   7.132  17.081  0.00  0.00    +0.000 A 
ATOM     12  C   UNL     1       2.874   8.254  17.469  0.00  0.00    +0.000 A 
ATOM     13  C   UNL     1       2.195   8.287  18.695  0.00  0.00    +0.000 A 
ATOM     14  C   UNL     1       1.447   9.402  19.107  0.00  0.00    +0.000 A 
ATOM     15  C   UNL     1       0.784   9.407  20.337  0.00  0.00    +0.000 A 
ATOM     16  C   UNL     1       0.867   8.301  21.177  0.00  0.00    +0.000 A 
ATOM     17  C   UNL     1       1.604   7.185  20.782  0.00  0.00    +0.000 A 
ATOM     18  C   UNL     1       2.265   7.162  19.540  0.00  0.00    +0.000 A 
ATOM     19  C   UNL     1       2.997   6.039  19.131  0.00  0.00    +0.000 A 
ENDBRANCH   2  10
BRANCH   6  20
ATOM     20  C   UNL     1       7.933   5.803  18.610  0.00  0.00    +0.000 C 
BRANCH  20  21
ATOM     21  C   UNL     1       8.077   7.261  18.441  0.00  0.00    +0.000 A 
ATOM     22  N   UNL     1       8.952   8.114  18.922  0.00  0.00    +0.000 NA
ATOM     23  C   UNL     1       8.476   9.321  18.452  0.00  0.00    +0.000 A 
ATOM     24  N   UNL     1       7.377   9.211  17.690  0.00  0.00    +0.000 NA
ATOM     25  O   UNL     1       7.110   7.849  17.683  0.00  0.00    +0.000 OA
BRANCH  23  26
ATOM     26  C   UNL     1       9.098  10.591  18.793  0.00  0.00    +0.000 A 
ATOM     27  C   UNL     1       8.989  11.686  17.922  0.00  0.00    +0.000 A 
ATOM     28  C   UNL     1       9.603  12.901  18.232  0.00  0.00    +0.000 A 
ATOM     29  C   UNL     1      10.333  13.034  19.411  0.00  0.00    +0.000 A 
ATOM     30  C   UNL     1      10.446  11.956  20.286  0.00  0.00    +0.000 A 
ATOM     31  C   UNL     1       9.831  10.740  19.980  0.00  0.00    +0.000 A 
ENDBRANCH  23  26
ENDBRANCH  20  21
ENDBRANCH   6  20
TORSDOF 4
ENDMDL
MODEL 7
REMARK VINA RESULT:      -9.1      9.409     12.680
REMARK  Name = 
REMARK  5 active torsions:
REMARK  status: ('A' for Active; 'I' for Inactive)
REMARK    1  A    between atoms: C_1  and  C_2
REMARK    2  A    between atoms: C_2  and  C_3
REMARK    3  A    between atoms: N_16  and  C_17
REMARK    4  A    between atoms: C_17  and  C_18
REMARK    5  A    between atoms: C_20  and  C_21
REMARK                            x       y       z     vdW  Elec       q    Type
REMARK                         _______ _______ _______ _____ _____    ______ ____
ROOT
ATOM      1  C   UNL     1      -3.859  14.534  24.531  0.00  0.00    +0.000 C 
ATOM      2  C   UNL     1      -4.228  14.074  23.130  0.00  0.00    +0.000 C 
ATOM      3  N   UNL     1      -4.575  15.183  22.261  0.00  0.00    +0.000 N 
ATOM      4  C   UNL     1      -5.640  14.869  21.443  0.00  0.00    +0.000 C 
ATOM      5  O   UNL     1      -5.969  15.525  20.470  0.00  0.00    +0.000 OA
ATOM      6  N   UNL     1      -6.203  13.724  21.898  0.00  0.00    +0.000 N 
ATOM      7  C   UNL     1      -5.589  13.329  23.053  0.00  0.00    +0.000 C 
ATOM      8  O   UNL     1      -5.969  12.432  23.794  0.00  0.00    +0.000 OA
ATOM      9  H   UNL     1      -3.961  15.942  22.005  0.00  0.00    +0.000 HD
ENDROOT
BRANCH   2  10
ATOM     10  C   UNL     1      -3.124  13.192  22.525  0.00  0.00    +0.000 A 
ATOM     11  C   UNL     1      -2.462  12.209  23.273  0.00  0.00    +0.000 A 
ATOM     12  C   UNL     1      -1.443  11.437  22.700  0.00  0.00    +0.000 A 
ATOM     13  C   UNL     1      -1.056  11.621  21.365  0.00  0.00    +0.000 A 
ATOM     14  C   UNL     1      -0.035  10.862  20.770  0.00  0.00    +0.000 A 
ATOM     15  C   UNL     1       0.331  11.070  19.438  0.00  0.00    +0.000 A 
ATOM     16  C   UNL     1      -0.311  12.048  18.685  0.00  0.00    +0.000 A 
ATOM     17  C   UNL     1      -1.328  12.808  19.260  0.00  0.00    +0.000 A 
ATOM     18  C   UNL     1      -1.716  12.599  20.596  0.00  0.00    +0.000 A 
ATOM     19  C   UNL     1      -2.746  13.352  21.176  0.00  0.00    +0.000 A 
ENDBRANCH   2  10
BRANCH   6  20
ATOM     20  C   UNL     1      -7.198  12.954  21.199  0.00  0.00    +0.000 C 
BRANCH  20  21
ATOM     21  C   UNL     1      -6.631  12.134  20.111  0.00  0.00    +0.000 A 
ATOM     22  N   UNL     1      -5.426  12.085  19.591  0.00  0.00    +0.000 NA
ATOM     23  C   UNL     1      -5.584  11.176  18.566  0.00  0.00    +0.000 A 
ATOM     24  N   UNL     1      -6.822  10.665  18.480  0.00  0.00    +0.000 NA
ATOM     25  O   UNL     1      -7.517  11.298  19.501  0.00  0.00    +0.000 OA
BRANCH  23  26
ATOM     26  C   UNL     1      -4.508  10.843  17.645  0.00  0.00    +0.000 A 
ATOM     27  C   UNL     1      -4.485  11.399  16.356  0.00  0.00    +0.000 A 
ATOM     28  C   UNL     1      -3.468  11.065  15.460  0.00  0.00    +0.000 A 
ATOM     29  C   UNL     1      -2.467  10.173  15.839  0.00  0.00    +0.000 A 
ATOM     30  C   UNL     1      -2.477   9.617  17.116  0.00  0.00    +0.000 A 
ATOM     31  C   UNL     1      -3.491   9.951  18.016  0.00  0.00    +0.000 A 
ENDBRANCH  23  26
ENDBRANCH  20  21
ENDBRANCH   6  20
TORSDOF 4
ENDMDL
MODEL 8
REMARK VINA RESULT:      -9.0      9.240     12.531
REMARK  Name = 
REMARK  5 active torsions:
REMARK  status: ('A' for Active; 'I' for Inactive)
REMARK    1  A    between atoms: C_1  and  C_2
REMARK    2  A    between atoms: C_2  and  C_3
REMARK    3  A    between atoms: N_16  and  C_17
REMARK    4  A    between atoms: C_17  and  C_18
REMARK    5  A    between atoms: C_20  and  C_21
REMARK                            x       y       z     vdW  Elec       q    Type
REMARK                         _______ _______ _______ _____ _____    ______ ____
ROOT
ATOM      1  C   UNL     1      -3.121  14.301  25.315  0.00  0.00    +0.000 C 
ATOM      2  C   UNL     1      -3.627  14.047  23.904  0.00  0.00    +0.000 C 
ATOM      3  N   UNL     1      -4.089  15.261  23.257  0.00  0.00    +0.000 N 
ATOM      4  C   UNL     1      -5.227  15.033  22.513  0.00  0.00    +0.000 C 
ATOM      5  O   UNL     1      -5.672  15.817  21.692  0.00  0.00    +0.000 OA
ATOM      6  N   UNL     1      -5.713  13.812  22.840  0.00  0.00    +0.000 N 
ATOM      7  C   UNL     1      -4.971  13.270  23.851  0.00  0.00    +0.000 C 
ATOM      8  O   UNL     1      -5.251  12.257  24.478  0.00  0.00    +0.000 OA
ATOM      9  H   UNL     1      -3.522  16.073  23.061  0.00  0.00    +0.000 HD
ENDROOT
BRANCH   2  10
ATOM     10  C   UNL     1      -2.574  13.310  23.061  0.00  0.00    +0.000 A 
ATOM     11  C   UNL     1      -2.038  13.861  21.889  0.00  0.00    +0.000 A 
ATOM     12  C   UNL     1      -1.098  13.155  21.128  0.00  0.00    +0.000 A 
ATOM     13  C   UNL     1      -0.662  11.880  21.515  0.00  0.00    +0.000 A 
ATOM     14  C   UNL     1       0.278  11.151  20.767  0.00  0.00    +0.000 A 
ATOM     15  C   UNL     1       0.691   9.881  21.176  0.00  0.00    +0.000 A 
ATOM     16  C   UNL     1       0.163   9.316  22.333  0.00  0.00    +0.000 A 
ATOM     17  C   UNL     1      -0.768  10.027  23.088  0.00  0.00    +0.000 A 
ATOM     18  C   UNL     1      -1.182  11.313  22.695  0.00  0.00    +0.000 A 
ATOM     19  C   UNL     1      -2.109  12.038  23.455  0.00  0.00    +0.000 A 
ENDBRANCH   2  10
BRANCH   6  20
ATOM     20  C   UNL     1      -6.759  13.120  22.134  0.00  0.00    +0.000 C 
BRANCH  20  21
ATOM     21  C   UNL     1      -6.272  12.408  20.937  0.00  0.00    +0.000 A 
ATOM     22  N   UNL     1      -5.128  12.461  20.294  0.00  0.00    +0.000 NA
ATOM     23  C   UNL     1      -5.350  11.617  19.227  0.00  0.00    +0.000 A 
ATOM     24  N   UNL     1      -6.564  11.045  19.230  0.00  0.00    +0.000 NA
ATOM     25  O   UNL     1      -7.177  11.569  20.360  0.00  0.00    +0.000 OA
BRANCH  23  26
ATOM     26  C   UNL     1      -4.362  11.407  18.179  0.00  0.00    +0.000 A 
ATOM     27  C   UNL     1      -4.773  11.217  16.850  0.00  0.00    +0.000 A 
ATOM     28  C   UNL     1      -3.832  10.991  15.844  0.00  0.00    +0.000 A 
ATOM     29  C   UNL     1      -2.475  10.950  16.153  0.00  0.00    +0.000 A 
ATOM     30  C   UNL     1      -2.053  11.138  17.468  0.00  0.00    +0.000 A 
ATOM     31  C   UNL     1      -2.992  11.367  18.476  0.00  0.00    +0.000 A 
ENDBRANCH  23  26
ENDBRANCH  20  21
ENDBRANCH   6  20
TORSDOF 4
ENDMDL
MODEL 9
REMARK VINA RESULT:      -8.8      7.490     10.817
REMARK  Name = 
REMARK  5 active torsions:
REMARK  status: ('A' for Active; 'I' for Inactive)
REMARK    1  A    between atoms: C_1  and  C_2
REMARK    2  A    between atoms: C_2  and  C_3
REMARK    3  A    between atoms: N_16  and  C_17
REMARK    4  A    between atoms: C_17  and  C_18
REMARK    5  A    between atoms: C_20  and  C_21
REMARK                            x       y       z     vdW  Elec       q    Type
REMARK                         _______ _______ _______ _____ _____    ______ ____
ROOT
ATOM      1  C   UNL     1      -6.365  14.614  21.118  0.00  0.00    +0.000 C 
ATOM      2  C   UNL     1      -5.301  13.600  21.506  0.00  0.00    +0.000 C 
ATOM      3  N   UNL     1      -5.651  12.868  22.710  0.00  0.00    +0.000 N 
ATOM      4  C   UNL     1      -4.550  12.671  23.517  0.00  0.00    +0.000 C 
ATOM      5  O   UNL     1      -4.523  11.891  24.453  0.00  0.00    +0.000 OA
ATOM      6  N   UNL     1      -3.545  13.459  23.067  0.00  0.00    +0.000 N 
ATOM      7  C   UNL     1      -3.989  14.239  22.037  0.00  0.00    +0.000 C 
ATOM      8  O   UNL     1      -3.375  15.168  21.528  0.00  0.00    +0.000 OA
ATOM      9  H   UNL     1      -6.460  12.276  22.821  0.00  0.00    +0.000 HD
ENDROOT
BRANCH   2  10
ATOM     10  C   UNL     1      -4.977  12.659  20.335  0.00  0.00    +0.000 A 
ATOM     11  C   UNL     1      -5.937  11.802  19.778  0.00  0.00    +0.000 A 
ATOM     12  C   UNL     1      -5.604  10.938  18.727  0.00  0.00    +0.000 A 
ATOM     13  C   UNL     1      -4.306  10.906  18.198  0.00  0.00    +0.000 A 
ATOM     14  C   UNL     1      -3.948  10.046  17.146  0.00  0.00    +0.000 A 
ATOM     15  C   UNL     1      -2.646  10.033  16.641  0.00  0.00    +0.000 A 
ATOM     16  C   UNL     1      -1.679  10.871  17.187  0.00  0.00    +0.000 A 
ATOM     17  C   UNL     1      -2.019  11.732  18.230  0.00  0.00    +0.000 A 
ATOM     18  C   UNL     1      -3.330  11.765  18.738  0.00  0.00    +0.000 A 
ATOM     19  C   UNL     1      -3.681  12.637  19.778  0.00  0.00    +0.000 A 
ENDBRANCH   2  10
BRANCH   6  20
ATOM     20  C   UNL     1      -2.175  13.385  23.503  0.00  0.00    +0.000 C 
BRANCH  20  21
ATOM     21  C   UNL     1      -1.380  12.408  22.736  0.00  0.00    +0.000 A 
ATOM     22  N   UNL     1      -0.666  12.530  21.641  0.00  0.00    +0.000 NA
ATOM     23  C   UNL     1      -0.253  11.234  21.412  0.00  0.00    +0.000 A 
ATOM     24  N   UNL     1      -0.668  10.360  22.342  0.00  0.00    +0.000 NA
ATOM     25  O   UNL     1      -1.415  11.134  23.219  0.00  0.00    +0.000 OA
BRANCH  23  26
ATOM     26  C   UNL     1       0.527  10.858  20.242  0.00  0.00    +0.000 A 
ATOM     27  C   UNL     1       0.648   9.508  19.879  0.00  0.00    +0.000 A 
ATOM     28  C   UNL     1       1.414   9.138  18.772  0.00  0.00    +0.000 A 
ATOM     29  C   UNL     1       2.068  10.110  18.019  0.00  0.00    +0.000 A 
ATOM     30  C   UNL     1       1.954  11.455  18.367  0.00  0.00    +0.000 A 
ATOM     31  C   UNL     1       1.186  11.828  19.473  0.00  0.00    +0.000 A 
ENDBRANCH  23  26
ENDBRANCH  20  21
ENDBRANCH   6  20
TORSDOF 4
ENDMDL
