MODEL 1
REMARK VINA RESULT:      -8.0      0.000      0.000
REMARK  Name = 
REMARK  5 active torsions:
REMARK  status: ('A' for Active; 'I' for Inactive)
REMARK    1  A    between atoms: C_1  and  C_2
REMARK    2  A    between atoms: C_5  and  C_6
REMARK    3  A    between atoms: C_6  and  N_7
REMARK    4  A    between atoms: C_11  and  C_12
REMARK    5  A    between atoms: C_11  and  C_13
REMARK                            x       y       z     vdW  Elec       q    Type
REMARK                         _______ _______ _______ _____ _____    ______ ____
ROOT
ATOM      1  N   UNL     1       1.866   3.700  19.295  0.00  0.00    +0.000 N 
ATOM      2  C   UNL     1       1.639   3.710  17.959  0.00  0.00    +0.000 C 
ATOM      3  O   UNL     1       0.739   4.268  17.357  0.00  0.00    +0.000 OA
ATOM      4  N   UNL     1       2.649   3.005  17.345  0.00  0.00    +0.000 N 
ATOM      5  C   UNL     1       3.776   2.765  18.246  0.00  0.00    +0.000 C 
ATOM      6  C   UNL     1       4.209   1.315  18.050  0.00  0.00    +0.000 C 
ATOM      7  C   UNL     1       3.018   3.016  19.580  0.00  0.00    +0.000 C 
ATOM      8  O   UNL     1       3.429   2.756  20.702  0.00  0.00    +0.000 OA
ATOM      9  H   UNL     1       2.713   2.992  16.337  0.00  0.00    +0.000 HD
ENDROOT
BRANCH   5  10
ATOM     10  C   UNL     1       4.872   3.858  18.098  0.00  0.00    +0.000 A 
ATOM     11  C   UNL     1       5.347   4.494  19.274  0.00  0.00    +0.000 A 
ATOM     12  C   UNL     1       6.440   5.352  19.266  0.00  0.00    +0.000 A 
ATOM     13  C   UNL     1       7.088   5.624  18.075  0.00  0.00    +0.000 A 
ATOM     14  C   UNL     1       6.650   5.055  16.877  0.00  0.00    +0.000 A 
ATOM     15  C   UNL     1       7.356   5.375  15.705  0.00  0.00    +0.000 A 
ATOM     16  C   UNL     1       6.987   4.843  14.476  0.00  0.00    +0.000 A 
ATOM     17  C   UNL     1       5.916   3.969  14.413  0.00  0.00    +0.000 A 
ATOM     18  C   UNL     1       5.218   3.627  15.580  0.00  0.00    +0.000 A 
ATOM     19  C   UNL     1       5.539   4.161  16.854  0.00  0.00    +0.000 A 
ENDBRANCH   5  10
BRANCH   1  20
ATOM     20  C   UNL     1       1.117   4.466  20.261  0.00  0.00    +0.000 C 
BRANCH  20  25
ATOM     21  C   UNL     1       1.032   9.064  21.713  0.00  0.00    +0.000 C 
ATOM     22  C   UNL     1       1.459   7.915  20.899  0.00  0.00    +0.000 A 
ATOM     23  N   UNL     1       2.265   7.870  19.860  0.00  0.00    +0.000 NA
ATOM     24  N   UNL     1       2.311   6.550  19.461  0.00  0.00    +0.000 NA
ATOM     25  C   UNL     1       1.528   5.885  20.285  0.00  0.00    +0.000 A 
ATOM     26  O   UNL     1       0.946   6.692  21.228  0.00  0.00    +0.000 OA
ENDBRANCH  20  25
ENDBRANCH   1  20
TORSDOF 3
ENDMDL
MODEL 2
REMARK VINA RESULT:      -7.9      2.398      6.428
REMARK  Name = 
REMARK  5 active torsions:
REMARK  status: ('A' for Active; 'I' for Inactive)
REMARK    1  A    between atoms: C_1  and  C_2
REMARK    2  A    between atoms: C_5  and  C_6
REMARK    3  A    between atoms: C_6  and  N_7
REMARK    4  A    between atoms: C_11  and  C_12
REMARK    5  A    between atoms: C_11  and  C_13
REMARK                            x       y       z     vdW  Elec       q    Type
REMARK                         _______ _______ _______ _____ _____    ______ ____
ROOT
ATOM      1  N   UNL     1       3.689   4.028  18.287  0.00  0.00    +0.000 N 
ATOM      2  C   UNL     1       4.536   4.419  19.270  0.00  0.00    +0.000 C 
ATOM      3  O   UNL     1       5.749   4.305  19.302  0.00  0.00    +0.000 OA
ATOM      4  N   UNL     1       3.799   5.037  20.253  0.00  0.00    +0.000 N 
ATOM      5  C   UNL     1       2.447   5.365  19.801  0.00  0.00    +0.000 C 
ATOM      6  C   UNL     1       1.490   4.987  20.927  0.00  0.00    +0.000 C 
ATOM      7  C   UNL     1       2.403   4.391  18.590  0.00  0.00    +0.000 C 
ATOM      8  O   UNL     1       1.411   4.090  17.943  0.00  0.00    +0.000 OA
ATOM      9  H   UNL     1       4.268   5.494  21.022  0.00  0.00    +0.000 HD
ENDROOT
BRANCH   5  10
ATOM     10  C   UNL     1       2.361   6.820  19.257  0.00  0.00    +0.000 A 
ATOM     11  C   UNL     1       2.836   7.073  17.944  0.00  0.00    +0.000 A 
ATOM     12  C   UNL     1       2.644   8.292  17.306  0.00  0.00    +0.000 A 
ATOM     13  C   UNL     1       1.988   9.315  17.967  0.00  0.00    +0.000 A 
ATOM     14  C   UNL     1       1.525   9.140  19.273  0.00  0.00    +0.000 A 
ATOM     15  C   UNL     1       0.868  10.221  19.884  0.00  0.00    +0.000 A 
ATOM     16  C   UNL     1       0.371  10.123  21.178  0.00  0.00    +0.000 A 
ATOM     17  C   UNL     1       0.514   8.932  21.867  0.00  0.00    +0.000 A 
ATOM     18  C   UNL     1       1.151   7.840  21.259  0.00  0.00    +0.000 A 
ATOM     19  C   UNL     1       1.696   7.897  19.950  0.00  0.00    +0.000 A 
ENDBRANCH   5  10
BRANCH   1  20
ATOM     20  C   UNL     1       4.101   3.489  17.014  0.00  0.00    +0.000 C 
BRANCH  20  25
ATOM     21  C   UNL     1       7.356   4.942  13.765  0.00  0.00    +0.000 C 
ATOM     22  C   UNL     1       6.346   5.097  14.824  0.00  0.00    +0.000 A 
ATOM     23  N   UNL     1       5.943   6.180  15.453  0.00  0.00    +0.000 NA
ATOM     24  N   UNL     1       4.991   5.768  16.364  0.00  0.00    +0.000 NA
ATOM     25  C   UNL     1       4.884   4.463  16.225  0.00  0.00    +0.000 A 
ATOM     26  O   UNL     1       5.722   3.963  15.262  0.00  0.00    +0.000 OA
ENDBRANCH  20  25
ENDBRANCH   1  20
TORSDOF 3
ENDMDL
MODEL 3
REMARK VINA RESULT:      -7.7      2.464      6.224
REMARK  Name = 
REMARK  5 active torsions:
REMARK  status: ('A' for Active; 'I' for Inactive)
REMARK    1  A    between atoms: C_1  and  C_2
REMARK    2  A    between atoms: C_5  and  C_6
REMARK    3  A    between atoms: C_6  and  N_7
REMARK    4  A    between atoms: C_11  and  C_12
REMARK    5  A    between atoms: C_11  and  C_13
REMARK                            x       y       z     vdW  Elec       q    Type
REMARK                         _______ _______ _______ _____ _____    ______ ____
ROOT
ATOM      1  N   UNL     1       3.833   4.129  18.211  0.00  0.00    +0.000 N 
ATOM      2  C   UNL     1       4.446   4.401  19.389  0.00  0.00    +0.000 C 
ATOM      3  O   UNL     1       5.628   4.290  19.661  0.00  0.00    +0.000 OA
ATOM      4  N   UNL     1       3.503   4.892  20.262  0.00  0.00    +0.000 N 
ATOM      5  C   UNL     1       2.265   5.267  19.578  0.00  0.00    +0.000 C 
ATOM      6  C   UNL     1       1.106   4.750  20.426  0.00  0.00    +0.000 C 
ATOM      7  C   UNL     1       2.503   4.447  18.279  0.00  0.00    +0.000 C 
ATOM      8  O   UNL     1       1.676   4.222  17.407  0.00  0.00    +0.000 OA
ATOM      9  H   UNL     1       3.788   5.254  21.160  0.00  0.00    +0.000 HD
ENDROOT
BRANCH   5  10
ATOM     10  C   UNL     1       2.251   6.776  19.203  0.00  0.00    +0.000 A 
ATOM     11  C   UNL     1       2.746   7.154  17.928  0.00  0.00    +0.000 A 
ATOM     12  C   UNL     1       2.616   8.446  17.433  0.00  0.00    +0.000 A 
ATOM     13  C   UNL     1       2.004   9.416  18.205  0.00  0.00    +0.000 A 
ATOM     14  C   UNL     1       1.524   9.117  19.482  0.00  0.00    +0.000 A 
ATOM     15  C   UNL     1       0.912  10.151  20.210  0.00  0.00    +0.000 A 
ATOM     16  C   UNL     1       0.402   9.929  21.483  0.00  0.00    +0.000 A 
ATOM     17  C   UNL     1       0.484   8.662  22.032  0.00  0.00    +0.000 A 
ATOM     18  C   UNL     1       1.074   7.618  21.306  0.00  0.00    +0.000 A 
ATOM     19  C   UNL     1       1.631   7.797  20.013  0.00  0.00    +0.000 A 
ENDBRANCH   5  10
BRANCH   1  20
ATOM     20  C   UNL     1       4.517   3.750  16.999  0.00  0.00    +0.000 C 
BRANCH  20  25
ATOM     21  C   UNL     1       7.281   7.692  17.279  0.00  0.00    +0.000 C 
ATOM     22  C   UNL     1       6.901   6.341  16.837  0.00  0.00    +0.000 A 
ATOM     23  N   UNL     1       7.486   5.540  15.974  0.00  0.00    +0.000 NA
ATOM     24  N   UNL     1       6.710   4.400  15.914  0.00  0.00    +0.000 NA
ATOM     25  C   UNL     1       5.707   4.589  16.745  0.00  0.00    +0.000 A 
ATOM     26  O   UNL     1       5.759   5.809  17.369  0.00  0.00    +0.000 OA
ENDBRANCH  20  25
ENDBRANCH   1  20
TORSDOF 3
ENDMDL
MODEL 4
REMARK VINA RESULT:      -7.7      3.024      6.682
REMARK  Name = 
REMARK  5 active torsions:
REMARK  status: ('A' for Active; 'I' for Inactive)
REMARK    1  A    between atoms: C_1  and  C_2
REMARK    2  A    between atoms: C_5  and  C_6
REMARK    3  A    between atoms: C_6  and  N_7
REMARK    4  A    between atoms: C_11  and  C_12
REMARK    5  A    between atoms: C_11  and  C_13
REMARK                            x       y       z     vdW  Elec       q    Type
REMARK                         _______ _______ _______ _____ _____    ______ ____
ROOT
ATOM      1  N   UNL     1       5.816   6.145  17.208  0.00  0.00    +0.000 N 
ATOM      2  C   UNL     1       4.879   6.726  16.420  0.00  0.00    +0.000 C 
ATOM      3  O   UNL     1       4.961   7.001  15.236  0.00  0.00    +0.000 OA
ATOM      4  N   UNL     1       3.747   6.928  17.175  0.00  0.00    +0.000 N 
ATOM      5  C   UNL     1       3.787   6.183  18.433  0.00  0.00    +0.000 C 
ATOM      6  C   UNL     1       3.289   7.121  19.529  0.00  0.00    +0.000 C 
ATOM      7  C   UNL     1       5.322   5.939  18.469  0.00  0.00    +0.000 C 
ATOM      8  O   UNL     1       5.963   5.523  19.422  0.00  0.00    +0.000 OA
ATOM      9  H   UNL     1       2.898   7.254  16.734  0.00  0.00    +0.000 HD
ENDROOT
BRANCH   5  10
ATOM     10  C   UNL     1       3.079   4.804  18.307  0.00  0.00    +0.000 A 
ATOM     11  C   UNL     1       3.063   4.173  17.036  0.00  0.00    +0.000 A 
ATOM     12  C   UNL     1       2.613   2.870  16.859  0.00  0.00    +0.000 A 
ATOM     13  C   UNL     1       2.141   2.155  17.944  0.00  0.00    +0.000 A 
ATOM     14  C   UNL     1       2.101   2.730  19.216  0.00  0.00    +0.000 A 
ATOM     15  C   UNL     1       1.609   1.945  20.273  0.00  0.00    +0.000 A 
ATOM     16  C   UNL     1       1.545   2.443  21.568  0.00  0.00    +0.000 A 
ATOM     17  C   UNL     1       1.991   3.728  21.820  0.00  0.00    +0.000 A 
ATOM     18  C   UNL     1       2.502   4.513  20.777  0.00  0.00    +0.000 A 
ATOM     19  C   UNL     1       2.566   4.060  19.433  0.00  0.00    +0.000 A 
ENDBRANCH   5  10
BRANCH   1  20
ATOM     20  C   UNL     1       7.080   5.632  16.738  0.00  0.00    +0.000 C 
BRANCH  20  25
ATOM     21  C   UNL     1       7.529   4.770  12.013  0.00  0.00    +0.000 C 
ATOM     22  C   UNL     1       7.100   4.509  13.397  0.00  0.00    +0.000 A 
ATOM     23  N   UNL     1       6.345   3.545  13.878  0.00  0.00    +0.000 NA
ATOM     24  N   UNL     1       6.239   3.776  15.235  0.00  0.00    +0.000 NA
ATOM     25  C   UNL     1       6.937   4.865  15.482  0.00  0.00    +0.000 A 
ATOM     26  O   UNL     1       7.512   5.393  14.355  0.00  0.00    +0.000 OA
ENDBRANCH  20  25
ENDBRANCH   1  20
TORSDOF 3
ENDMDL
MODEL 5
REMARK VINA RESULT:      -7.4      8.691     11.500
REMARK  Name = 
REMARK  5 active torsions:
REMARK  status: ('A' for Active; 'I' for Inactive)
REMARK    1  A    between atoms: C_1  and  C_2
REMARK    2  A    between atoms: C_5  and  C_6
REMARK    3  A    between atoms: C_6  and  N_7
REMARK    4  A    between atoms: C_11  and  C_12
REMARK    5  A    between atoms: C_11  and  C_13
REMARK                            x       y       z     vdW  Elec       q    Type
REMARK                         _______ _______ _______ _____ _____    ______ ____
ROOT
ATOM      1  N   UNL     1      -4.759  13.531  22.912  0.00  0.00    +0.000 N 
ATOM      2  C   UNL     1      -4.288  12.680  23.856  0.00  0.00    +0.000 C 
ATOM      3  O   UNL     1      -4.924  11.912  24.557  0.00  0.00    +0.000 OA
ATOM      4  N   UNL     1      -2.916  12.777  23.877  0.00  0.00    +0.000 N 
ATOM      5  C   UNL     1      -2.398  13.480  22.704  0.00  0.00    +0.000 C 
ATOM      6  C   UNL     1      -1.322  14.445  23.194  0.00  0.00    +0.000 C 
ATOM      7  C   UNL     1      -3.724  14.179  22.292  0.00  0.00    +0.000 C 
ATOM      8  O   UNL     1      -3.841  15.075  21.469  0.00  0.00    +0.000 OA
ATOM      9  H   UNL     1      -2.374  12.139  24.443  0.00  0.00    +0.000 HD
ENDROOT
BRANCH   5  10
ATOM     10  C   UNL     1      -1.999  12.491  21.571  0.00  0.00    +0.000 A 
ATOM     11  C   UNL     1      -2.297  12.852  20.231  0.00  0.00    +0.000 A 
ATOM     12  C   UNL     1      -1.829  12.124  19.144  0.00  0.00    +0.000 A 
ATOM     13  C   UNL     1      -1.063  10.993  19.356  0.00  0.00    +0.000 A 
ATOM     14  C   UNL     1      -0.762  10.565  20.651  0.00  0.00    +0.000 A 
ATOM     15  C   UNL     1       0.021   9.408  20.793  0.00  0.00    +0.000 A 
ATOM     16  C   UNL     1       0.370   8.924  22.048  0.00  0.00    +0.000 A 
ATOM     17  C   UNL     1      -0.050   9.608  23.175  0.00  0.00    +0.000 A 
ATOM     18  C   UNL     1      -0.814  10.776  23.045  0.00  0.00    +0.000 A 
ATOM     19  C   UNL     1      -1.217  11.298  21.788  0.00  0.00    +0.000 A 
ENDBRANCH   5  10
BRANCH   1  20
ATOM     20  C   UNL     1      -6.134  13.599  22.481  0.00  0.00    +0.000 C 
BRANCH  20  25
ATOM     21  C   UNL     1      -6.595  10.783  18.592  0.00  0.00    +0.000 C 
ATOM     22  C   UNL     1      -6.775  11.182  19.998  0.00  0.00    +0.000 A 
ATOM     23  N   UNL     1      -7.471  10.607  20.955  0.00  0.00    +0.000 NA
ATOM     24  N   UNL     1      -7.317  11.397  22.076  0.00  0.00    +0.000 NA
ATOM     25  C   UNL     1      -6.538  12.398  21.720  0.00  0.00    +0.000 A 
ATOM     26  O   UNL     1      -6.156  12.330  20.405  0.00  0.00    +0.000 OA
ENDBRANCH  20  25
ENDBRANCH   1  20
TORSDOF 3
ENDMDL
MODEL 6
REMARK VINA RESULT:      -7.4      0.976      1.107
REMARK  Name = 
REMARK  5 active torsions:
REMARK  status: ('A' for Active; 'I' for Inactive)
REMARK    1  A    between atoms: C_1  and  C_2
REMARK    2  A    between atoms: C_5  and  C_6
REMARK    3  A    between atoms: C_6  and  N_7
REMARK    4  A    between atoms: C_11  and  C_12
REMARK    5  A    between atoms: C_11  and  C_13
REMARK                            x       y       z     vdW  Elec       q    Type
REMARK                         _______ _______ _______ _____ _____    ______ ____
ROOT
ATOM      1  N   UNL     1       1.896   3.656  19.305  0.00  0.00    +0.000 N 
ATOM      2  C   UNL     1       1.667   3.590  17.971  0.00  0.00    +0.000 C 
ATOM      3  O   UNL     1       0.750   4.090  17.343  0.00  0.00    +0.000 OA
ATOM      4  N   UNL     1       2.695   2.884  17.392  0.00  0.00    +0.000 N 
ATOM      5  C   UNL     1       3.830   2.723  18.301  0.00  0.00    +0.000 C 
ATOM      6  C   UNL     1       4.305   1.278  18.179  0.00  0.00    +0.000 C 
ATOM      7  C   UNL     1       3.068   3.021  19.622  0.00  0.00    +0.000 C 
ATOM      8  O   UNL     1       3.487   2.831  20.754  0.00  0.00    +0.000 OA
ATOM      9  H   UNL     1       2.759   2.820  16.386  0.00  0.00    +0.000 HD
ENDROOT
BRANCH   5  10
ATOM     10  C   UNL     1       4.895   3.838  18.093  0.00  0.00    +0.000 A 
ATOM     11  C   UNL     1       5.381   4.521  19.238  0.00  0.00    +0.000 A 
ATOM     12  C   UNL     1       6.451   5.405  19.178  0.00  0.00    +0.000 A 
ATOM     13  C   UNL     1       7.064   5.657  17.964  0.00  0.00    +0.000 A 
ATOM     14  C   UNL     1       6.612   5.042  16.794  0.00  0.00    +0.000 A 
ATOM     15  C   UNL     1       7.280   5.343  15.596  0.00  0.00    +0.000 A 
ATOM     16  C   UNL     1       6.896   4.766  14.392  0.00  0.00    +0.000 A 
ATOM     17  C   UNL     1       5.846   3.864  14.382  0.00  0.00    +0.000 A 
ATOM     18  C   UNL     1       5.185   3.540  15.575  0.00  0.00    +0.000 A 
ATOM     19  C   UNL     1       5.523   4.120  16.825  0.00  0.00    +0.000 A 
ENDBRANCH   5  10
BRANCH   1  20
ATOM     20  C   UNL     1       1.126   4.449  20.232  0.00  0.00    +0.000 C 
BRANCH  20  25
ATOM     21  C   UNL     1       2.795   8.448  18.114  0.00  0.00    +0.000 C 
ATOM     22  C   UNL     1       2.190   7.642  19.186  0.00  0.00    +0.000 A 
ATOM     23  N   UNL     1       1.843   7.988  20.407  0.00  0.00    +0.000 NA
ATOM     24  N   UNL     1       1.340   6.850  21.005  0.00  0.00    +0.000 NA
ATOM     25  C   UNL     1       1.417   5.892  20.105  0.00  0.00    +0.000 A 
ATOM     26  O   UNL     1       1.954   6.322  18.919  0.00  0.00    +0.000 OA
ENDBRANCH  20  25
ENDBRANCH   1  20
TORSDOF 3
ENDMDL
MODEL 7
REMARK VINA RESULT:      -7.3      3.242      6.774
REMARK  Name = 
REMARK  5 active torsions:
REMARK  status: ('A' for Active; 'I' for Inactive)
REMARK    1  A    between atoms: C_1  and  C_2
REMARK    2  A    between atoms: C_5  and  C_6
REMARK    3  A    between atoms: C_6  and  N_7
REMARK    4  A    between atoms: C_11  and  C_12
REMARK    5  A    between atoms: C_11  and  C_13
REMARK                            x       y       z     vdW  Elec       q    Type
REMARK                         _______ _______ _______ _____ _____    ______ ____
ROOT
ATOM      1  N   UNL     1       6.083   5.658  16.942  0.00  0.00    +0.000 N 
ATOM      2  C   UNL     1       5.165   6.347  16.222  0.00  0.00    +0.000 C 
ATOM      3  O   UNL     1       5.199   6.625  15.036  0.00  0.00    +0.000 OA
ATOM      4  N   UNL     1       4.114   6.662  17.051  0.00  0.00    +0.000 N 
ATOM      5  C   UNL     1       4.155   5.902  18.301  0.00  0.00    +0.000 C 
ATOM      6  C   UNL     1       3.837   6.876  19.432  0.00  0.00    +0.000 C 
ATOM      7  C   UNL     1       5.654   5.492  18.232  0.00  0.00    +0.000 C 
ATOM      8  O   UNL     1       6.308   4.998  19.138  0.00  0.00    +0.000 OA
ATOM      9  H   UNL     1       3.280   7.083  16.669  0.00  0.00    +0.000 HD
ENDROOT
BRANCH   5  10
ATOM     10  C   UNL     1       3.295   4.609  18.216  0.00  0.00    +0.000 A 
ATOM     11  C   UNL     1       3.224   3.932  16.971  0.00  0.00    +0.000 A 
ATOM     12  C   UNL     1       2.629   2.684  16.837  0.00  0.00    +0.000 A 
ATOM     13  C   UNL     1       2.061   2.074  17.940  0.00  0.00    +0.000 A 
ATOM     14  C   UNL     1       2.069   2.702  19.188  0.00  0.00    +0.000 A 
ATOM     15  C   UNL     1       1.474   2.025  20.265  0.00  0.00    +0.000 A 
ATOM     16  C   UNL     1       1.449   2.580  21.538  0.00  0.00    +0.000 A 
ATOM     17  C   UNL     1       2.037   3.815  21.747  0.00  0.00    +0.000 A 
ATOM     18  C   UNL     1       2.651   4.491  20.683  0.00  0.00    +0.000 A 
ATOM     19  C   UNL     1       2.682   3.978  19.361  0.00  0.00    +0.000 A 
ENDBRANCH   5  10
BRANCH   1  20
ATOM     20  C   UNL     1       7.249   5.016  16.386  0.00  0.00    +0.000 C 
BRANCH  20  25
ATOM     21  C   UNL     1       5.860   3.019  12.221  0.00  0.00    +0.000 C 
ATOM     22  C   UNL     1       6.578   3.966  13.089  0.00  0.00    +0.000 A 
ATOM     23  N   UNL     1       7.455   4.897  12.778  0.00  0.00    +0.000 NA
ATOM     24  N   UNL     1       7.833   5.487  13.968  0.00  0.00    +0.000 NA
ATOM     25  C   UNL     1       7.158   4.872  14.918  0.00  0.00    +0.000 A 
ATOM     26  O   UNL     1       6.340   3.886  14.433  0.00  0.00    +0.000 OA
ENDBRANCH  20  25
ENDBRANCH   1  20
TORSDOF 3
ENDMDL
MODEL 8
REMARK VINA RESULT:      -7.1      3.196      6.153
REMARK  Name = 
REMARK  5 active torsions:
REMARK  status: ('A' for Active; 'I' for Inactive)
REMARK    1  A    between atoms: C_1  and  C_2
REMARK    2  A    between atoms: C_5  and  C_6
REMARK    3  A    between atoms: C_6  and  N_7
REMARK    4  A    between atoms: C_11  and  C_12
REMARK    5  A    between atoms: C_11  and  C_13
REMARK                            x       y       z     vdW  Elec       q    Type
REMARK                         _______ _______ _______ _____ _____    ______ ____
ROOT
ATOM      1  N   UNL     1       5.793   4.882  18.062  0.00  0.00    +0.000 N 
ATOM      2  C   UNL     1       5.542   4.758  19.388  0.00  0.00    +0.000 C 
ATOM      3  O   UNL     1       6.345   4.752  20.305  0.00  0.00    +0.000 OA
ATOM      4  N   UNL     1       4.180   4.685  19.563  0.00  0.00    +0.000 N 
ATOM      5  C   UNL     1       3.450   5.083  18.360  0.00  0.00    +0.000 C 
ATOM      6  C   UNL     1       2.319   4.077  18.164  0.00  0.00    +0.000 C 
ATOM      7  C   UNL     1       4.621   4.910  17.353  0.00  0.00    +0.000 C 
ATOM      8  O   UNL     1       4.531   4.916  16.135  0.00  0.00    +0.000 OA
ATOM      9  H   UNL     1       3.790   4.698  20.496  0.00  0.00    +0.000 HD
ENDROOT
BRANCH   5  10
ATOM     10  C   UNL     1       3.060   6.588  18.397  0.00  0.00    +0.000 A 
ATOM     11  C   UNL     1       3.440   7.405  17.301  0.00  0.00    +0.000 A 
ATOM     12  C   UNL     1       2.991   8.712  17.157  0.00  0.00    +0.000 A 
ATOM     13  C   UNL     1       2.162   9.261  18.118  0.00  0.00    +0.000 A 
ATOM     14  C   UNL     1       1.778   8.521  19.238  0.00  0.00    +0.000 A 
ATOM     15  C   UNL     1       0.934   9.141  20.174  0.00  0.00    +0.000 A 
ATOM     16  C   UNL     1       0.501   8.467  21.310  0.00  0.00    +0.000 A 
ATOM     17  C   UNL     1       0.898   7.157  21.509  0.00  0.00    +0.000 A 
ATOM     18  C   UNL     1       1.723   6.521  20.570  0.00  0.00    +0.000 A 
ATOM     19  C   UNL     1       2.211   7.172  19.408  0.00  0.00    +0.000 A 
ENDBRANCH   5  10
BRANCH   1  20
ATOM     20  C   UNL     1       7.092   5.147  17.494  0.00  0.00    +0.000 C 
BRANCH  20  25
ATOM     21  C   UNL     1       8.994   9.302  19.039  0.00  0.00    +0.000 C 
ATOM     22  C   UNL     1       8.202   8.425  18.162  0.00  0.00    +0.000 A 
ATOM     23  N   UNL     1       7.432   8.729  17.139  0.00  0.00    +0.000 NA
ATOM     24  N   UNL     1       6.909   7.537  16.679  0.00  0.00    +0.000 NA
ATOM     25  C   UNL     1       7.398   6.593  17.456  0.00  0.00    +0.000 A 
ATOM     26  O   UNL     1       8.229   7.085  18.429  0.00  0.00    +0.000 OA
ENDBRANCH  20  25
ENDBRANCH   1  20
TORSDOF 3
ENDMDL
MODEL 9
REMARK VINA RESULT:      -7.0      3.111      6.878
REMARK  Name = 
REMARK  5 active torsions:
REMARK  status: ('A' for Active; 'I' for Inactive)
REMARK    1  A    between atoms: C_1  and  C_2
REMARK    2  A    between atoms: C_5  and  C_6
REMARK    3  A    between atoms: C_6  and  N_7
REMARK    4  A    between atoms: C_11  and  C_12
REMARK    5  A    between atoms: C_11  and  C_13
REMARK                            x       y       z     vdW  Elec       q    Type
REMARK                         _______ _______ _______ _____ _____    ______ ____
ROOT
ATOM      1  N   UNL     1       6.546   5.521  15.907  0.00  0.00    +0.000 N 
ATOM      2  C   UNL     1       5.606   6.492  16.006  0.00  0.00    +0.000 C 
ATOM      3  O   UNL     1       5.187   7.222  15.124  0.00  0.00    +0.000 OA
ATOM      4  N   UNL     1       5.133   6.504  17.297  0.00  0.00    +0.000 N 
ATOM      5  C   UNL     1       5.526   5.305  18.036  0.00  0.00    +0.000 C 
ATOM      6  C   UNL     1       5.980   5.757  19.422  0.00  0.00    +0.000 C 
ATOM      7  C   UNL     1       6.694   4.875  17.106  0.00  0.00    +0.000 C 
ATOM      8  O   UNL     1       7.534   4.022  17.351  0.00  0.00    +0.000 OA
ATOM      9  H   UNL     1       4.346   7.090  17.540  0.00  0.00    +0.000 HD
ENDROOT
BRANCH   5  10
ATOM     10  C   UNL     1       4.427   4.206  17.975  0.00  0.00    +0.000 A 
ATOM     11  C   UNL     1       4.660   3.072  17.155  0.00  0.00    +0.000 A 
ATOM     12  C   UNL     1       3.824   1.962  17.167  0.00  0.00    +0.000 A 
ATOM     13  C   UNL     1       2.710   1.952  17.986  0.00  0.00    +0.000 A 
ATOM     14  C   UNL     1       2.408   3.051  18.794  0.00  0.00    +0.000 A 
ATOM     15  C   UNL     1       1.261   2.973  19.601  0.00  0.00    +0.000 A 
ATOM     16  C   UNL     1       0.897   4.021  20.438  0.00  0.00    +0.000 A 
ATOM     17  C   UNL     1       1.693   5.152  20.487  0.00  0.00    +0.000 A 
ATOM     18  C   UNL     1       2.851   5.232  19.701  0.00  0.00    +0.000 A 
ATOM     19  C   UNL     1       3.252   4.200  18.813  0.00  0.00    +0.000 A 
ENDBRANCH   5  10
BRANCH   1  20
ATOM     20  C   UNL     1       7.158   5.094  14.673  0.00  0.00    +0.000 C 
BRANCH  20  25
ATOM     21  C   UNL     1       5.951   1.941  11.228  0.00  0.00    +0.000 C 
ATOM     22  C   UNL     1       5.718   2.904  12.316  0.00  0.00    +0.000 A 
ATOM     23  N   UNL     1       4.588   3.383  12.791  0.00  0.00    +0.000 NA
ATOM     24  N   UNL     1       4.932   4.265  13.796  0.00  0.00    +0.000 NA
ATOM     25  C   UNL     1       6.248   4.260  13.860  0.00  0.00    +0.000 A 
ATOM     26  O   UNL     1       6.820   3.418  12.942  0.00  0.00    +0.000 OA
ENDBRANCH  20  25
ENDBRANCH   1  20
TORSDOF 3
ENDMDL
