MODEL 1
REMARK VINA RESULT:      -8.6      0.000      0.000
REMARK  Name = 
REMARK  9 active torsions:
REMARK  status: ('A' for Active; 'I' for Inactive)
REMARK    1  A    between atoms: C_1  and  C_2
REMARK    2  A    between atoms: C_2  and  C_3
REMARK    3  A    between atoms: C_2  and  C_10
REMARK    4  A    between atoms: C_3  and  C_4
REMARK    5  A    between atoms: N_8  and  C_9
REMARK    6  A    between atoms: C_14  and  N_15
REMARK    7  A    between atoms: N_15  and  C_16
REMARK    8  A    between atoms: C_16  and  C_17
REMARK    9  A    between atoms: C_22  and  C_23
REMARK                            x       y       z     vdW  Elec       q    Type
REMARK                         _______ _______ _______ _____ _____    ______ ____
ROOT
ATOM      1  C   UNL     1       4.211   4.896  17.470  0.00  0.00    +0.000 A 
ATOM      2  C   UNL     1       3.321   3.833  17.250  0.00  0.00    +0.000 A 
ATOM      3  C   UNL     1       2.139   3.726  17.985  0.00  0.00    +0.000 A 
ATOM      4  C   UNL     1       1.805   4.706  18.915  0.00  0.00    +0.000 A 
ATOM      5  C   UNL     1       2.612   5.835  19.086  0.00  0.00    +0.000 A 
ATOM      6  C   UNL     1       3.829   5.896  18.385  0.00  0.00    +0.000 A 
ENDROOT
BRANCH   1   8
ATOM      7  C   UNL     1       6.714   4.626  17.758  0.00  0.00    +0.000 C 
ATOM      8  C   UNL     1       5.576   4.966  16.779  0.00  0.00    +0.000 C 
BRANCH   8   9
ATOM      9  C   UNL     1       5.610   4.107  15.494  0.00  0.00    +0.000 C 
BRANCH   9  10
ATOM     10  C   UNL     1       6.604   4.591  14.481  0.00  0.00    +0.000 A 
ATOM     11  N   UNL     1       7.563   5.466  14.716  0.00  0.00    +0.000 NA
ATOM     12  N   UNL     1       8.259   5.670  13.552  0.00  0.00    +0.000 NA
ATOM     13  C   UNL     1       7.723   4.911  12.628  0.00  0.00    +0.000 A 
ATOM     14  N   UNL     1       6.690   4.208  13.166  0.00  0.00    +0.000 N 
ATOM     15  C   UNL     1       5.879   3.255  12.457  0.00  0.00    +0.000 C 
ENDBRANCH   9  10
ENDBRANCH   8   9
ENDBRANCH   1   8
BRANCH   5  16
ATOM     16  N   UNL     1       2.320   6.862  20.008  0.00  0.00    +0.000 N 
ATOM     17  H   UNL     1       1.564   6.544  20.616  0.00  0.00    +0.000 HD
BRANCH  16  18
ATOM     18  C   UNL     1       1.996   8.167  19.439  0.00  0.00    +0.000 C 
BRANCH  18  19
ATOM     19  C   UNL     1       1.109   8.944  20.388  0.00  0.00    +0.000 A 
ATOM     20  C   UNL     1       1.058   8.497  21.725  0.00  0.00    +0.000 A 
ATOM     21  C   UNL     1       0.364   9.207  22.701  0.00  0.00    +0.000 A 
ATOM     22  C   UNL     1      -0.297  10.380  22.361  0.00  0.00    +0.000 A 
ATOM     23  C   UNL     1      -0.306  10.808  21.034  0.00  0.00    +0.000 A 
ATOM     24  C   UNL     1       0.365  10.086  20.023  0.00  0.00    +0.000 A 
BRANCH  24  25
ATOM     25  C   UNL     1       0.227  10.599  18.608  0.00  0.00    +0.000 C 
ATOM     26  F   UNL     1      -0.618  11.653  18.451  0.00  0.00    +0.000 F 
ATOM     27  F   UNL     1       1.419  11.023  18.098  0.00  0.00    +0.000 F 
ATOM     28  F   UNL     1      -0.218   9.637  17.750  0.00  0.00    +0.000 F 
ENDBRANCH  24  25
ENDBRANCH  18  19
ENDBRANCH  16  18
ENDBRANCH   5  16
TORSDOF 7
ENDMDL
MODEL 2
REMARK VINA RESULT:      -8.5      1.837      2.519
REMARK  Name = 
REMARK  9 active torsions:
REMARK  status: ('A' for Active; 'I' for Inactive)
REMARK    1  A    between atoms: C_1  and  C_2
REMARK    2  A    between atoms: C_2  and  C_3
REMARK    3  A    between atoms: C_2  and  C_10
REMARK    4  A    between atoms: C_3  and  C_4
REMARK    5  A    between atoms: N_8  and  C_9
REMARK    6  A    between atoms: C_14  and  N_15
REMARK    7  A    between atoms: N_15  and  C_16
REMARK    8  A    between atoms: C_16  and  C_17
REMARK    9  A    between atoms: C_22  and  C_23
REMARK                            x       y       z     vdW  Elec       q    Type
REMARK                         _______ _______ _______ _____ _____    ______ ____
ROOT
ATOM      1  C   UNL     1       4.210   4.498  17.199  0.00  0.00    +0.000 A 
ATOM      2  C   UNL     1       4.024   3.154  17.558  0.00  0.00    +0.000 A 
ATOM      3  C   UNL     1       3.575   2.810  18.833  0.00  0.00    +0.000 A 
ATOM      4  C   UNL     1       3.256   3.805  19.752  0.00  0.00    +0.000 A 
ATOM      5  C   UNL     1       3.326   5.156  19.398  0.00  0.00    +0.000 A 
ATOM      6  C   UNL     1       3.840   5.486  18.132  0.00  0.00    +0.000 A 
ENDROOT
BRANCH   1   8
ATOM      7  C   UNL     1       5.090   6.417  15.796  0.00  0.00    +0.000 C 
ATOM      8  C   UNL     1       4.830   4.900  15.857  0.00  0.00    +0.000 C 
BRANCH   8   9
ATOM      9  C   UNL     1       6.086   4.060  15.534  0.00  0.00    +0.000 C 
BRANCH   9  10
ATOM     10  C   UNL     1       6.887   4.603  14.389  0.00  0.00    +0.000 A 
ATOM     11  N   UNL     1       7.859   5.490  14.494  0.00  0.00    +0.000 NA
ATOM     12  N   UNL     1       8.346   5.753  13.240  0.00  0.00    +0.000 NA
ATOM     13  C   UNL     1       7.671   5.019  12.388  0.00  0.00    +0.000 A 
ATOM     14  N   UNL     1       6.755   4.273  13.063  0.00  0.00    +0.000 N 
ATOM     15  C   UNL     1       5.850   3.332  12.462  0.00  0.00    +0.000 C 
ENDBRANCH   9  10
ENDBRANCH   8   9
ENDBRANCH   1   8
BRANCH   5  16
ATOM     16  N   UNL     1       3.009   6.206  20.284  0.00  0.00    +0.000 N 
ATOM     17  H   UNL     1       3.276   5.922  21.228  0.00  0.00    +0.000 HD
BRANCH  16  18
ATOM     18  C   UNL     1       1.625   6.671  20.268  0.00  0.00    +0.000 C 
BRANCH  18  19
ATOM     19  C   UNL     1       1.557   8.086  19.737  0.00  0.00    +0.000 A 
ATOM     20  C   UNL     1       2.121   8.320  18.465  0.00  0.00    +0.000 A 
ATOM     21  C   UNL     1       2.009   9.557  17.837  0.00  0.00    +0.000 A 
ATOM     22  C   UNL     1       1.331  10.591  18.469  0.00  0.00    +0.000 A 
ATOM     23  C   UNL     1       0.815  10.398  19.750  0.00  0.00    +0.000 A 
ATOM     24  C   UNL     1       0.945   9.161  20.418  0.00  0.00    +0.000 A 
BRANCH  24  25
ATOM     25  C   UNL     1       0.416   9.085  21.831  0.00  0.00    +0.000 C 
ATOM     26  F   UNL     1       1.329   8.731  22.776  0.00  0.00    +0.000 F 
ATOM     27  F   UNL     1      -0.086  10.281  22.255  0.00  0.00    +0.000 F 
ATOM     28  F   UNL     1      -0.607   8.193  21.954  0.00  0.00    +0.000 F 
ENDBRANCH  24  25
ENDBRANCH  18  19
ENDBRANCH  16  18
ENDBRANCH   5  16
TORSDOF 7
ENDMDL
MODEL 3
REMARK VINA RESULT:      -8.4      0.776      1.115
REMARK  Name = 
REMARK  9 active torsions:
REMARK  status: ('A' for Active; 'I' for Inactive)
REMARK    1  A    between atoms: C_1  and  C_2
REMARK    2  A    between atoms: C_2  and  C_3
REMARK    3  A    between atoms: C_2  and  C_10
REMARK    4  A    between atoms: C_3  and  C_4
REMARK    5  A    between atoms: N_8  and  C_9
REMARK    6  A    between atoms: C_14  and  N_15
REMARK    7  A    between atoms: N_15  and  C_16
REMARK    8  A    between atoms: C_16  and  C_17
REMARK    9  A    between atoms: C_22  and  C_23
REMARK                            x       y       z     vdW  Elec       q    Type
REMARK                         _______ _______ _______ _____ _____    ______ ____
ROOT
ATOM      1  C   UNL     1       4.110   4.814  17.392  0.00  0.00    +0.000 A 
ATOM      2  C   UNL     1       4.028   3.511  17.908  0.00  0.00    +0.000 A 
ATOM      3  C   UNL     1       3.554   3.282  19.200  0.00  0.00    +0.000 A 
ATOM      4  C   UNL     1       3.109   4.346  19.978  0.00  0.00    +0.000 A 
ATOM      5  C   UNL     1       3.075   5.645  19.462  0.00  0.00    +0.000 A 
ATOM      6  C   UNL     1       3.614   5.868  18.183  0.00  0.00    +0.000 A 
ENDROOT
BRANCH   1   8
ATOM      7  C   UNL     1       5.009   6.616  15.853  0.00  0.00    +0.000 C 
ATOM      8  C   UNL     1       4.752   5.108  16.032  0.00  0.00    +0.000 C 
BRANCH   8   9
ATOM      9  C   UNL     1       6.015   4.249  15.799  0.00  0.00    +0.000 C 
BRANCH   9  10
ATOM     10  C   UNL     1       6.801   4.662  14.591  0.00  0.00    +0.000 A 
ATOM     11  N   UNL     1       7.845   5.468  14.603  0.00  0.00    +0.000 NA
ATOM     12  N   UNL     1       8.290   5.623  13.315  0.00  0.00    +0.000 NA
ATOM     13  C   UNL     1       7.518   4.903  12.538  0.00  0.00    +0.000 A 
ATOM     14  N   UNL     1       6.578   4.274  13.293  0.00  0.00    +0.000 N 
ATOM     15  C   UNL     1       5.571   3.381  12.787  0.00  0.00    +0.000 C 
ENDBRANCH   9  10
ENDBRANCH   8   9
ENDBRANCH   1   8
BRANCH   5  16
ATOM     16  N   UNL     1       2.628   6.761  20.201  0.00  0.00    +0.000 N 
ATOM     17  H   UNL     1       1.937   6.440  20.882  0.00  0.00    +0.000 HD
BRANCH  16  18
ATOM     18  C   UNL     1       2.094   7.878  19.427  0.00  0.00    +0.000 C 
BRANCH  18  19
ATOM     19  C   UNL     1       1.197   8.732  20.296  0.00  0.00    +0.000 A 
ATOM     20  C   UNL     1       1.035   8.330  21.638  0.00  0.00    +0.000 A 
ATOM     21  C   UNL     1       0.325   9.107  22.549  0.00  0.00    +0.000 A 
ATOM     22  C   UNL     1      -0.241  10.306  22.135  0.00  0.00    +0.000 A 
ATOM     23  C   UNL     1      -0.140  10.695  20.800  0.00  0.00    +0.000 A 
ATOM     24  C   UNL     1       0.548   9.905  19.853  0.00  0.00    +0.000 A 
BRANCH  24  25
ATOM     25  C   UNL     1       0.531  10.382  18.420  0.00  0.00    +0.000 C 
ATOM     26  F   UNL     1      -0.211   9.628  17.565  0.00  0.00    +0.000 F 
ATOM     27  F   UNL     1       0.027  11.645  18.306  0.00  0.00    +0.000 F 
ATOM     28  F   UNL     1       1.780  10.435  17.877  0.00  0.00    +0.000 F 
ENDBRANCH  24  25
ENDBRANCH  18  19
ENDBRANCH  16  18
ENDBRANCH   5  16
TORSDOF 7
ENDMDL
MODEL 4
REMARK VINA RESULT:      -8.4      3.596      7.736
REMARK  Name = 
REMARK  9 active torsions:
REMARK  status: ('A' for Active; 'I' for Inactive)
REMARK    1  A    between atoms: C_1  and  C_2
REMARK    2  A    between atoms: C_2  and  C_3
REMARK    3  A    between atoms: C_2  and  C_10
REMARK    4  A    between atoms: C_3  and  C_4
REMARK    5  A    between atoms: N_8  and  C_9
REMARK    6  A    between atoms: C_14  and  N_15
REMARK    7  A    between atoms: N_15  and  C_16
REMARK    8  A    between atoms: C_16  and  C_17
REMARK    9  A    between atoms: C_22  and  C_23
REMARK                            x       y       z     vdW  Elec       q    Type
REMARK                         _______ _______ _______ _____ _____    ______ ____
ROOT
ATOM      1  C   UNL     1       2.452   5.877  20.047  0.00  0.00    +0.000 A 
ATOM      2  C   UNL     1       1.440   5.007  20.481  0.00  0.00    +0.000 A 
ATOM      3  C   UNL     1       1.641   3.626  20.494  0.00  0.00    +0.000 A 
ATOM      4  C   UNL     1       2.873   3.097  20.123  0.00  0.00    +0.000 A 
ATOM      5  C   UNL     1       3.940   3.937  19.787  0.00  0.00    +0.000 A 
ATOM      6  C   UNL     1       3.702   5.320  19.717  0.00  0.00    +0.000 A 
ENDROOT
BRANCH   1   8
ATOM      7  C   UNL     1       2.380   7.823  18.426  0.00  0.00    +0.000 C 
ATOM      8  C   UNL     1       2.214   7.382  19.892  0.00  0.00    +0.000 C 
BRANCH   8   9
ATOM      9  C   UNL     1       0.860   7.813  20.501  0.00  0.00    +0.000 C 
BRANCH   9  10
ATOM     10  C   UNL     1       0.770   9.285  20.770  0.00  0.00    +0.000 A 
ATOM     11  N   UNL     1       1.219   9.888  21.855  0.00  0.00    +0.000 NA
ATOM     12  N   UNL     1       0.948  11.228  21.751  0.00  0.00    +0.000 NA
ATOM     13  C   UNL     1       0.347  11.426  20.603  0.00  0.00    +0.000 A 
ATOM     14  N   UNL     1       0.224  10.240  19.949  0.00  0.00    +0.000 N 
ATOM     15  C   UNL     1      -0.365  10.069  18.648  0.00  0.00    +0.000 C 
ENDBRANCH   9  10
ENDBRANCH   8   9
ENDBRANCH   1   8
BRANCH   5  16
ATOM     16  N   UNL     1       5.213   3.458  19.410  0.00  0.00    +0.000 N 
ATOM     17  H   UNL     1       5.897   3.793  20.090  0.00  0.00    +0.000 HD
BRANCH  16  18
ATOM     18  C   UNL     1       5.648   3.779  18.054  0.00  0.00    +0.000 C 
BRANCH  18  19
ATOM     19  C   UNL     1       6.359   5.115  18.038  0.00  0.00    +0.000 A 
ATOM     20  C   UNL     1       7.323   5.339  19.044  0.00  0.00    +0.000 A 
ATOM     21  C   UNL     1       8.113   6.485  19.050  0.00  0.00    +0.000 A 
ATOM     22  C   UNL     1       7.955   7.435  18.049  0.00  0.00    +0.000 A 
ATOM     23  C   UNL     1       6.971   7.260  17.078  0.00  0.00    +0.000 A 
ATOM     24  C   UNL     1       6.137   6.120  17.072  0.00  0.00    +0.000 A 
BRANCH  24  25
ATOM     25  C   UNL     1       5.054   6.068  16.019  0.00  0.00    +0.000 C 
ATOM     26  F   UNL     1       5.308   5.250  14.963  0.00  0.00    +0.000 F 
ATOM     27  F   UNL     1       3.865   5.630  16.528  0.00  0.00    +0.000 F 
ATOM     28  F   UNL     1       4.793   7.294  15.484  0.00  0.00    +0.000 F 
ENDBRANCH  24  25
ENDBRANCH  18  19
ENDBRANCH  16  18
ENDBRANCH   5  16
TORSDOF 7
ENDMDL
MODEL 5
REMARK VINA RESULT:      -8.3      4.356      8.635
REMARK  Name = 
REMARK  9 active torsions:
REMARK  status: ('A' for Active; 'I' for Inactive)
REMARK    1  A    between atoms: C_1  and  C_2
REMARK    2  A    between atoms: C_2  and  C_3
REMARK    3  A    between atoms: C_2  and  C_10
REMARK    4  A    between atoms: C_3  and  C_4
REMARK    5  A    between atoms: N_8  and  C_9
REMARK    6  A    between atoms: C_14  and  N_15
REMARK    7  A    between atoms: N_15  and  C_16
REMARK    8  A    between atoms: C_16  and  C_17
REMARK    9  A    between atoms: C_22  and  C_23
REMARK                            x       y       z     vdW  Elec       q    Type
REMARK                         _______ _______ _______ _____ _____    ______ ____
ROOT
ATOM      1  C   UNL     1      -0.216  10.754  20.487  0.00  0.00    +0.000 A 
ATOM      2  C   UNL     1      -0.753  11.073  21.743  0.00  0.00    +0.000 A 
ATOM      3  C   UNL     1      -0.529  10.249  22.848  0.00  0.00    +0.000 A 
ATOM      4  C   UNL     1       0.277   9.122  22.724  0.00  0.00    +0.000 A 
ATOM      5  C   UNL     1       0.918   8.829  21.516  0.00  0.00    +0.000 A 
ATOM      6  C   UNL     1       0.631   9.632  20.399  0.00  0.00    +0.000 A 
ENDROOT
BRANCH   1   8
ATOM      7  C   UNL     1       0.679  12.313  18.700  0.00  0.00    +0.000 C 
ATOM      8  C   UNL     1      -0.556  11.562  19.231  0.00  0.00    +0.000 C 
BRANCH   8   9
ATOM      9  C   UNL     1      -1.237  10.686  18.155  0.00  0.00    +0.000 C 
BRANCH   9  10
ATOM     10  C   UNL     1      -2.642  11.108  17.846  0.00  0.00    +0.000 A 
ATOM     11  N   UNL     1      -3.474  11.668  18.704  0.00  0.00    +0.000 NA
ATOM     12  N   UNL     1      -4.666  11.900  18.066  0.00  0.00    +0.000 NA
ATOM     13  C   UNL     1      -4.542  11.488  16.828  0.00  0.00    +0.000 A 
ATOM     14  N   UNL     1      -3.288  10.995  16.640  0.00  0.00    +0.000 N 
ATOM     15  C   UNL     1      -2.781  10.473  15.399  0.00  0.00    +0.000 C 
ENDBRANCH   9  10
ENDBRANCH   8   9
ENDBRANCH   1   8
BRANCH   5  16
ATOM     16  N   UNL     1       1.751   7.705  21.334  0.00  0.00    +0.000 N 
ATOM     17  H   UNL     1       2.561   7.803  21.948  0.00  0.00    +0.000 HD
BRANCH  16  18
ATOM     18  C   UNL     1       2.183   7.435  19.966  0.00  0.00    +0.000 C 
BRANCH  18  19
ATOM     19  C   UNL     1       2.100   5.953  19.677  0.00  0.00    +0.000 A 
ATOM     20  C   UNL     1       1.254   5.185  20.506  0.00  0.00    +0.000 A 
ATOM     21  C   UNL     1       1.019   3.837  20.253  0.00  0.00    +0.000 A 
ATOM     22  C   UNL     1       1.626   3.224  19.165  0.00  0.00    +0.000 A 
ATOM     23  C   UNL     1       2.509   3.950  18.366  0.00  0.00    +0.000 A 
ATOM     24  C   UNL     1       2.787   5.310  18.624  0.00  0.00    +0.000 A 
BRANCH  24  25
ATOM     25  C   UNL     1       3.816   5.979  17.742  0.00  0.00    +0.000 C 
ATOM     26  F   UNL     1       5.009   6.243  18.339  0.00  0.00    +0.000 F 
ATOM     27  F   UNL     1       4.126   5.220  16.651  0.00  0.00    +0.000 F 
ATOM     28  F   UNL     1       3.377   7.171  17.248  0.00  0.00    +0.000 F 
ENDBRANCH  24  25
ENDBRANCH  18  19
ENDBRANCH  16  18
ENDBRANCH   5  16
TORSDOF 7
ENDMDL
MODEL 6
REMARK VINA RESULT:      -8.3      1.804      2.378
REMARK  Name = 
REMARK  9 active torsions:
REMARK  status: ('A' for Active; 'I' for Inactive)
REMARK    1  A    between atoms: C_1  and  C_2
REMARK    2  A    between atoms: C_2  and  C_3
REMARK    3  A    between atoms: C_2  and  C_10
REMARK    4  A    between atoms: C_3  and  C_4
REMARK    5  A    between atoms: N_8  and  C_9
REMARK    6  A    between atoms: C_14  and  N_15
REMARK    7  A    between atoms: N_15  and  C_16
REMARK    8  A    between atoms: C_16  and  C_17
REMARK    9  A    between atoms: C_22  and  C_23
REMARK                            x       y       z     vdW  Elec       q    Type
REMARK                         _______ _______ _______ _____ _____    ______ ____
ROOT
ATOM      1  C   UNL     1       4.527   5.196  17.412  0.00  0.00    +0.000 A 
ATOM      2  C   UNL     1       3.702   4.099  17.703  0.00  0.00    +0.000 A 
ATOM      3  C   UNL     1       2.512   4.266  18.414  0.00  0.00    +0.000 A 
ATOM      4  C   UNL     1       2.105   5.539  18.801  0.00  0.00    +0.000 A 
ATOM      5  C   UNL     1       2.845   6.669  18.437  0.00  0.00    +0.000 A 
ATOM      6  C   UNL     1       4.071   6.477  17.777  0.00  0.00    +0.000 A 
ENDROOT
BRANCH   1   8
ATOM      7  C   UNL     1       6.941   4.512  17.767  0.00  0.00    +0.000 C 
ATOM      8  C   UNL     1       5.900   5.025  16.755  0.00  0.00    +0.000 C 
BRANCH   8   9
ATOM      9  C   UNL     1       5.819   4.155  15.480  0.00  0.00    +0.000 C 
BRANCH   9  10
ATOM     10  C   UNL     1       6.711   4.635  14.375  0.00  0.00    +0.000 A 
ATOM     11  N   UNL     1       7.685   5.515  14.512  0.00  0.00    +0.000 NA
ATOM     12  N   UNL     1       8.267   5.713  13.286  0.00  0.00    +0.000 NA
ATOM     13  C   UNL     1       7.648   4.946  12.422  0.00  0.00    +0.000 A 
ATOM     14  N   UNL     1       6.674   4.243  13.060  0.00  0.00    +0.000 N 
ATOM     15  C   UNL     1       5.803   3.284  12.436  0.00  0.00    +0.000 C 
ENDBRANCH   9  10
ENDBRANCH   8   9
ENDBRANCH   1   8
BRANCH   5  16
ATOM     16  N   UNL     1       2.477   7.983  18.794  0.00  0.00    +0.000 N 
ATOM     17  H   UNL     1       3.328   8.518  18.975  0.00  0.00    +0.000 HD
BRANCH  16  18
ATOM     18  C   UNL     1       1.551   8.113  19.915  0.00  0.00    +0.000 C 
BRANCH  18  19
ATOM     19  C   UNL     1       0.864   9.461  19.870  0.00  0.00    +0.000 A 
ATOM     20  C   UNL     1       1.031  10.225  18.695  0.00  0.00    +0.000 A 
ATOM     21  C   UNL     1       0.351  11.424  18.506  0.00  0.00    +0.000 A 
ATOM     22  C   UNL     1      -0.513  11.888  19.490  0.00  0.00    +0.000 A 
ATOM     23  C   UNL     1      -0.649  11.177  20.682  0.00  0.00    +0.000 A 
ATOM     24  C   UNL     1       0.056   9.975  20.907  0.00  0.00    +0.000 A 
BRANCH  24  25
ATOM     25  C   UNL     1      -0.108   9.326  22.262  0.00  0.00    +0.000 C 
ATOM     26  F   UNL     1       1.051   8.994  22.892  0.00  0.00    +0.000 F 
ATOM     27  F   UNL     1      -0.768  10.136  23.141  0.00  0.00    +0.000 F 
ATOM     28  F   UNL     1      -0.838   8.178  22.201  0.00  0.00    +0.000 F 
ENDBRANCH  24  25
ENDBRANCH  18  19
ENDBRANCH  16  18
ENDBRANCH   5  16
TORSDOF 7
ENDMDL
MODEL 7
REMARK VINA RESULT:      -8.2      3.729      5.458
REMARK  Name = 
REMARK  9 active torsions:
REMARK  status: ('A' for Active; 'I' for Inactive)
REMARK    1  A    between atoms: C_1  and  C_2
REMARK    2  A    between atoms: C_2  and  C_3
REMARK    3  A    between atoms: C_2  and  C_10
REMARK    4  A    between atoms: C_3  and  C_4
REMARK    5  A    between atoms: N_8  and  C_9
REMARK    6  A    between atoms: C_14  and  N_15
REMARK    7  A    between atoms: N_15  and  C_16
REMARK    8  A    between atoms: C_16  and  C_17
REMARK    9  A    between atoms: C_22  and  C_23
REMARK                            x       y       z     vdW  Elec       q    Type
REMARK                         _______ _______ _______ _____ _____    ______ ____
ROOT
ATOM      1  C   UNL     1       4.902   5.322  17.448  0.00  0.00    +0.000 A 
ATOM      2  C   UNL     1       4.814   6.318  18.432  0.00  0.00    +0.000 A 
ATOM      3  C   UNL     1       3.590   6.631  19.026  0.00  0.00    +0.000 A 
ATOM      4  C   UNL     1       2.446   5.918  18.681  0.00  0.00    +0.000 A 
ATOM      5  C   UNL     1       2.513   4.847  17.784  0.00  0.00    +0.000 A 
ATOM      6  C   UNL     1       3.739   4.588  17.148  0.00  0.00    +0.000 A 
ENDROOT
BRANCH   1   8
ATOM      7  C   UNL     1       7.294   4.502  17.618  0.00  0.00    +0.000 C 
ATOM      8  C   UNL     1       6.202   5.052  16.683  0.00  0.00    +0.000 C 
BRANCH   8   9
ATOM      9  C   UNL     1       5.961   4.158  15.446  0.00  0.00    +0.000 C 
BRANCH   9  10
ATOM     10  C   UNL     1       6.731   4.596  14.236  0.00  0.00    +0.000 A 
ATOM     11  N   UNL     1       7.699   5.493  14.235  0.00  0.00    +0.000 NA
ATOM     12  N   UNL     1       8.153   5.641  12.949  0.00  0.00    +0.000 NA
ATOM     13  C   UNL     1       7.465   4.827  12.187  0.00  0.00    +0.000 A 
ATOM     14  N   UNL     1       6.570   4.143  12.950  0.00  0.00    +0.000 N 
ATOM     15  C   UNL     1       5.658   3.144  12.462  0.00  0.00    +0.000 C 
ENDBRANCH   9  10
ENDBRANCH   8   9
ENDBRANCH   1   8
BRANCH   5  16
ATOM     16  N   UNL     1       1.388   4.085  17.403  0.00  0.00    +0.000 N 
ATOM     17  H   UNL     1       0.602   4.721  17.261  0.00  0.00    +0.000 HD
BRANCH  16  18
ATOM     18  C   UNL     1       1.007   3.001  18.302  0.00  0.00    +0.000 C 
BRANCH  18  19
ATOM     19  C   UNL     1       2.232   2.442  18.994  0.00  0.00    +0.000 A 
ATOM     20  C   UNL     1       3.084   1.624  18.222  0.00  0.00    +0.000 A 
ATOM     21  C   UNL     1       4.293   1.155  18.727  0.00  0.00    +0.000 A 
ATOM     22  C   UNL     1       4.677   1.493  20.018  0.00  0.00    +0.000 A 
ATOM     23  C   UNL     1       3.823   2.253  20.817  0.00  0.00    +0.000 A 
ATOM     24  C   UNL     1       2.578   2.712  20.335  0.00  0.00    +0.000 A 
BRANCH  24  25
ATOM     25  C   UNL     1       1.700   3.463  21.309  0.00  0.00    +0.000 C 
ATOM     26  F   UNL     1       0.646   4.120  20.754  0.00  0.00    +0.000 F 
ATOM     27  F   UNL     1       1.149   2.636  22.245  0.00  0.00    +0.000 F 
ATOM     28  F   UNL     1       2.393   4.402  22.012  0.00  0.00    +0.000 F 
ENDBRANCH  24  25
ENDBRANCH  18  19
ENDBRANCH  16  18
ENDBRANCH   5  16
TORSDOF 7
ENDMDL
MODEL 8
REMARK VINA RESULT:      -8.2      2.581      3.586
REMARK  Name = 
REMARK  9 active torsions:
REMARK  status: ('A' for Active; 'I' for Inactive)
REMARK    1  A    between atoms: C_1  and  C_2
REMARK    2  A    between atoms: C_2  and  C_3
REMARK    3  A    between atoms: C_2  and  C_10
REMARK    4  A    between atoms: C_3  and  C_4
REMARK    5  A    between atoms: N_8  and  C_9
REMARK    6  A    between atoms: C_14  and  N_15
REMARK    7  A    between atoms: N_15  and  C_16
REMARK    8  A    between atoms: C_16  and  C_17
REMARK    9  A    between atoms: C_22  and  C_23
REMARK                            x       y       z     vdW  Elec       q    Type
REMARK                         _______ _______ _______ _____ _____    ______ ____
ROOT
ATOM      1  C   UNL     1       2.609   4.524  18.357  0.00  0.00    +0.000 A 
ATOM      2  C   UNL     1       1.970   3.293  18.569  0.00  0.00    +0.000 A 
ATOM      3  C   UNL     1       1.139   3.099  19.674  0.00  0.00    +0.000 A 
ATOM      4  C   UNL     1       0.896   4.148  20.556  0.00  0.00    +0.000 A 
ATOM      5  C   UNL     1       1.429   5.419  20.320  0.00  0.00    +0.000 A 
ATOM      6  C   UNL     1       2.313   5.581  19.240  0.00  0.00    +0.000 A 
ENDROOT
BRANCH   1   8
ATOM      7  C   UNL     1       3.985   6.212  17.061  0.00  0.00    +0.000 C 
ATOM      8  C   UNL     1       3.631   4.724  17.233  0.00  0.00    +0.000 C 
BRANCH   8   9
ATOM      9  C   UNL     1       4.874   3.826  17.426  0.00  0.00    +0.000 C 
BRANCH   9  10
ATOM     10  C   UNL     1       5.988   4.504  18.165  0.00  0.00    +0.000 A 
ATOM     11  N   UNL     1       6.081   4.601  19.478  0.00  0.00    +0.000 NA
ATOM     12  N   UNL     1       7.223   5.297  19.783  0.00  0.00    +0.000 NA
ATOM     13  C   UNL     1       7.815   5.606  18.655  0.00  0.00    +0.000 A 
ATOM     14  N   UNL     1       7.085   5.120  17.615  0.00  0.00    +0.000 N 
ATOM     15  C   UNL     1       7.437   5.247  16.226  0.00  0.00    +0.000 C 
ENDBRANCH   9  10
ENDBRANCH   8   9
ENDBRANCH   1   8
BRANCH   5  16
ATOM     16  N   UNL     1       1.211   6.520  21.175  0.00  0.00    +0.000 N 
ATOM     17  H   UNL     1       0.218   6.758  21.146  0.00  0.00    +0.000 HD
BRANCH  16  18
ATOM     18  C   UNL     1       2.023   7.706  20.922  0.00  0.00    +0.000 C 
BRANCH  18  19
ATOM     19  C   UNL     1       1.206   8.753  20.198  0.00  0.00    +0.000 A 
ATOM     20  C   UNL     1       1.479   8.943  18.827  0.00  0.00    +0.000 A 
ATOM     21  C   UNL     1       0.708   9.798  18.044  0.00  0.00    +0.000 A 
ATOM     22  C   UNL     1      -0.354  10.485  18.617  0.00  0.00    +0.000 A 
ATOM     23  C   UNL     1      -0.606  10.355  19.982  0.00  0.00    +0.000 A 
ATOM     24  C   UNL     1       0.184   9.518  20.800  0.00  0.00    +0.000 A 
BRANCH  24  25
ATOM     25  C   UNL     1      -0.130   9.510  22.279  0.00  0.00    +0.000 C 
ATOM     26  F   UNL     1      -0.777  10.613  22.742  0.00  0.00    +0.000 F 
ATOM     27  F   UNL     1      -0.928   8.460  22.628  0.00  0.00    +0.000 F 
ATOM     28  F   UNL     1       0.991   9.389  23.045  0.00  0.00    +0.000 F 
ENDBRANCH  24  25
ENDBRANCH  18  19
ENDBRANCH  16  18
ENDBRANCH   5  16
TORSDOF 7
ENDMDL
MODEL 9
REMARK VINA RESULT:      -8.2      2.818      3.854
REMARK  Name = 
REMARK  9 active torsions:
REMARK  status: ('A' for Active; 'I' for Inactive)
REMARK    1  A    between atoms: C_1  and  C_2
REMARK    2  A    between atoms: C_2  and  C_3
REMARK    3  A    between atoms: C_2  and  C_10
REMARK    4  A    between atoms: C_3  and  C_4
REMARK    5  A    between atoms: N_8  and  C_9
REMARK    6  A    between atoms: C_14  and  N_15
REMARK    7  A    between atoms: N_15  and  C_16
REMARK    8  A    between atoms: C_16  and  C_17
REMARK    9  A    between atoms: C_22  and  C_23
REMARK                            x       y       z     vdW  Elec       q    Type
REMARK                         _______ _______ _______ _____ _____    ______ ____
ROOT
ATOM      1  C   UNL     1       3.106   3.916  18.684  0.00  0.00    +0.000 A 
ATOM      2  C   UNL     1       2.445   2.690  18.857  0.00  0.00    +0.000 A 
ATOM      3  C   UNL     1       1.384   2.569  19.755  0.00  0.00    +0.000 A 
ATOM      4  C   UNL     1       0.935   3.683  20.457  0.00  0.00    +0.000 A 
ATOM      5  C   UNL     1       1.497   4.944  20.234  0.00  0.00    +0.000 A 
ATOM      6  C   UNL     1       2.605   5.036  19.374  0.00  0.00    +0.000 A 
ENDROOT
BRANCH   1   8
ATOM      7  C   UNL     1       4.098   3.520  16.386  0.00  0.00    +0.000 C 
ATOM      8  C   UNL     1       4.357   4.046  17.810  0.00  0.00    +0.000 C 
BRANCH   8   9
ATOM      9  C   UNL     1       4.919   5.486  17.828  0.00  0.00    +0.000 C 
BRANCH   9  10
ATOM     10  C   UNL     1       6.199   5.615  18.597  0.00  0.00    +0.000 A 
ATOM     11  N   UNL     1       6.508   4.929  19.681  0.00  0.00    +0.000 NA
ATOM     12  N   UNL     1       7.748   5.327  20.110  0.00  0.00    +0.000 NA
ATOM     13  C   UNL     1       8.182   6.242  19.278  0.00  0.00    +0.000 A 
ATOM     14  N   UNL     1       7.252   6.448  18.308  0.00  0.00    +0.000 N 
ATOM     15  C   UNL     1       7.391   7.365  17.209  0.00  0.00    +0.000 C 
ENDBRANCH   9  10
ENDBRANCH   8   9
ENDBRANCH   1   8
BRANCH   5  16
ATOM     16  N   UNL     1       1.078   6.109  20.911  0.00  0.00    +0.000 N 
ATOM     17  H   UNL     1       0.172   6.392  20.534  0.00  0.00    +0.000 HD
BRANCH  16  18
ATOM     18  C   UNL     1       2.006   7.235  20.894  0.00  0.00    +0.000 C 
BRANCH  18  19
ATOM     19  C   UNL     1       1.420   8.383  20.100  0.00  0.00    +0.000 A 
ATOM     20  C   UNL     1       1.849   8.521  18.764  0.00  0.00    +0.000 A 
ATOM     21  C   UNL     1       1.287   9.470  17.915  0.00  0.00    +0.000 A 
ATOM     22  C   UNL     1       0.282  10.305  18.386  0.00  0.00    +0.000 A 
ATOM     23  C   UNL     1      -0.118  10.222  19.719  0.00  0.00    +0.000 A 
ATOM     24  C   UNL     1       0.462   9.289  20.605  0.00  0.00    +0.000 A 
BRANCH  24  25
ATOM     25  C   UNL     1       0.008   9.337  22.046  0.00  0.00    +0.000 C 
ATOM     26  F   UNL     1      -0.655  10.468  22.409  0.00  0.00    +0.000 F 
ATOM     27  F   UNL     1      -0.844   8.315  22.348  0.00  0.00    +0.000 F 
ATOM     28  F   UNL     1       1.047   9.219  22.920  0.00  0.00    +0.000 F 
ENDBRANCH  24  25
ENDBRANCH  18  19
ENDBRANCH  16  18
ENDBRANCH   5  16
TORSDOF 7
ENDMDL
