MODEL 1
REMARK VINA RESULT:      -8.5      0.000      0.000
REMARK  Name = 
REMARK  2 active torsions:
REMARK  status: ('A' for Active; 'I' for Inactive)
REMARK    1  A    between atoms: C_4  and  C_5
REMARK    2  A    between atoms: C_15  and  C_16
REMARK                            x       y       z     vdW  Elec       q    Type
REMARK                         _______ _______ _______ _____ _____    ______ ____
ROOT
ATOM      1  O   UNL     1       2.477   5.431  20.743  0.00  0.00    +0.000 OA
ATOM      2  C   UNL     1       2.749   6.043  19.715  0.00  0.00    +0.000 A 
ATOM      3  N   UNL     1       3.559   5.509  18.747  0.00  0.00    +0.000 N 
ATOM      4  C   UNL     1       3.900   6.174  17.590  0.00  0.00    +0.000 A 
ATOM      5  N   UNL     1       3.485   7.371  17.325  0.00  0.00    +0.000 NA
ATOM      6  C   UNL     1       2.627   7.994  18.245  0.00  0.00    +0.000 A 
ATOM      7  C   UNL     1       2.139   9.265  17.954  0.00  0.00    +0.000 A 
ATOM      8  C   UNL     1       1.274   9.913  18.842  0.00  0.00    +0.000 A 
ATOM      9  C   UNL     1       0.884   9.321  20.060  0.00  0.00    +0.000 A 
ATOM     10  C   UNL     1       1.380   8.036  20.337  0.00  0.00    +0.000 A 
ATOM     11  C   UNL     1       2.231   7.390  19.436  0.00  0.00    +0.000 A 
ATOM     12  H   UNL     1       3.937   4.600  18.969  0.00  0.00    +0.000 HD
ENDROOT
BRANCH   4  13
ATOM     13  C   UNL     1       4.777   5.460  16.642  0.00  0.00    +0.000 A 
ATOM     14  C   UNL     1       4.880   4.068  16.621  0.00  0.00    +0.000 A 
ATOM     15  C   UNL     1       5.699   3.462  15.672  0.00  0.00    +0.000 A 
ATOM     16  C   UNL     1       6.387   4.270  14.779  0.00  0.00    +0.000 A 
ATOM     17  N   UNL     1       6.305   5.618  14.770  0.00  0.00    +0.000 NA
ATOM     18  C   UNL     1       5.492   6.186  15.696  0.00  0.00    +0.000 A 
ENDBRANCH   4  13
BRANCH   9  19
ATOM     19  C   UNL     1       0.018  10.032  21.027  0.00  0.00    +0.000 A 
ATOM     20  C   UNL     1      -0.161   9.565  22.342  0.00  0.00    +0.000 A 
ATOM     21  C   UNL     1      -0.933  10.271  23.269  0.00  0.00    +0.000 A 
ATOM     22  C   UNL     1      -1.559  11.455  22.895  0.00  0.00    +0.000 A 
ATOM     23  C   UNL     1      -1.418  11.931  21.596  0.00  0.00    +0.000 A 
ATOM     24  C   UNL     1      -0.635  11.229  20.676  0.00  0.00    +0.000 A 
ENDBRANCH   9  19
TORSDOF 2
ENDMDL
MODEL 2
REMARK VINA RESULT:      -8.4      0.113      1.009
REMARK  Name = 
REMARK  2 active torsions:
REMARK  status: ('A' for Active; 'I' for Inactive)
REMARK    1  A    between atoms: C_4  and  C_5
REMARK    2  A    between atoms: C_15  and  C_16
REMARK                            x       y       z     vdW  Elec       q    Type
REMARK                         _______ _______ _______ _____ _____    ______ ____
ROOT
ATOM      1  O   UNL     1       2.556   5.374  20.708  0.00  0.00    +0.000 OA
ATOM      2  C   UNL     1       2.822   5.987  19.680  0.00  0.00    +0.000 A 
ATOM      3  N   UNL     1       3.614   5.449  18.700  0.00  0.00    +0.000 N 
ATOM      4  C   UNL     1       3.947   6.116  17.541  0.00  0.00    +0.000 A 
ATOM      5  N   UNL     1       3.541   7.317  17.286  0.00  0.00    +0.000 NA
ATOM      6  C   UNL     1       2.701   7.945  18.219  0.00  0.00    +0.000 A 
ATOM      7  C   UNL     1       2.221   9.221  17.939  0.00  0.00    +0.000 A 
ATOM      8  C   UNL     1       1.374   9.874  18.841  0.00  0.00    +0.000 A 
ATOM      9  C   UNL     1       0.993   9.281  20.061  0.00  0.00    +0.000 A 
ATOM     10  C   UNL     1       1.480   7.991  20.326  0.00  0.00    +0.000 A 
ATOM     11  C   UNL     1       2.314   7.340  19.413  0.00  0.00    +0.000 A 
ATOM     12  H   UNL     1       3.986   4.535  18.914  0.00  0.00    +0.000 HD
ENDROOT
BRANCH   4  13
ATOM     13  C   UNL     1       4.806   5.396  16.579  0.00  0.00    +0.000 A 
ATOM     14  C   UNL     1       4.859   4.003  16.520  0.00  0.00    +0.000 A 
ATOM     15  C   UNL     1       5.663   3.394  15.560  0.00  0.00    +0.000 A 
ATOM     16  C   UNL     1       6.386   4.201  14.695  0.00  0.00    +0.000 A 
ATOM     17  N   UNL     1       6.353   5.551  14.723  0.00  0.00    +0.000 NA
ATOM     18  C   UNL     1       5.553   6.122  15.659  0.00  0.00    +0.000 A 
ENDBRANCH   4  13
BRANCH   9  19
ATOM     19  C   UNL     1       0.146   9.997  21.041  0.00  0.00    +0.000 A 
ATOM     20  C   UNL     1      -0.556  11.167  20.695  0.00  0.00    +0.000 A 
ATOM     21  C   UNL     1      -1.401  11.808  21.606  0.00  0.00    +0.000 A 
ATOM     22  C   UNL     1      -1.549  11.302  22.892  0.00  0.00    +0.000 A 
ATOM     23  C   UNL     1      -0.852  10.159  23.270  0.00  0.00    +0.000 A 
ATOM     24  C   UNL     1      -0.018   9.514  22.352  0.00  0.00    +0.000 A 
ENDBRANCH   9  19
TORSDOF 2
ENDMDL
MODEL 3
REMARK VINA RESULT:      -8.4      0.636      1.017
REMARK  Name = 
REMARK  2 active torsions:
REMARK  status: ('A' for Active; 'I' for Inactive)
REMARK    1  A    between atoms: C_4  and  C_5
REMARK    2  A    between atoms: C_15  and  C_16
REMARK                            x       y       z     vdW  Elec       q    Type
REMARK                         _______ _______ _______ _____ _____    ______ ____
ROOT
ATOM      1  O   UNL     1       2.662   5.329  20.690  0.00  0.00    +0.000 OA
ATOM      2  C   UNL     1       2.886   5.937  19.650  0.00  0.00    +0.000 A 
ATOM      3  N   UNL     1       3.663   5.407  18.653  0.00  0.00    +0.000 N 
ATOM      4  C   UNL     1       3.950   6.069  17.479  0.00  0.00    +0.000 A 
ATOM      5  N   UNL     1       3.511   7.259  17.225  0.00  0.00    +0.000 NA
ATOM      6  C   UNL     1       2.683   7.878  18.174  0.00  0.00    +0.000 A 
ATOM      7  C   UNL     1       2.169   9.141  17.895  0.00  0.00    +0.000 A 
ATOM      8  C   UNL     1       1.332   9.784  18.813  0.00  0.00    +0.000 A 
ATOM      9  C   UNL     1       0.997   9.195  20.049  0.00  0.00    +0.000 A 
ATOM     10  C   UNL     1       1.519   7.919  20.313  0.00  0.00    +0.000 A 
ATOM     11  C   UNL     1       2.341   7.276  19.383  0.00  0.00    +0.000 A 
ATOM     12  H   UNL     1       4.060   4.503  18.865  0.00  0.00    +0.000 HD
ENDROOT
BRANCH   4  13
ATOM     13  C   UNL     1       4.797   5.359  16.501  0.00  0.00    +0.000 A 
ATOM     14  C   UNL     1       5.371   6.000  15.402  0.00  0.00    +0.000 A 
ATOM     15  C   UNL     1       6.191   5.274  14.544  0.00  0.00    +0.000 A 
ATOM     16  C   UNL     1       6.406   3.931  14.814  0.00  0.00    +0.000 A 
ATOM     17  N   UNL     1       5.870   3.282  15.869  0.00  0.00    +0.000 NA
ATOM     18  C   UNL     1       5.084   4.013  16.699  0.00  0.00    +0.000 A 
ENDBRANCH   4  13
BRANCH   9  19
ATOM     19  C   UNL     1       0.162   9.903  21.045  0.00  0.00    +0.000 A 
ATOM     20  C   UNL     1      -0.061   9.375  22.331  0.00  0.00    +0.000 A 
ATOM     21  C   UNL     1      -0.803  10.075  23.288  0.00  0.00    +0.000 A 
ATOM     22  C   UNL     1      -1.354  11.312  22.974  0.00  0.00    +0.000 A 
ATOM     23  C   UNL     1      -1.168  11.848  21.705  0.00  0.00    +0.000 A 
ATOM     24  C   UNL     1      -0.416  11.153  20.754  0.00  0.00    +0.000 A 
ENDBRANCH   9  19
TORSDOF 2
ENDMDL
MODEL 4
REMARK VINA RESULT:      -8.3      0.623      1.423
REMARK  Name = 
REMARK  2 active torsions:
REMARK  status: ('A' for Active; 'I' for Inactive)
REMARK    1  A    between atoms: C_4  and  C_5
REMARK    2  A    between atoms: C_15  and  C_16
REMARK                            x       y       z     vdW  Elec       q    Type
REMARK                         _______ _______ _______ _____ _____    ______ ____
ROOT
ATOM      1  O   UNL     1       2.468   5.437  20.781  0.00  0.00    +0.000 OA
ATOM      2  C   UNL     1       2.730   6.031  19.740  0.00  0.00    +0.000 A 
ATOM      3  N   UNL     1       3.511   5.471  18.763  0.00  0.00    +0.000 N 
ATOM      4  C   UNL     1       3.840   6.116  17.591  0.00  0.00    +0.000 A 
ATOM      5  N   UNL     1       3.441   7.316  17.319  0.00  0.00    +0.000 NA
ATOM      6  C   UNL     1       2.612   7.965  18.247  0.00  0.00    +0.000 A 
ATOM      7  C   UNL     1       2.139   9.240  17.950  0.00  0.00    +0.000 A 
ATOM      8  C   UNL     1       1.303   9.914  18.846  0.00  0.00    +0.000 A 
ATOM      9  C   UNL     1       0.927   9.344  20.079  0.00  0.00    +0.000 A 
ATOM     10  C   UNL     1       1.407   8.055  20.363  0.00  0.00    +0.000 A 
ATOM     11  C   UNL     1       2.229   7.383  19.454  0.00  0.00    +0.000 A 
ATOM     12  H   UNL     1       3.878   4.558  18.990  0.00  0.00    +0.000 HD
ENDROOT
BRANCH   4  13
ATOM     13  C   UNL     1       4.687   5.375  16.635  0.00  0.00    +0.000 A 
ATOM     14  C   UNL     1       5.339   6.000  15.571  0.00  0.00    +0.000 A 
ATOM     15  C   UNL     1       6.152   5.242  14.733  0.00  0.00    +0.000 A 
ATOM     16  C   UNL     1       6.282   3.886  14.988  0.00  0.00    +0.000 A 
ATOM     17  N   UNL     1       5.668   3.251  16.010  0.00  0.00    +0.000 NA
ATOM     18  C   UNL     1       4.890   4.012  16.820  0.00  0.00    +0.000 A 
ENDBRANCH   4  13
BRANCH   9  19
ATOM     19  C   UNL     1       0.093  10.082  21.053  0.00  0.00    +0.000 A 
ATOM     20  C   UNL     1      -0.582  11.266  20.700  0.00  0.00    +0.000 A 
ATOM     21  C   UNL     1      -1.416  11.929  21.606  0.00  0.00    +0.000 A 
ATOM     22  C   UNL     1      -1.581  11.431  22.893  0.00  0.00    +0.000 A 
ATOM     23  C   UNL     1      -0.910  10.275  23.278  0.00  0.00    +0.000 A 
ATOM     24  C   UNL     1      -0.087   9.608  22.366  0.00  0.00    +0.000 A 
ENDBRANCH   9  19
TORSDOF 2
ENDMDL
MODEL 5
REMARK VINA RESULT:      -8.2      2.505      8.452
REMARK  Name = 
REMARK  2 active torsions:
REMARK  status: ('A' for Active; 'I' for Inactive)
REMARK    1  A    between atoms: C_4  and  C_5
REMARK    2  A    between atoms: C_15  and  C_16
REMARK                            x       y       z     vdW  Elec       q    Type
REMARK                         _______ _______ _______ _____ _____    ______ ____
ROOT
ATOM      1  O   UNL     1       2.189  10.189  17.186  0.00  0.00    +0.000 OA
ATOM      2  C   UNL     1       1.891   9.602  18.220  0.00  0.00    +0.000 A 
ATOM      3  N   UNL     1       1.097  10.178  19.177  0.00  0.00    +0.000 N 
ATOM      4  C   UNL     1       0.756   9.555  20.358  0.00  0.00    +0.000 A 
ATOM      5  N   UNL     1       1.169   8.368  20.664  0.00  0.00    +0.000 NA
ATOM      6  C   UNL     1       1.967   7.683  19.735  0.00  0.00    +0.000 A 
ATOM      7  C   UNL     1       2.383   6.388  20.032  0.00  0.00    +0.000 A 
ATOM      8  C   UNL     1       3.171   5.671  19.125  0.00  0.00    +0.000 A 
ATOM      9  C   UNL     1       3.586   6.231  17.901  0.00  0.00    +0.000 A 
ATOM     10  C   UNL     1       3.153   7.535  17.612  0.00  0.00    +0.000 A 
ATOM     11  C   UNL     1       2.353   8.239  18.517  0.00  0.00    +0.000 A 
ATOM     12  H   UNL     1       0.818  11.128  18.976  0.00  0.00    +0.000 HD
ENDROOT
BRANCH   4  13
ATOM     13  C   UNL     1      -0.113  10.308  21.284  0.00  0.00    +0.000 A 
ATOM     14  C   UNL     1      -0.870  11.406  20.875  0.00  0.00    +0.000 A 
ATOM     15  C   UNL     1      -1.696  12.043  21.796  0.00  0.00    +0.000 A 
ATOM     16  C   UNL     1      -1.735  11.559  23.095  0.00  0.00    +0.000 A 
ATOM     17  N   UNL     1      -1.018  10.497  23.522  0.00  0.00    +0.000 NA
ATOM     18  C   UNL     1      -0.229   9.885  22.603  0.00  0.00    +0.000 A 
ENDBRANCH   4  13
BRANCH   9  19
ATOM     19  C   UNL     1       4.470   5.493  16.970  0.00  0.00    +0.000 A 
ATOM     20  C   UNL     1       4.630   4.097  17.055  0.00  0.00    +0.000 A 
ATOM     21  C   UNL     1       5.420   3.397  16.137  0.00  0.00    +0.000 A 
ATOM     22  C   UNL     1       6.082   4.081  15.124  0.00  0.00    +0.000 A 
ATOM     23  C   UNL     1       5.960   5.463  15.029  0.00  0.00    +0.000 A 
ATOM     24  C   UNL     1       5.159   6.158  15.940  0.00  0.00    +0.000 A 
ENDBRANCH   9  19
TORSDOF 2
ENDMDL
MODEL 6
REMARK VINA RESULT:      -8.2      2.510      8.505
REMARK  Name = 
REMARK  2 active torsions:
REMARK  status: ('A' for Active; 'I' for Inactive)
REMARK    1  A    between atoms: C_4  and  C_5
REMARK    2  A    between atoms: C_15  and  C_16
REMARK                            x       y       z     vdW  Elec       q    Type
REMARK                         _______ _______ _______ _____ _____    ______ ____
ROOT
ATOM      1  O   UNL     1       2.200  10.225  17.204  0.00  0.00    +0.000 OA
ATOM      2  C   UNL     1       1.894   9.628  18.230  0.00  0.00    +0.000 A 
ATOM      3  N   UNL     1       1.102  10.198  19.192  0.00  0.00    +0.000 N 
ATOM      4  C   UNL     1       0.753   9.563  20.364  0.00  0.00    +0.000 A 
ATOM      5  N   UNL     1       1.155   8.368  20.656  0.00  0.00    +0.000 NA
ATOM      6  C   UNL     1       1.950   7.688  19.721  0.00  0.00    +0.000 A 
ATOM      7  C   UNL     1       2.355   6.387  20.002  0.00  0.00    +0.000 A 
ATOM      8  C   UNL     1       3.140   5.675  19.089  0.00  0.00    +0.000 A 
ATOM      9  C   UNL     1       3.563   6.247  17.872  0.00  0.00    +0.000 A 
ATOM     10  C   UNL     1       3.142   7.559  17.600  0.00  0.00    +0.000 A 
ATOM     11  C   UNL     1       2.344   8.257  18.511  0.00  0.00    +0.000 A 
ATOM     12  H   UNL     1       0.831  11.152  19.003  0.00  0.00    +0.000 HD
ENDROOT
BRANCH   4  13
ATOM     13  C   UNL     1      -0.113  10.310  21.298  0.00  0.00    +0.000 A 
ATOM     14  C   UNL     1      -0.882  11.403  20.894  0.00  0.00    +0.000 A 
ATOM     15  C   UNL     1      -1.704  12.034  21.822  0.00  0.00    +0.000 A 
ATOM     16  C   UNL     1      -1.727  11.552  23.122  0.00  0.00    +0.000 A 
ATOM     17  N   UNL     1      -0.999  10.496  23.543  0.00  0.00    +0.000 NA
ATOM     18  C   UNL     1      -0.214   9.889  22.618  0.00  0.00    +0.000 A 
ENDBRANCH   4  13
BRANCH   9  19
ATOM     19  C   UNL     1       4.443   5.515  16.935  0.00  0.00    +0.000 A 
ATOM     20  C   UNL     1       5.162   6.180  15.924  0.00  0.00    +0.000 A 
ATOM     21  C   UNL     1       6.038   5.492  15.078  0.00  0.00    +0.000 A 
ATOM     22  C   UNL     1       6.202   4.118  15.214  0.00  0.00    +0.000 A 
ATOM     23  C   UNL     1       5.489   3.431  16.190  0.00  0.00    +0.000 A 
ATOM     24  C   UNL     1       4.624   4.123  17.042  0.00  0.00    +0.000 A 
ENDBRANCH   9  19
TORSDOF 2
ENDMDL
MODEL 7
REMARK VINA RESULT:      -8.1      2.443      8.454
REMARK  Name = 
REMARK  2 active torsions:
REMARK  status: ('A' for Active; 'I' for Inactive)
REMARK    1  A    between atoms: C_4  and  C_5
REMARK    2  A    between atoms: C_15  and  C_16
REMARK                            x       y       z     vdW  Elec       q    Type
REMARK                         _______ _______ _______ _____ _____    ______ ____
ROOT
ATOM      1  O   UNL     1       2.186  10.060  17.173  0.00  0.00    +0.000 OA
ATOM      2  C   UNL     1       1.916   9.457  18.206  0.00  0.00    +0.000 A 
ATOM      3  N   UNL     1       1.129  10.008  19.183  0.00  0.00    +0.000 N 
ATOM      4  C   UNL     1       0.821   9.367  20.363  0.00  0.00    +0.000 A 
ATOM      5  N   UNL     1       1.261   8.184  20.650  0.00  0.00    +0.000 NA
ATOM      6  C   UNL     1       2.055   7.524  19.699  0.00  0.00    +0.000 A 
ATOM      7  C   UNL     1       2.501   6.234  19.975  0.00  0.00    +0.000 A 
ATOM      8  C   UNL     1       3.286   5.541  19.047  0.00  0.00    +0.000 A 
ATOM      9  C   UNL     1       3.668   6.122  17.821  0.00  0.00    +0.000 A 
ATOM     10  C   UNL     1       3.207   7.421  17.555  0.00  0.00    +0.000 A 
ATOM     11  C   UNL     1       2.409   8.100  18.481  0.00  0.00    +0.000 A 
ATOM     12  H   UNL     1       0.829  10.954  18.998  0.00  0.00    +0.000 HD
ENDROOT
BRANCH   4  13
ATOM     13  C   UNL     1      -0.045  10.093  21.313  0.00  0.00    +0.000 A 
ATOM     14  C   UNL     1      -0.285   9.634  22.609  0.00  0.00    +0.000 A 
ATOM     15  C   UNL     1      -1.082  10.393  23.461  0.00  0.00    +0.000 A 
ATOM     16  C   UNL     1      -1.612  11.583  22.986  0.00  0.00    +0.000 A 
ATOM     17  N   UNL     1      -1.396  12.056  21.740  0.00  0.00    +0.000 NA
ATOM     18  C   UNL     1      -0.606  11.306  20.931  0.00  0.00    +0.000 A 
ENDBRANCH   4  13
BRANCH   9  19
ATOM     19  C   UNL     1       4.549   5.411  16.868  0.00  0.00    +0.000 A 
ATOM     20  C   UNL     1       5.248   6.096  15.856  0.00  0.00    +0.000 A 
ATOM     21  C   UNL     1       6.124   5.428  14.994  0.00  0.00    +0.000 A 
ATOM     22  C   UNL     1       6.308   4.056  15.114  0.00  0.00    +0.000 A 
ATOM     23  C   UNL     1       5.615   3.349  16.091  0.00  0.00    +0.000 A 
ATOM     24  C   UNL     1       4.749   4.021  16.959  0.00  0.00    +0.000 A 
ENDBRANCH   9  19
TORSDOF 2
ENDMDL
MODEL 8
REMARK VINA RESULT:      -8.1      2.516      8.412
REMARK  Name = 
REMARK  2 active torsions:
REMARK  status: ('A' for Active; 'I' for Inactive)
REMARK    1  A    between atoms: C_4  and  C_5
REMARK    2  A    between atoms: C_15  and  C_16
REMARK                            x       y       z     vdW  Elec       q    Type
REMARK                         _______ _______ _______ _____ _____    ______ ____
ROOT
ATOM      1  O   UNL     1       2.208  10.256  17.205  0.00  0.00    +0.000 OA
ATOM      2  C   UNL     1       1.876   9.651  18.219  0.00  0.00    +0.000 A 
ATOM      3  N   UNL     1       1.056  10.213  19.162  0.00  0.00    +0.000 N 
ATOM      4  C   UNL     1       0.677   9.570  20.320  0.00  0.00    +0.000 A 
ATOM      5  N   UNL     1       1.076   8.375  20.616  0.00  0.00    +0.000 NA
ATOM      6  C   UNL     1       1.899   7.703  19.699  0.00  0.00    +0.000 A 
ATOM      7  C   UNL     1       2.301   6.402  19.984  0.00  0.00    +0.000 A 
ATOM      8  C   UNL     1       3.114   5.698  19.088  0.00  0.00    +0.000 A 
ATOM      9  C   UNL     1       3.568   6.279  17.887  0.00  0.00    +0.000 A 
ATOM     10  C   UNL     1       3.149   7.591  17.611  0.00  0.00    +0.000 A 
ATOM     11  C   UNL     1       2.324   8.281  18.504  0.00  0.00    +0.000 A 
ATOM     12  H   UNL     1       0.786  11.167  18.971  0.00  0.00    +0.000 HD
ENDROOT
BRANCH   4  13
ATOM     13  C   UNL     1      -0.217  10.308  21.234  0.00  0.00    +0.000 A 
ATOM     14  C   UNL     1      -0.414   9.924  22.561  0.00  0.00    +0.000 A 
ATOM     15  C   UNL     1      -1.242  10.692  23.374  0.00  0.00    +0.000 A 
ATOM     16  C   UNL     1      -1.844  11.817  22.831  0.00  0.00    +0.000 A 
ATOM     17  N   UNL     1      -1.671  12.218  21.553  0.00  0.00    +0.000 NA
ATOM     18  C   UNL     1      -0.850  11.460  20.782  0.00  0.00    +0.000 A 
ENDBRANCH   4  13
BRANCH   9  19
ATOM     19  C   UNL     1       4.476   5.556  16.971  0.00  0.00    +0.000 A 
ATOM     20  C   UNL     1       4.654   4.162  17.054  0.00  0.00    +0.000 A 
ATOM     21  C   UNL     1       5.468   3.474  16.149  0.00  0.00    +0.000 A 
ATOM     22  C   UNL     1       6.138   4.169  15.149  0.00  0.00    +0.000 A 
ATOM     23  C   UNL     1       6.000   5.549  15.055  0.00  0.00    +0.000 A 
ATOM     24  C   UNL     1       5.175   6.232  15.953  0.00  0.00    +0.000 A 
ENDBRANCH   9  19
TORSDOF 2
ENDMDL
MODEL 9
REMARK VINA RESULT:      -7.6      2.333      4.109
REMARK  Name = 
REMARK  2 active torsions:
REMARK  status: ('A' for Active; 'I' for Inactive)
REMARK    1  A    between atoms: C_4  and  C_5
REMARK    2  A    between atoms: C_15  and  C_16
REMARK                            x       y       z     vdW  Elec       q    Type
REMARK                         _______ _______ _______ _____ _____    ______ ____
ROOT
ATOM      1  O   UNL     1       0.457  11.452  18.458  0.00  0.00    +0.000 OA
ATOM      2  C   UNL     1       0.712  10.478  19.157  0.00  0.00    +0.000 A 
ATOM      3  N   UNL     1       1.448   9.421  18.688  0.00  0.00    +0.000 N 
ATOM      4  C   UNL     1       1.737   8.303  19.440  0.00  0.00    +0.000 A 
ATOM      5  N   UNL     1       1.327   8.157  20.659  0.00  0.00    +0.000 NA
ATOM      6  C   UNL     1       0.587   9.198  21.239  0.00  0.00    +0.000 A 
ATOM      7  C   UNL     1       0.175   9.073  22.562  0.00  0.00    +0.000 A 
ATOM      8  C   UNL     1      -0.556  10.096  23.178  0.00  0.00    +0.000 A 
ATOM      9  C   UNL     1      -0.917  11.268  22.484  0.00  0.00    +0.000 A 
ATOM     10  C   UNL     1      -0.489  11.382  21.151  0.00  0.00    +0.000 A 
ATOM     11  C   UNL     1       0.255  10.363  20.550  0.00  0.00    +0.000 A 
ATOM     12  H   UNL     1       1.723   9.497  17.720  0.00  0.00    +0.000 HD
ENDROOT
BRANCH   4  13
ATOM     13  C   UNL     1       2.548   7.253  18.792  0.00  0.00    +0.000 A 
ATOM     14  C   UNL     1       2.433   5.904  19.129  0.00  0.00    +0.000 A 
ATOM     15  C   UNL     1       3.202   4.965  18.448  0.00  0.00    +0.000 A 
ATOM     16  C   UNL     1       4.061   5.410  17.454  0.00  0.00    +0.000 A 
ATOM     17  N   UNL     1       4.192   6.707  17.101  0.00  0.00    +0.000 NA
ATOM     18  C   UNL     1       3.423   7.602  17.771  0.00  0.00    +0.000 A 
ENDBRANCH   4  13
BRANCH   9  19
ATOM     19  C   UNL     1      -1.742  12.321  23.117  0.00  0.00    +0.000 A 
ATOM     20  C   UNL     1      -3.063  12.073  23.535  0.00  0.00    +0.000 A 
ATOM     21  C   UNL     1      -3.819  13.053  24.186  0.00  0.00    +0.000 A 
ATOM     22  C   UNL     1      -3.276  14.312  24.416  0.00  0.00    +0.000 A 
ATOM     23  C   UNL     1      -1.981  14.593  23.995  0.00  0.00    +0.000 A 
ATOM     24  C   UNL     1      -1.223  13.607  23.356  0.00  0.00    +0.000 A 
ENDBRANCH   9  19
TORSDOF 2
ENDMDL
