MODEL 1
REMARK VINA RESULT:      -7.5      0.000      0.000
REMARK  Name = 
REMARK  6 active torsions:
REMARK  status: ('A' for Active; 'I' for Inactive)
REMARK    1  A    between atoms: C_1  and  C_2
REMARK    2  A    between atoms: C_5  and  C_6
REMARK    3  A    between atoms: C_10  and  C_11
REMARK    4  A    between atoms: C_11  and  N_12
REMARK    5  A    between atoms: N_12  and  C_13
REMARK    6  A    between atoms: C_14  and  C_16
REMARK                            x       y       z     vdW  Elec       q    Type
REMARK                         _______ _______ _______ _____ _____    ______ ____
ROOT
ATOM      1  N   UNL     1       3.601   7.390  17.637  0.00  0.00    +0.000 N 
ATOM      2  C   UNL     1       3.456   8.806  17.349  0.00  0.00    +0.000 C 
ATOM      3  C   UNL     1       2.618   6.733  18.394  0.00  0.00    +0.000 C 
ATOM      4  O   UNL     1       1.773   7.373  19.031  0.00  0.00    +0.000 OA
ENDROOT
BRANCH   3   5
ATOM      5  C   UNL     1       2.610   5.270  18.371  0.00  0.00    +0.000 A 
ATOM      6  N   UNL     1       2.947   4.551  17.306  0.00  0.00    +0.000 NA
ATOM      7  C   UNL     1       2.676   3.246  17.602  0.00  0.00    +0.000 A 
ATOM      8  C   UNL     1       2.144   3.154  18.857  0.00  0.00    +0.000 A 
ATOM      9  C   UNL     1       1.582   2.140  19.679  0.00  0.00    +0.000 A 
ATOM     10  F   UNL     1       0.242   2.034  19.453  0.00  0.00    +0.000 F 
ATOM     11  C   UNL     1       1.935   2.222  20.983  0.00  0.00    +0.000 A 
ATOM     12  C   UNL     1       1.911   3.574  21.591  0.00  0.00    +0.000 A 
ATOM     13  C   UNL     1       2.058   4.643  20.782  0.00  0.00    +0.000 A 
ATOM     14  N   UNL     1       2.241   4.426  19.415  0.00  0.00    +0.000 N 
ENDBRANCH   3   5
BRANCH   1  15
ATOM     15  C   UNL     1       4.789   6.718  17.101  0.00  0.00    +0.000 C 
BRANCH  15  20
ATOM     16  C   UNL     1       7.293   6.136  17.362  0.00  0.00    +0.000 C 
ATOM     17  C   UNL     1       8.115   5.666  18.546  0.00  0.00    +0.000 C 
ATOM     18  C   UNL     1       7.107   5.469  19.666  0.00  0.00    +0.000 C 
ATOM     19  O   UNL     1       5.813   5.825  19.158  0.00  0.00    +0.000 OA
ATOM     20  C   UNL     1       6.027   6.697  18.025  0.00  0.00    +0.000 C 
BRANCH  16  25
ATOM     21  C   UNL     1       6.262   3.977  13.103  0.00  0.00    +0.000 C 
ATOM     22  C   UNL     1       6.445   4.121  14.561  0.00  0.00    +0.000 A 
ATOM     23  N   UNL     1       5.784   3.395  15.469  0.00  0.00    +0.000 NA
ATOM     24  N   UNL     1       6.158   3.987  16.617  0.00  0.00    +0.000 N 
ATOM     25  C   UNL     1       6.979   5.057  16.374  0.00  0.00    +0.000 A 
ATOM     26  N   UNL     1       7.222   5.117  15.082  0.00  0.00    +0.000 NA
ATOM     27  H   UNL     1       5.720   3.703  17.489  0.00  0.00    +0.000 HD
ENDBRANCH  16  25
ENDBRANCH  15  20
ENDBRANCH   1  15
TORSDOF 4
ENDMDL
MODEL 2
REMARK VINA RESULT:      -7.3      1.201      1.913
REMARK  Name = 
REMARK  6 active torsions:
REMARK  status: ('A' for Active; 'I' for Inactive)
REMARK    1  A    between atoms: C_1  and  C_2
REMARK    2  A    between atoms: C_5  and  C_6
REMARK    3  A    between atoms: C_10  and  C_11
REMARK    4  A    between atoms: C_11  and  N_12
REMARK    5  A    between atoms: N_12  and  C_13
REMARK    6  A    between atoms: C_14  and  C_16
REMARK                            x       y       z     vdW  Elec       q    Type
REMARK                         _______ _______ _______ _____ _____    ______ ____
ROOT
ATOM      1  N   UNL     1       3.365   7.071  18.198  0.00  0.00    +0.000 N 
ATOM      2  C   UNL     1       3.184   8.283  17.419  0.00  0.00    +0.000 C 
ATOM      3  C   UNL     1       2.484   6.787  19.254  0.00  0.00    +0.000 C 
ATOM      4  O   UNL     1       1.723   7.657  19.697  0.00  0.00    +0.000 OA
ENDROOT
BRANCH   3   5
ATOM      5  C   UNL     1       2.474   5.423  19.781  0.00  0.00    +0.000 A 
ATOM      6  N   UNL     1       2.364   5.136  21.074  0.00  0.00    +0.000 NA
ATOM      7  C   UNL     1       2.543   3.789  21.202  0.00  0.00    +0.000 A 
ATOM      8  C   UNL     1       2.792   3.234  19.978  0.00  0.00    +0.000 A 
ATOM      9  C   UNL     1       3.147   1.957  19.466  0.00  0.00    +0.000 A 
ATOM     10  F   UNL     1       4.502   1.814  19.447  0.00  0.00    +0.000 F 
ATOM     11  C   UNL     1       2.523   1.628  18.312  0.00  0.00    +0.000 A 
ATOM     12  C   UNL     1       2.436   2.688  17.280  0.00  0.00    +0.000 A 
ATOM     13  C   UNL     1       2.484   3.976  17.680  0.00  0.00    +0.000 A 
ATOM     14  N   UNL     1       2.596   4.248  19.045  0.00  0.00    +0.000 N 
ENDBRANCH   3   5
BRANCH   1  15
ATOM     15  C   UNL     1       4.478   6.195  17.820  0.00  0.00    +0.000 C 
BRANCH  15  20
ATOM     16  C   UNL     1       7.055   6.273  17.637  0.00  0.00    +0.000 C 
ATOM     17  C   UNL     1       8.159   5.995  18.637  0.00  0.00    +0.000 C 
ATOM     18  C   UNL     1       7.441   5.509  19.885  0.00  0.00    +0.000 C 
ATOM     19  O   UNL     1       6.032   5.534  19.617  0.00  0.00    +0.000 OA
ATOM     20  C   UNL     1       5.822   6.466  18.531  0.00  0.00    +0.000 C 
BRANCH  16  25
ATOM     21  C   UNL     1       6.279   4.077  13.343  0.00  0.00    +0.000 C 
ATOM     22  C   UNL     1       6.432   4.221  14.804  0.00  0.00    +0.000 A 
ATOM     23  N   UNL     1       5.832   3.425  15.696  0.00  0.00    +0.000 NA
ATOM     24  N   UNL     1       6.136   4.036  16.855  0.00  0.00    +0.000 N 
ATOM     25  C   UNL     1       6.854   5.181  16.633  0.00  0.00    +0.000 A 
ATOM     26  N   UNL     1       7.105   5.279  15.344  0.00  0.00    +0.000 NA
ATOM     27  H   UNL     1       5.717   3.702  17.718  0.00  0.00    +0.000 HD
ENDBRANCH  16  25
ENDBRANCH  15  20
ENDBRANCH   1  15
TORSDOF 4
ENDMDL
MODEL 3
REMARK VINA RESULT:      -7.2      1.287      1.970
REMARK  Name = 
REMARK  6 active torsions:
REMARK  status: ('A' for Active; 'I' for Inactive)
REMARK    1  A    between atoms: C_1  and  C_2
REMARK    2  A    between atoms: C_5  and  C_6
REMARK    3  A    between atoms: C_10  and  C_11
REMARK    4  A    between atoms: C_11  and  N_12
REMARK    5  A    between atoms: N_12  and  C_13
REMARK    6  A    between atoms: C_14  and  C_16
REMARK                            x       y       z     vdW  Elec       q    Type
REMARK                         _______ _______ _______ _____ _____    ______ ____
ROOT
ATOM      1  N   UNL     1       3.939   6.709  17.388  0.00  0.00    +0.000 N 
ATOM      2  C   UNL     1       4.362   7.170  16.077  0.00  0.00    +0.000 C 
ATOM      3  C   UNL     1       2.796   7.265  17.983  0.00  0.00    +0.000 C 
ATOM      4  O   UNL     1       2.292   8.305  17.541  0.00  0.00    +0.000 OA
ENDROOT
BRANCH   3   5
ATOM      5  C   UNL     1       2.206   6.552  19.116  0.00  0.00    +0.000 A 
ATOM      6  N   UNL     1       1.946   7.123  20.288  0.00  0.00    +0.000 NA
ATOM      7  C   UNL     1       1.548   6.131  21.137  0.00  0.00    +0.000 A 
ATOM      8  C   UNL     1       1.583   4.927  20.494  0.00  0.00    +0.000 A 
ATOM      9  C   UNL     1       1.394   3.559  20.832  0.00  0.00    +0.000 A 
ATOM     10  F   UNL     1       2.569   3.006  21.248  0.00  0.00    +0.000 F 
ATOM     11  C   UNL     1       0.726   2.842  19.898  0.00  0.00    +0.000 A 
ATOM     12  C   UNL     1       1.119   3.066  18.487  0.00  0.00    +0.000 A 
ATOM     13  C   UNL     1       1.683   4.246  18.158  0.00  0.00    +0.000 A 
ATOM     14  N   UNL     1       1.854   5.206  19.157  0.00  0.00    +0.000 N 
ENDBRANCH   3   5
BRANCH   1  15
ATOM     15  C   UNL     1       4.747   5.660  18.019  0.00  0.00    +0.000 C 
BRANCH  15  20
ATOM     16  C   UNL     1       7.224   6.385  17.887  0.00  0.00    +0.000 C 
ATOM     17  C   UNL     1       8.383   6.241  18.852  0.00  0.00    +0.000 C 
ATOM     18  C   UNL     1       7.831   5.419  20.005  0.00  0.00    +0.000 C 
ATOM     19  O   UNL     1       6.452   5.141  19.723  0.00  0.00    +0.000 OA
ATOM     20  C   UNL     1       6.000   6.142  18.782  0.00  0.00    +0.000 C 
BRANCH  16  25
ATOM     21  C   UNL     1       6.916   4.716  13.307  0.00  0.00    +0.000 C 
ATOM     22  C   UNL     1       7.058   4.678  14.776  0.00  0.00    +0.000 A 
ATOM     23  N   UNL     1       6.683   3.641  15.533  0.00  0.00    +0.000 NA
ATOM     24  N   UNL     1       6.854   4.131  16.773  0.00  0.00    +0.000 N 
ATOM     25  C   UNL     1       7.272   5.435  16.732  0.00  0.00    +0.000 A 
ATOM     26  N   UNL     1       7.467   5.777  15.476  0.00  0.00    +0.000 NA
ATOM     27  H   UNL     1       6.544   3.585  17.571  0.00  0.00    +0.000 HD
ENDBRANCH  16  25
ENDBRANCH  15  20
ENDBRANCH   1  15
TORSDOF 4
ENDMDL
MODEL 4
REMARK VINA RESULT:      -7.2      3.013      6.518
REMARK  Name = 
REMARK  6 active torsions:
REMARK  status: ('A' for Active; 'I' for Inactive)
REMARK    1  A    between atoms: C_1  and  C_2
REMARK    2  A    between atoms: C_5  and  C_6
REMARK    3  A    between atoms: C_10  and  C_11
REMARK    4  A    between atoms: C_11  and  N_12
REMARK    5  A    between atoms: N_12  and  C_13
REMARK    6  A    between atoms: C_14  and  C_16
REMARK                            x       y       z     vdW  Elec       q    Type
REMARK                         _______ _______ _______ _____ _____    ______ ____
ROOT
ATOM      1  N   UNL     1       4.324   3.048  17.571  0.00  0.00    +0.000 N 
ATOM      2  C   UNL     1       3.727   1.773  17.213  0.00  0.00    +0.000 C 
ATOM      3  C   UNL     1       5.082   3.750  16.620  0.00  0.00    +0.000 C 
ATOM      4  O   UNL     1       5.465   3.198  15.581  0.00  0.00    +0.000 OA
ENDROOT
BRANCH   3   5
ATOM      5  C   UNL     1       5.368   5.159  16.887  0.00  0.00    +0.000 A 
ATOM      6  N   UNL     1       4.577   6.155  16.500  0.00  0.00    +0.000 NA
ATOM      7  C   UNL     1       5.231   7.319  16.786  0.00  0.00    +0.000 A 
ATOM      8  C   UNL     1       6.452   7.044  17.335  0.00  0.00    +0.000 A 
ATOM      9  C   UNL     1       7.601   7.777  17.740  0.00  0.00    +0.000 A 
ATOM     10  F   UNL     1       8.464   7.921  16.694  0.00  0.00    +0.000 F 
ATOM     11  C   UNL     1       8.165   7.336  18.888  0.00  0.00    +0.000 A 
ATOM     12  C   UNL     1       8.303   5.867  19.036  0.00  0.00    +0.000 A 
ATOM     13  C   UNL     1       7.457   5.072  18.349  0.00  0.00    +0.000 A 
ATOM     14  N   UNL     1       6.483   5.669  17.546  0.00  0.00    +0.000 N 
ENDBRANCH   3   5
BRANCH   1  15
ATOM     15  C   UNL     1       4.085   3.537  18.932  0.00  0.00    +0.000 C 
BRANCH  15  20
ATOM     16  C   UNL     1       1.625   3.824  19.669  0.00  0.00    +0.000 C 
ATOM     17  C   UNL     1       0.857   3.332  20.880  0.00  0.00    +0.000 C 
ATOM     18  C   UNL     1       1.899   2.648  21.751  0.00  0.00    +0.000 C 
ATOM     19  O   UNL     1       3.159   2.727  21.069  0.00  0.00    +0.000 OA
ATOM     20  C   UNL     1       2.871   2.926  19.666  0.00  0.00    +0.000 C 
BRANCH  16  25
ATOM     21  C   UNL     1       1.495   8.531  20.968  0.00  0.00    +0.000 C 
ATOM     22  C   UNL     1       1.879   7.327  20.205  0.00  0.00    +0.000 A 
ATOM     23  N   UNL     1       2.249   7.347  18.920  0.00  0.00    +0.000 NA
ATOM     24  N   UNL     1       2.337   6.035  18.639  0.00  0.00    +0.000 N 
ATOM     25  C   UNL     1       1.980   5.277  19.723  0.00  0.00    +0.000 A 
ATOM     26  N   UNL     1       1.749   6.077  20.742  0.00  0.00    +0.000 NA
ATOM     27  H   UNL     1       2.505   5.741  17.682  0.00  0.00    +0.000 HD
ENDBRANCH  16  25
ENDBRANCH  15  20
ENDBRANCH   1  15
TORSDOF 4
ENDMDL
MODEL 5
REMARK VINA RESULT:      -6.9      2.517      4.572
REMARK  Name = 
REMARK  6 active torsions:
REMARK  status: ('A' for Active; 'I' for Inactive)
REMARK    1  A    between atoms: C_1  and  C_2
REMARK    2  A    between atoms: C_5  and  C_6
REMARK    3  A    between atoms: C_10  and  C_11
REMARK    4  A    between atoms: C_11  and  N_12
REMARK    5  A    between atoms: N_12  and  C_13
REMARK    6  A    between atoms: C_14  and  C_16
REMARK                            x       y       z     vdW  Elec       q    Type
REMARK                         _______ _______ _______ _____ _____    ______ ____
ROOT
ATOM      1  N   UNL     1       3.360   3.272  18.215  0.00  0.00    +0.000 N 
ATOM      2  C   UNL     1       3.462   1.872  17.843  0.00  0.00    +0.000 C 
ATOM      3  C   UNL     1       2.196   3.739  18.845  0.00  0.00    +0.000 C 
ATOM      4  O   UNL     1       1.165   3.056  18.860  0.00  0.00    +0.000 OA
ENDROOT
BRANCH   3   5
ATOM      5  C   UNL     1       2.260   5.040  19.511  0.00  0.00    +0.000 A 
ATOM      6  N   UNL     1       2.347   5.187  20.828  0.00  0.00    +0.000 NA
ATOM      7  C   UNL     1       2.233   6.522  21.090  0.00  0.00    +0.000 A 
ATOM      8  C   UNL     1       2.049   7.211  19.925  0.00  0.00    +0.000 A 
ATOM      9  C   UNL     1       1.774   8.551  19.539  0.00  0.00    +0.000 A 
ATOM     10  F   UNL     1       0.429   8.768  19.502  0.00  0.00    +0.000 F 
ATOM     11  C   UNL     1       2.448   8.962  18.440  0.00  0.00    +0.000 A 
ATOM     12  C   UNL     1       2.510   8.009  17.306  0.00  0.00    +0.000 A 
ATOM     13  C   UNL     1       2.384   6.692  17.570  0.00  0.00    +0.000 A 
ATOM     14  N   UNL     1       2.220   6.289  18.897  0.00  0.00    +0.000 N 
ENDBRANCH   3   5
BRANCH   1  15
ATOM     15  C   UNL     1       4.511   4.128  17.910  0.00  0.00    +0.000 C 
BRANCH  15  20
ATOM     16  C   UNL     1       6.698   4.206  16.536  0.00  0.00    +0.000 C 
ATOM     17  C   UNL     1       6.974   4.461  15.068  0.00  0.00    +0.000 C 
ATOM     18  C   UNL     1       5.619   4.804  14.471  0.00  0.00    +0.000 C 
ATOM     19  O   UNL     1       4.645   4.724  15.521  0.00  0.00    +0.000 OA
ATOM     20  C   UNL     1       5.200   3.874  16.551  0.00  0.00    +0.000 C 
BRANCH  16  25
ATOM     21  C   UNL     1       8.115   8.673  17.916  0.00  0.00    +0.000 C 
ATOM     22  C   UNL     1       7.719   7.257  18.045  0.00  0.00    +0.000 A 
ATOM     23  N   UNL     1       8.125   6.459  19.039  0.00  0.00    +0.000 NA
ATOM     24  N   UNL     1       7.649   5.265  18.642  0.00  0.00    +0.000 N 
ATOM     25  C   UNL     1       7.025   5.364  17.427  0.00  0.00    +0.000 A 
ATOM     26  N   UNL     1       7.004   6.630  17.065  0.00  0.00    +0.000 NA
ATOM     27  H   UNL     1       7.900   4.431  19.165  0.00  0.00    +0.000 HD
ENDBRANCH  16  25
ENDBRANCH  15  20
ENDBRANCH   1  15
TORSDOF 4
ENDMDL
MODEL 6
REMARK VINA RESULT:      -6.8      9.150     11.638
REMARK  Name = 
REMARK  6 active torsions:
REMARK  status: ('A' for Active; 'I' for Inactive)
REMARK    1  A    between atoms: C_1  and  C_2
REMARK    2  A    between atoms: C_5  and  C_6
REMARK    3  A    between atoms: C_10  and  C_11
REMARK    4  A    between atoms: C_11  and  N_12
REMARK    5  A    between atoms: N_12  and  C_13
REMARK    6  A    between atoms: C_14  and  C_16
REMARK                            x       y       z     vdW  Elec       q    Type
REMARK                         _______ _______ _______ _____ _____    ______ ____
ROOT
ATOM      1  N   UNL     1      -5.667  12.359  18.804  0.00  0.00    +0.000 N 
ATOM      2  C   UNL     1      -6.746  11.875  17.961  0.00  0.00    +0.000 C 
ATOM      3  C   UNL     1      -5.910  13.402  19.711  0.00  0.00    +0.000 C 
ATOM      4  O   UNL     1      -6.938  14.086  19.631  0.00  0.00    +0.000 OA
ENDROOT
BRANCH   3   5
ATOM      5  C   UNL     1      -4.924  13.625  20.768  0.00  0.00    +0.000 A 
ATOM      6  N   UNL     1      -3.795  14.303  20.588  0.00  0.00    +0.000 NA
ATOM      7  C   UNL     1      -3.065  14.177  21.735  0.00  0.00    +0.000 A 
ATOM      8  C   UNL     1      -3.737  13.393  22.630  0.00  0.00    +0.000 A 
ATOM      9  C   UNL     1      -3.487  12.822  23.907  0.00  0.00    +0.000 A 
ATOM     10  F   UNL     1      -2.895  11.602  23.774  0.00  0.00    +0.000 F 
ATOM     11  C   UNL     1      -4.549  12.851  24.746  0.00  0.00    +0.000 A 
ATOM     12  C   UNL     1      -5.862  12.480  24.166  0.00  0.00    +0.000 A 
ATOM     13  C   UNL     1      -6.043  12.641  22.839  0.00  0.00    +0.000 A 
ATOM     14  N   UNL     1      -4.994  13.163  22.079  0.00  0.00    +0.000 N 
ENDBRANCH   3   5
BRANCH   1  15
ATOM     15  C   UNL     1      -4.362  11.705  18.656  0.00  0.00    +0.000 C 
BRANCH  15  20
ATOM     16  C   UNL     1      -2.831  10.105  17.325  0.00  0.00    +0.000 C 
ATOM     17  C   UNL     1      -2.708   9.804  15.845  0.00  0.00    +0.000 C 
ATOM     18  C   UNL     1      -3.665  10.774  15.170  0.00  0.00    +0.000 C 
ATOM     19  O   UNL     1      -4.300  11.548  16.197  0.00  0.00    +0.000 OA
ATOM     20  C   UNL     1      -4.202  10.789  17.423  0.00  0.00    +0.000 C 
BRANCH  16  25
ATOM     21  C   UNL     1       0.216  12.182  20.529  0.00  0.00    +0.000 C 
ATOM     22  C   UNL     1      -0.470  11.940  19.244  0.00  0.00    +0.000 A 
ATOM     23  N   UNL     1      -0.676  12.886  18.321  0.00  0.00    +0.000 NA
ATOM     24  N   UNL     1      -1.457  12.240  17.437  0.00  0.00    +0.000 N 
ATOM     25  C   UNL     1      -1.733  10.968  17.864  0.00  0.00    +0.000 A 
ATOM     26  N   UNL     1      -1.065  10.740  18.975  0.00  0.00    +0.000 NA
ATOM     27  H   UNL     1      -1.862  12.756  16.662  0.00  0.00    +0.000 HD
ENDBRANCH  16  25
ENDBRANCH  15  20
ENDBRANCH   1  15
TORSDOF 4
ENDMDL
MODEL 7
REMARK VINA RESULT:      -6.8      2.068      3.390
REMARK  Name = 
REMARK  6 active torsions:
REMARK  status: ('A' for Active; 'I' for Inactive)
REMARK    1  A    between atoms: C_1  and  C_2
REMARK    2  A    between atoms: C_5  and  C_6
REMARK    3  A    between atoms: C_10  and  C_11
REMARK    4  A    between atoms: C_11  and  N_12
REMARK    5  A    between atoms: N_12  and  C_13
REMARK    6  A    between atoms: C_14  and  C_16
REMARK                            x       y       z     vdW  Elec       q    Type
REMARK                         _______ _______ _______ _____ _____    ______ ____
ROOT
ATOM      1  N   UNL     1       3.923   7.082  17.976  0.00  0.00    +0.000 N 
ATOM      2  C   UNL     1       4.252   7.886  16.812  0.00  0.00    +0.000 C 
ATOM      3  C   UNL     1       2.579   6.910  18.342  0.00  0.00    +0.000 C 
ATOM      4  O   UNL     1       1.693   7.625  17.859  0.00  0.00    +0.000 OA
ENDROOT
BRANCH   3   5
ATOM      5  C   UNL     1       2.265   5.836  19.284  0.00  0.00    +0.000 A 
ATOM      6  N   UNL     1       1.939   6.046  20.555  0.00  0.00    +0.000 NA
ATOM      7  C   UNL     1       1.865   4.822  21.156  0.00  0.00    +0.000 A 
ATOM      8  C   UNL     1       2.171   3.842  20.256  0.00  0.00    +0.000 A 
ATOM      9  C   UNL     1       2.363   2.434  20.274  0.00  0.00    +0.000 A 
ATOM     10  F   UNL     1       3.665   2.137  20.551  0.00  0.00    +0.000 F 
ATOM     11  C   UNL     1       1.847   1.788  19.202  0.00  0.00    +0.000 A 
ATOM     12  C   UNL     1       2.080   2.412  17.878  0.00  0.00    +0.000 A 
ATOM     13  C   UNL     1       2.298   3.742  17.826  0.00  0.00    +0.000 A 
ATOM     14  N   UNL     1       2.276   4.469  19.018  0.00  0.00    +0.000 N 
ENDBRANCH   3   5
BRANCH   1  15
ATOM     15  C   UNL     1       5.042   6.480  18.708  0.00  0.00    +0.000 C 
BRANCH  15  20
ATOM     16  C   UNL     1       7.192   5.206  18.050  0.00  0.00    +0.000 C 
ATOM     17  C   UNL     1       7.508   4.253  16.915  0.00  0.00    +0.000 C 
ATOM     18  C   UNL     1       6.250   4.233  16.061  0.00  0.00    +0.000 C 
ATOM     19  O   UNL     1       5.286   5.094  16.683  0.00  0.00    +0.000 OA
ATOM     20  C   UNL     1       5.657   5.212  18.076  0.00  0.00    +0.000 C 
BRANCH  16  25
ATOM     21  C   UNL     1       8.851   9.668  19.146  0.00  0.00    +0.000 C 
ATOM     22  C   UNL     1       8.391   8.540  18.311  0.00  0.00    +0.000 A 
ATOM     23  N   UNL     1       7.802   8.689  17.119  0.00  0.00    +0.000 NA
ATOM     24  N   UNL     1       7.431   7.428  16.838  0.00  0.00    +0.000 N 
ATOM     25  C   UNL     1       7.756   6.580  17.865  0.00  0.00    +0.000 A 
ATOM     26  N   UNL     1       8.421   7.257  18.777  0.00  0.00    +0.000 NA
ATOM     27  H   UNL     1       6.857   7.248  16.020  0.00  0.00    +0.000 HD
ENDBRANCH  16  25
ENDBRANCH  15  20
ENDBRANCH   1  15
TORSDOF 4
ENDMDL
MODEL 8
REMARK VINA RESULT:      -6.7      3.285      6.755
REMARK  Name = 
REMARK  6 active torsions:
REMARK  status: ('A' for Active; 'I' for Inactive)
REMARK    1  A    between atoms: C_1  and  C_2
REMARK    2  A    between atoms: C_5  and  C_6
REMARK    3  A    between atoms: C_10  and  C_11
REMARK    4  A    between atoms: C_11  and  N_12
REMARK    5  A    between atoms: N_12  and  C_13
REMARK    6  A    between atoms: C_14  and  C_16
REMARK                            x       y       z     vdW  Elec       q    Type
REMARK                         _______ _______ _______ _____ _____    ______ ____
ROOT
ATOM      1  N   UNL     1       2.120   5.821  20.057  0.00  0.00    +0.000 N 
ATOM      2  C   UNL     1       1.005   5.100  20.647  0.00  0.00    +0.000 C 
ATOM      3  C   UNL     1       3.052   5.131  19.267  0.00  0.00    +0.000 C 
ATOM      4  O   UNL     1       3.095   3.894  19.269  0.00  0.00    +0.000 OA
ENDROOT
BRANCH   3   5
ATOM      5  C   UNL     1       3.942   5.924  18.418  0.00  0.00    +0.000 A 
ATOM      6  N   UNL     1       3.509   6.755  17.476  0.00  0.00    +0.000 NA
ATOM      7  C   UNL     1       4.608   7.198  16.798  0.00  0.00    +0.000 A 
ATOM      8  C   UNL     1       5.734   6.617  17.307  0.00  0.00    +0.000 A 
ATOM      9  C   UNL     1       7.120   6.581  16.995  0.00  0.00    +0.000 A 
ATOM     10  F   UNL     1       7.384   5.568  16.122  0.00  0.00    +0.000 F 
ATOM     11  C   UNL     1       7.935   6.629  18.075  0.00  0.00    +0.000 A 
ATOM     12  C   UNL     1       7.555   5.781  19.229  0.00  0.00    +0.000 A 
ATOM     13  C   UNL     1       6.257   5.443  19.375  0.00  0.00    +0.000 A 
ATOM     14  N   UNL     1       5.333   5.921  18.444  0.00  0.00    +0.000 N 
ENDBRANCH   3   5
BRANCH   1  15
ATOM     15  C   UNL     1       2.198   7.261  20.324  0.00  0.00    +0.000 C 
BRANCH  15  20
ATOM     16  C   UNL     1       0.253   8.961  20.300  0.00  0.00    +0.000 C 
ATOM     17  C   UNL     1      -0.409   9.773  21.396  0.00  0.00    +0.000 C 
ATOM     18  C   UNL     1       0.406   9.478  22.645  0.00  0.00    +0.000 C 
ATOM     19  O   UNL     1       1.437   8.548  22.285  0.00  0.00    +0.000 OA
ATOM     20  C   UNL     1       1.000   7.873  21.083  0.00  0.00    +0.000 C 
BRANCH  16  25
ATOM     21  C   UNL     1       2.286  12.811  18.085  0.00  0.00    +0.000 C 
ATOM     22  C   UNL     1       2.003  11.395  18.393  0.00  0.00    +0.000 A 
ATOM     23  N   UNL     1       2.112  10.404  17.502  0.00  0.00    +0.000 NA
ATOM     24  N   UNL     1       1.606   9.363  18.187  0.00  0.00    +0.000 N 
ATOM     25  C   UNL     1       1.172   9.755  19.425  0.00  0.00    +0.000 A 
ATOM     26  N   UNL     1       1.474  11.025  19.597  0.00  0.00    +0.000 NA
ATOM     27  H   UNL     1       1.465   8.476  17.712  0.00  0.00    +0.000 HD
ENDBRANCH  16  25
ENDBRANCH  15  20
ENDBRANCH   1  15
TORSDOF 4
ENDMDL
MODEL 9
REMARK VINA RESULT:      -6.7      9.780     12.239
REMARK  Name = 
REMARK  6 active torsions:
REMARK  status: ('A' for Active; 'I' for Inactive)
REMARK    1  A    between atoms: C_1  and  C_2
REMARK    2  A    between atoms: C_5  and  C_6
REMARK    3  A    between atoms: C_10  and  C_11
REMARK    4  A    between atoms: C_11  and  N_12
REMARK    5  A    between atoms: N_12  and  C_13
REMARK    6  A    between atoms: C_14  and  C_16
REMARK                            x       y       z     vdW  Elec       q    Type
REMARK                         _______ _______ _______ _____ _____    ______ ____
ROOT
ATOM      1  N   UNL     1      -5.729  11.863  19.642  0.00  0.00    +0.000 N 
ATOM      2  C   UNL     1      -6.750  11.040  19.017  0.00  0.00    +0.000 C 
ATOM      3  C   UNL     1      -5.985  12.458  20.887  0.00  0.00    +0.000 C 
ATOM      4  O   UNL     1      -7.134  12.511  21.342  0.00  0.00    +0.000 OA
ENDROOT
BRANCH   3   5
ATOM      5  C   UNL     1      -4.842  12.977  21.638  0.00  0.00    +0.000 A 
ATOM      6  N   UNL     1      -4.131  12.247  22.492  0.00  0.00    +0.000 NA
ATOM      7  C   UNL     1      -3.255  13.093  23.108  0.00  0.00    +0.000 A 
ATOM      8  C   UNL     1      -3.437  14.366  22.651  0.00  0.00    +0.000 A 
ATOM      9  C   UNL     1      -2.937  15.663  22.951  0.00  0.00    +0.000 A 
ATOM     10  F   UNL     1      -3.692  16.249  23.923  0.00  0.00    +0.000 F 
ATOM     11  C   UNL     1      -2.708  16.436  21.864  0.00  0.00    +0.000 A 
ATOM     12  C   UNL     1      -3.749  16.420  20.809  0.00  0.00    +0.000 A 
ATOM     13  C   UNL     1      -4.547  15.337  20.713  0.00  0.00    +0.000 A 
ATOM     14  N   UNL     1      -4.344  14.276  21.598  0.00  0.00    +0.000 N 
ENDBRANCH   3   5
BRANCH   1  15
ATOM     15  C   UNL     1      -4.463  12.016  18.919  0.00  0.00    +0.000 C 
BRANCH  15  20
ATOM     16  C   UNL     1      -2.769  10.400  17.827  0.00  0.00    +0.000 C 
ATOM     17  C   UNL     1      -2.571   9.940  16.396  0.00  0.00    +0.000 C 
ATOM     18  C   UNL     1      -3.573  10.746  15.586  0.00  0.00    +0.000 C 
ATOM     19  O   UNL     1      -4.301  11.582  16.497  0.00  0.00    +0.000 OA
ATOM     20  C   UNL     1      -4.190  10.979  17.807  0.00  0.00    +0.000 C 
BRANCH  16  25
ATOM     21  C   UNL     1      -0.348  13.440  20.785  0.00  0.00    +0.000 C 
ATOM     22  C   UNL     1      -0.760  12.785  19.528  0.00  0.00    +0.000 A 
ATOM     23  N   UNL     1      -0.707  13.377  18.330  0.00  0.00    +0.000 NA
ATOM     24  N   UNL     1      -1.321  12.470  17.550  0.00  0.00    +0.000 N 
ATOM     25  C   UNL     1      -1.759  11.403  18.289  0.00  0.00    +0.000 A 
ATOM     26  N   UNL     1      -1.356  11.556  19.533  0.00  0.00    +0.000 NA
ATOM     27  H   UNL     1      -1.521  12.701  16.581  0.00  0.00    +0.000 HD
ENDBRANCH  16  25
ENDBRANCH  15  20
ENDBRANCH   1  15
TORSDOF 4
ENDMDL
