MODEL 1
REMARK VINA RESULT:      -8.4      0.000      0.000
REMARK  Name = 
REMARK  6 active torsions:
REMARK  status: ('A' for Active; 'I' for Inactive)
REMARK    1  A    between atoms: C_2  and  C_19
REMARK    2  A    between atoms: N_3  and  C_4
REMARK    3  A    between atoms: C_4  and  C_5
REMARK    4  A    between atoms: C_5  and  C_6
REMARK    5  A    between atoms: C_12  and  C_13
REMARK    6  A    between atoms: N_15  and  C_16
REMARK                            x       y       z     vdW  Elec       q    Type
REMARK                         _______ _______ _______ _____ _____    ______ ____
ROOT
ATOM      1  C   UNL     1       8.390   8.284  17.725  0.00  0.00    +0.000 C 
ENDROOT
BRANCH   1   4
ATOM      2  O   UNL     1       7.390   6.166  16.162  0.00  0.00    +0.000 OA
ATOM      3  C   UNL     1       6.672   6.624  17.052  0.00  0.00    +0.000 C 
ATOM      4  N   UNL     1       7.057   7.683  17.854  0.00  0.00    +0.000 N 
ATOM      5  H   UNL     1       6.496   7.917  18.663  0.00  0.00    +0.000 HD
BRANCH   3   6
ATOM      6  C   UNL     1       5.344   5.991  17.309  0.00  0.00    +0.000 A 
ATOM      7  C   UNL     1       4.249   6.826  17.553  0.00  0.00    +0.000 A 
ATOM      8  C   UNL     1       2.989   6.289  17.834  0.00  0.00    +0.000 A 
ATOM      9  C   UNL     1       2.800   4.899  17.892  0.00  0.00    +0.000 A 
ATOM     10  C   UNL     1       1.537   4.342  18.173  0.00  0.00    +0.000 A 
ATOM     11  C   UNL     1       1.365   2.960  18.243  0.00  0.00    +0.000 A 
ATOM     12  C   UNL     1       2.452   2.116  18.041  0.00  0.00    +0.000 A 
ATOM     13  C   UNL     1       3.712   2.655  17.760  0.00  0.00    +0.000 A 
ATOM     14  C   UNL     1       3.907   4.045  17.669  0.00  0.00    +0.000 A 
ATOM     15  C   UNL     1       5.171   4.602  17.378  0.00  0.00    +0.000 A 
ENDBRANCH   3   6
ENDBRANCH   1   4
BRANCH   1  16
ATOM     16  C   UNL     1       8.346   9.806  17.820  0.00  0.00    +0.000 C 
BRANCH  16  17
ATOM     17  C   UNL     1       9.159  10.341  19.001  0.00  0.00    +0.000 C 
ATOM     18  O   UNL     1       9.184   9.737  20.078  0.00  0.00    +0.000 OA
ATOM     19  N   UNL     1       9.874  11.511  18.845  0.00  0.00    +0.000 N 
ATOM     20  C   UNL     1       9.935  12.361  17.673  0.00  0.00    +0.000 C 
ATOM     21  C   UNL     1      11.374  12.828  17.647  0.00  0.00    +0.000 C 
ATOM     22  C   UNL     1      11.713  13.016  19.118  0.00  0.00    +0.000 C 
ATOM     23  C   UNL     1      10.788  12.036  19.883  0.00  0.00    +0.000 C 
BRANCH  23  24
ATOM     24  C   UNL     1      10.049  12.788  21.021  0.00  0.00    +0.000 C 
ATOM     25  O   UNL     1      10.023  14.018  21.098  0.00  0.00    +0.000 OA
ATOM     26  N   UNL     1       9.457  11.993  21.984  0.00  0.00    +0.000 N 
ATOM     27  H   UNL     1       9.385  10.989  21.806  0.00  0.00    +0.000 HD
BRANCH  26  28
ATOM     28  C   UNL     1       8.774  12.587  23.093  0.00  0.00    +0.000 C 
ATOM     29  C   UNL     1       8.112  11.710  24.126  0.00  0.00    +0.000 C 
ATOM     30  C   UNL     1       7.279  12.584  23.237  0.00  0.00    +0.000 C 
ENDBRANCH  26  28
ENDBRANCH  23  24
ENDBRANCH  16  17
ENDBRANCH   1  16
TORSDOF 6
ENDMDL
MODEL 2
REMARK VINA RESULT:      -8.3      2.656     10.087
REMARK  Name = 
REMARK  6 active torsions:
REMARK  status: ('A' for Active; 'I' for Inactive)
REMARK    1  A    between atoms: C_2  and  C_19
REMARK    2  A    between atoms: N_3  and  C_4
REMARK    3  A    between atoms: C_4  and  C_5
REMARK    4  A    between atoms: C_5  and  C_6
REMARK    5  A    between atoms: C_12  and  C_13
REMARK    6  A    between atoms: N_15  and  C_16
REMARK                            x       y       z     vdW  Elec       q    Type
REMARK                         _______ _______ _______ _____ _____    ______ ____
ROOT
ATOM      1  C   UNL     1       8.076   8.284  18.229  0.00  0.00    +0.000 C 
ENDROOT
BRANCH   1   4
ATOM      2  O   UNL     1       9.403  10.120  19.901  0.00  0.00    +0.000 OA
ATOM      3  C   UNL     1       9.183  10.447  18.734  0.00  0.00    +0.000 C 
ATOM      4  N   UNL     1       8.512   9.631  17.842  0.00  0.00    +0.000 N 
ATOM      5  H   UNL     1       8.493   9.883  16.862  0.00  0.00    +0.000 HD
BRANCH   3   6
ATOM      6  C   UNL     1       9.691  11.762  18.242  0.00  0.00    +0.000 A 
ATOM      7  C   UNL     1      10.951  11.801  17.638  0.00  0.00    +0.000 A 
ATOM      8  C   UNL     1      11.493  13.010  17.190  0.00  0.00    +0.000 A 
ATOM      9  C   UNL     1      10.787  14.213  17.350  0.00  0.00    +0.000 A 
ATOM     10  C   UNL     1      11.318  15.439  16.904  0.00  0.00    +0.000 A 
ATOM     11  C   UNL     1      10.614  16.630  17.083  0.00  0.00    +0.000 A 
ATOM     12  C   UNL     1       9.376  16.614  17.717  0.00  0.00    +0.000 A 
ATOM     13  C   UNL     1       8.837  15.404  18.164  0.00  0.00    +0.000 A 
ATOM     14  C   UNL     1       9.520  14.189  17.982  0.00  0.00    +0.000 A 
ATOM     15  C   UNL     1       8.983  12.959  18.421  0.00  0.00    +0.000 A 
ENDBRANCH   3   6
ENDBRANCH   1   4
BRANCH   1  16
ATOM     16  C   UNL     1       7.620   7.460  17.028  0.00  0.00    +0.000 C 
BRANCH  16  17
ATOM     17  C   UNL     1       6.265   6.788  17.261  0.00  0.00    +0.000 C 
ATOM     18  O   UNL     1       5.328   7.412  17.769  0.00  0.00    +0.000 OA
ATOM     19  N   UNL     1       6.098   5.471  16.885  0.00  0.00    +0.000 N 
ATOM     20  C   UNL     1       7.089   4.583  16.308  0.00  0.00    +0.000 C 
ATOM     21  C   UNL     1       6.296   3.770  15.308  0.00  0.00    +0.000 C 
ATOM     22  C   UNL     1       4.956   3.565  15.999  0.00  0.00    +0.000 C 
ATOM     23  C   UNL     1       4.793   4.778  16.951  0.00  0.00    +0.000 C 
BRANCH  23  24
ATOM     24  C   UNL     1       4.437   4.284  18.377  0.00  0.00    +0.000 C 
ATOM     25  O   UNL     1       5.273   3.791  19.139  0.00  0.00    +0.000 OA
ATOM     26  N   UNL     1       3.106   4.381  18.734  0.00  0.00    +0.000 N 
ATOM     27  H   UNL     1       2.480   4.919  18.130  0.00  0.00    +0.000 HD
BRANCH  26  28
ATOM     28  C   UNL     1       2.665   3.926  20.018  0.00  0.00    +0.000 C 
ATOM     29  C   UNL     1       1.204   3.637  20.254  0.00  0.00    +0.000 C 
ATOM     30  C   UNL     1       1.869   4.778  20.964  0.00  0.00    +0.000 C 
ENDBRANCH  26  28
ENDBRANCH  23  24
ENDBRANCH  16  17
ENDBRANCH   1  16
TORSDOF 6
ENDMDL
MODEL 3
REMARK VINA RESULT:      -8.2      5.541      8.659
REMARK  Name = 
REMARK  6 active torsions:
REMARK  status: ('A' for Active; 'I' for Inactive)
REMARK    1  A    between atoms: C_2  and  C_19
REMARK    2  A    between atoms: N_3  and  C_4
REMARK    3  A    between atoms: C_4  and  C_5
REMARK    4  A    between atoms: C_5  and  C_6
REMARK    5  A    between atoms: C_12  and  C_13
REMARK    6  A    between atoms: N_15  and  C_16
REMARK                            x       y       z     vdW  Elec       q    Type
REMARK                         _______ _______ _______ _____ _____    ______ ____
ROOT
ATOM      1  C   UNL     1       3.485   3.544  19.613  0.00  0.00    +0.000 C 
ENDROOT
BRANCH   1   4
ATOM      2  O   UNL     1       1.901   5.288  21.154  0.00  0.00    +0.000 OA
ATOM      3  C   UNL     1       2.313   5.685  20.063  0.00  0.00    +0.000 C 
ATOM      4  N   UNL     1       3.072   4.896  19.218  0.00  0.00    +0.000 N 
ATOM      5  H   UNL     1       3.510   5.320  18.410  0.00  0.00    +0.000 HD
BRANCH   3   6
ATOM      6  C   UNL     1       2.020   7.088  19.644  0.00  0.00    +0.000 A 
ATOM      7  C   UNL     1       2.417   7.494  18.366  0.00  0.00    +0.000 A 
ATOM      8  C   UNL     1       2.200   8.805  17.932  0.00  0.00    +0.000 A 
ATOM      9  C   UNL     1       1.591   9.746  18.778  0.00  0.00    +0.000 A 
ATOM     10  C   UNL     1       1.364  11.071  18.356  0.00  0.00    +0.000 A 
ATOM     11  C   UNL     1       0.772  12.001  19.210  0.00  0.00    +0.000 A 
ATOM     12  C   UNL     1       0.406  11.624  20.498  0.00  0.00    +0.000 A 
ATOM     13  C   UNL     1       0.624  10.312  20.930  0.00  0.00    +0.000 A 
ATOM     14  C   UNL     1       1.206   9.352  20.082  0.00  0.00    +0.000 A 
ATOM     15  C   UNL     1       1.424   8.022  20.502  0.00  0.00    +0.000 A 
ENDBRANCH   3   6
ENDBRANCH   1   4
BRANCH   1  16
ATOM     16  C   UNL     1       4.576   2.987  18.704  0.00  0.00    +0.000 C 
BRANCH  16  17
ATOM     17  C   UNL     1       4.820   3.867  17.476  0.00  0.00    +0.000 C 
ATOM     18  O   UNL     1       4.025   3.871  16.531  0.00  0.00    +0.000 OA
ATOM     19  N   UNL     1       5.942   4.669  17.441  0.00  0.00    +0.000 N 
ATOM     20  C   UNL     1       6.990   4.769  18.438  0.00  0.00    +0.000 C 
ATOM     21  C   UNL     1       7.346   6.240  18.432  0.00  0.00    +0.000 C 
ATOM     22  C   UNL     1       7.230   6.629  16.966  0.00  0.00    +0.000 C 
ATOM     23  C   UNL     1       6.195   5.647  16.360  0.00  0.00    +0.000 C 
BRANCH  23  24
ATOM     24  C   UNL     1       6.774   4.998  15.076  0.00  0.00    +0.000 C 
ATOM     25  O   UNL     1       7.904   5.252  14.652  0.00  0.00    +0.000 OA
ATOM     26  N   UNL     1       5.924   4.147  14.395  0.00  0.00    +0.000 N 
ATOM     27  H   UNL     1       5.056   3.860  14.852  0.00  0.00    +0.000 HD
BRANCH  26  28
ATOM     28  C   UNL     1       6.350   3.517  13.181  0.00  0.00    +0.000 C 
ATOM     29  C   UNL     1       6.439   4.321  11.908  0.00  0.00    +0.000 C 
ATOM     30  C   UNL     1       5.423   3.226  12.036  0.00  0.00    +0.000 C 
ENDBRANCH  26  28
ENDBRANCH  23  24
ENDBRANCH  16  17
ENDBRANCH   1  16
TORSDOF 6
ENDMDL
MODEL 4
REMARK VINA RESULT:      -8.1      5.592      8.591
REMARK  Name = 
REMARK  6 active torsions:
REMARK  status: ('A' for Active; 'I' for Inactive)
REMARK    1  A    between atoms: C_2  and  C_19
REMARK    2  A    between atoms: N_3  and  C_4
REMARK    3  A    between atoms: C_4  and  C_5
REMARK    4  A    between atoms: C_5  and  C_6
REMARK    5  A    between atoms: C_12  and  C_13
REMARK    6  A    between atoms: N_15  and  C_16
REMARK                            x       y       z     vdW  Elec       q    Type
REMARK                         _______ _______ _______ _____ _____    ______ ____
ROOT
ATOM      1  C   UNL     1       3.192   2.988  19.234  0.00  0.00    +0.000 C 
ENDROOT
BRANCH   1   4
ATOM      2  O   UNL     1       2.359   4.516  21.448  0.00  0.00    +0.000 OA
ATOM      3  C   UNL     1       2.345   5.045  20.336  0.00  0.00    +0.000 C 
ATOM      4  N   UNL     1       2.705   4.372  19.183  0.00  0.00    +0.000 N 
ATOM      5  H   UNL     1       2.821   4.894  18.323  0.00  0.00    +0.000 HD
BRANCH   3   6
ATOM      6  C   UNL     1       1.961   6.484  20.222  0.00  0.00    +0.000 A 
ATOM      7  C   UNL     1       1.178   7.042  21.236  0.00  0.00    +0.000 A 
ATOM      8  C   UNL     1       0.759   8.375  21.165  0.00  0.00    +0.000 A 
ATOM      9  C   UNL     1       1.105   9.175  20.065  0.00  0.00    +0.000 A 
ATOM     10  C   UNL     1       0.692  10.519  19.978  0.00  0.00    +0.000 A 
ATOM     11  C   UNL     1       1.029  11.300  18.872  0.00  0.00    +0.000 A 
ATOM     12  C   UNL     1       1.774  10.748  17.836  0.00  0.00    +0.000 A 
ATOM     13  C   UNL     1       2.192   9.416  17.909  0.00  0.00    +0.000 A 
ATOM     14  C   UNL     1       1.878   8.613  19.021  0.00  0.00    +0.000 A 
ATOM     15  C   UNL     1       2.300   7.268  19.111  0.00  0.00    +0.000 A 
ENDBRANCH   3   6
ENDBRANCH   1   4
BRANCH   1  16
ATOM     16  C   UNL     1       4.537   2.825  18.534  0.00  0.00    +0.000 C 
BRANCH  16  17
ATOM     17  C   UNL     1       4.729   3.829  17.395  0.00  0.00    +0.000 C 
ATOM     18  O   UNL     1       3.884   3.943  16.502  0.00  0.00    +0.000 OA
ATOM     19  N   UNL     1       5.861   4.617  17.382  0.00  0.00    +0.000 N 
ATOM     20  C   UNL     1       6.964   4.597  18.323  0.00  0.00    +0.000 C 
ATOM     21  C   UNL     1       7.345   6.056  18.454  0.00  0.00    +0.000 C 
ATOM     22  C   UNL     1       7.156   6.600  17.047  0.00  0.00    +0.000 C 
ATOM     23  C   UNL     1       6.072   5.702  16.398  0.00  0.00    +0.000 C 
BRANCH  23  24
ATOM     24  C   UNL     1       6.568   5.187  15.022  0.00  0.00    +0.000 C 
ATOM     25  O   UNL     1       7.740   5.292  14.655  0.00  0.00    +0.000 OA
ATOM     26  N   UNL     1       5.601   4.645  14.197  0.00  0.00    +0.000 N 
ATOM     27  H   UNL     1       4.678   4.453  14.593  0.00  0.00    +0.000 HD
BRANCH  26  28
ATOM     28  C   UNL     1       5.947   4.166  12.893  0.00  0.00    +0.000 C 
ATOM     29  C   UNL     1       4.921   3.437  12.062  0.00  0.00    +0.000 C 
ATOM     30  C   UNL     1       6.130   2.711  12.572  0.00  0.00    +0.000 C 
ENDBRANCH  26  28
ENDBRANCH  23  24
ENDBRANCH  16  17
ENDBRANCH   1  16
TORSDOF 6
ENDMDL
MODEL 5
REMARK VINA RESULT:      -8.1      6.134      9.105
REMARK  Name = 
REMARK  6 active torsions:
REMARK  status: ('A' for Active; 'I' for Inactive)
REMARK    1  A    between atoms: C_2  and  C_19
REMARK    2  A    between atoms: N_3  and  C_4
REMARK    3  A    between atoms: C_4  and  C_5
REMARK    4  A    between atoms: C_5  and  C_6
REMARK    5  A    between atoms: C_12  and  C_13
REMARK    6  A    between atoms: N_15  and  C_16
REMARK                            x       y       z     vdW  Elec       q    Type
REMARK                         _______ _______ _______ _____ _____    ______ ____
ROOT
ATOM      1  C   UNL     1       1.926   2.711  19.525  0.00  0.00    +0.000 C 
ENDROOT
BRANCH   1   4
ATOM      2  O   UNL     1       2.470   4.838  21.288  0.00  0.00    +0.000 OA
ATOM      3  C   UNL     1       2.007   5.104  20.178  0.00  0.00    +0.000 C 
ATOM      4  N   UNL     1       1.677   4.132  19.252  0.00  0.00    +0.000 N 
ATOM      5  H   UNL     1       1.447   4.410  18.306  0.00  0.00    +0.000 HD
BRANCH   3   6
ATOM      6  C   UNL     1       1.826   6.536  19.792  0.00  0.00    +0.000 A 
ATOM      7  C   UNL     1       2.222   6.931  18.511  0.00  0.00    +0.000 A 
ATOM      8  C   UNL     1       2.109   8.265  18.107  0.00  0.00    +0.000 A 
ATOM      9  C   UNL     1       1.609   9.239  18.986  0.00  0.00    +0.000 A 
ATOM     10  C   UNL     1       1.488  10.586  18.595  0.00  0.00    +0.000 A 
ATOM     11  C   UNL     1       1.003  11.547  19.483  0.00  0.00    +0.000 A 
ATOM     12  C   UNL     1       0.641  11.177  20.774  0.00  0.00    +0.000 A 
ATOM     13  C   UNL     1       0.755   9.842  21.176  0.00  0.00    +0.000 A 
ATOM     14  C   UNL     1       1.227   8.853  20.294  0.00  0.00    +0.000 A 
ATOM     15  C   UNL     1       1.339   7.501  20.684  0.00  0.00    +0.000 A 
ENDBRANCH   3   6
ENDBRANCH   1   4
BRANCH   1  16
ATOM     16  C   UNL     1       2.982   2.122  18.594  0.00  0.00    +0.000 C 
BRANCH  16  17
ATOM     17  C   UNL     1       3.427   3.111  17.515  0.00  0.00    +0.000 C 
ATOM     18  O   UNL     1       2.834   3.178  16.434  0.00  0.00    +0.000 OA
ATOM     19  N   UNL     1       4.500   3.940  17.769  0.00  0.00    +0.000 N 
ATOM     20  C   UNL     1       5.327   3.978  18.960  0.00  0.00    +0.000 C 
ATOM     21  C   UNL     1       5.617   5.451  19.144  0.00  0.00    +0.000 C 
ATOM     22  C   UNL     1       5.777   5.963  17.721  0.00  0.00    +0.000 C 
ATOM     23  C   UNL     1       4.922   5.013  16.842  0.00  0.00    +0.000 C 
BRANCH  23  24
ATOM     24  C   UNL     1       5.768   4.492  15.652  0.00  0.00    +0.000 C 
ATOM     25  O   UNL     1       6.941   4.131  15.776  0.00  0.00    +0.000 OA
ATOM     26  N   UNL     1       5.144   4.503  14.419  0.00  0.00    +0.000 N 
ATOM     27  H   UNL     1       4.137   4.676  14.386  0.00  0.00    +0.000 HD
BRANCH  26  28
ATOM     28  C   UNL     1       5.846   4.069  13.248  0.00  0.00    +0.000 C 
ATOM     29  C   UNL     1       5.075   3.636  12.026  0.00  0.00    +0.000 C 
ATOM     30  C   UNL     1       5.887   2.637  12.796  0.00  0.00    +0.000 C 
ENDBRANCH  26  28
ENDBRANCH  23  24
ENDBRANCH  16  17
ENDBRANCH   1  16
TORSDOF 6
ENDMDL
MODEL 6
REMARK VINA RESULT:      -8.0      7.045      8.919
REMARK  Name = 
REMARK  6 active torsions:
REMARK  status: ('A' for Active; 'I' for Inactive)
REMARK    1  A    between atoms: C_2  and  C_19
REMARK    2  A    between atoms: N_3  and  C_4
REMARK    3  A    between atoms: C_4  and  C_5
REMARK    4  A    between atoms: C_5  and  C_6
REMARK    5  A    between atoms: C_12  and  C_13
REMARK    6  A    between atoms: N_15  and  C_16
REMARK                            x       y       z     vdW  Elec       q    Type
REMARK                         _______ _______ _______ _____ _____    ______ ____
ROOT
ATOM      1  C   UNL     1       1.411   8.655  21.863  0.00  0.00    +0.000 C 
ENDROOT
BRANCH   1   4
ATOM      2  O   UNL     1       1.757   8.952  19.084  0.00  0.00    +0.000 OA
ATOM      3  C   UNL     1       2.090   7.886  19.603  0.00  0.00    +0.000 C 
ATOM      4  N   UNL     1       1.933   7.629  20.953  0.00  0.00    +0.000 N 
ATOM      5  H   UNL     1       2.361   6.802  21.349  0.00  0.00    +0.000 HD
BRANCH   3   6
ATOM      6  C   UNL     1       2.726   6.834  18.754  0.00  0.00    +0.000 A 
ATOM      7  C   UNL     1       2.423   5.496  19.020  0.00  0.00    +0.000 A 
ATOM      8  C   UNL     1       3.016   4.468  18.280  0.00  0.00    +0.000 A 
ATOM      9  C   UNL     1       3.940   4.758  17.265  0.00  0.00    +0.000 A 
ATOM     10  C   UNL     1       4.546   3.735  16.510  0.00  0.00    +0.000 A 
ATOM     11  C   UNL     1       5.475   4.036  15.514  0.00  0.00    +0.000 A 
ATOM     12  C   UNL     1       5.816   5.360  15.263  0.00  0.00    +0.000 A 
ATOM     13  C   UNL     1       5.222   6.387  16.004  0.00  0.00    +0.000 A 
ATOM     14  C   UNL     1       4.272   6.110  17.003  0.00  0.00    +0.000 A 
ATOM     15  C   UNL     1       3.658   7.137  17.752  0.00  0.00    +0.000 A 
ENDBRANCH   3   6
ENDBRANCH   1   4
BRANCH   1  16
ATOM     16  C   UNL     1      -0.082   8.898  21.660  0.00  0.00    +0.000 C 
BRANCH  16  17
ATOM     17  C   UNL     1      -0.460  10.373  21.814  0.00  0.00    +0.000 C 
ATOM     18  O   UNL     1      -0.343  10.947  22.901  0.00  0.00    +0.000 OA
ATOM     19  N   UNL     1      -0.927  11.061  20.713  0.00  0.00    +0.000 N 
ATOM     20  C   UNL     1      -1.156  10.545  19.378  0.00  0.00    +0.000 C 
ATOM     21  C   UNL     1      -0.736  11.687  18.479  0.00  0.00    +0.000 C 
ATOM     22  C   UNL     1      -1.197  12.923  19.236  0.00  0.00    +0.000 C 
ATOM     23  C   UNL     1      -1.194  12.516  20.732  0.00  0.00    +0.000 C 
BRANCH  23  24
ATOM     24  C   UNL     1      -2.557  12.877  21.378  0.00  0.00    +0.000 C 
ATOM     25  O   UNL     1      -3.573  13.092  20.714  0.00  0.00    +0.000 OA
ATOM     26  N   UNL     1      -2.558  12.996  22.755  0.00  0.00    +0.000 N 
ATOM     27  H   UNL     1      -1.735  12.675  23.270  0.00  0.00    +0.000 HD
BRANCH  26  28
ATOM     28  C   UNL     1      -3.758  13.354  23.450  0.00  0.00    +0.000 C 
ATOM     29  C   UNL     1      -3.682  13.879  24.861  0.00  0.00    +0.000 C 
ATOM     30  C   UNL     1      -4.321  12.551  24.587  0.00  0.00    +0.000 C 
ENDBRANCH  26  28
ENDBRANCH  23  24
ENDBRANCH  16  17
ENDBRANCH   1  16
TORSDOF 6
ENDMDL
MODEL 7
REMARK VINA RESULT:      -8.0      6.351      8.694
REMARK  Name = 
REMARK  6 active torsions:
REMARK  status: ('A' for Active; 'I' for Inactive)
REMARK    1  A    between atoms: C_2  and  C_19
REMARK    2  A    between atoms: N_3  and  C_4
REMARK    3  A    between atoms: C_4  and  C_5
REMARK    4  A    between atoms: C_5  and  C_6
REMARK    5  A    between atoms: C_12  and  C_13
REMARK    6  A    between atoms: N_15  and  C_16
REMARK                            x       y       z     vdW  Elec       q    Type
REMARK                         _______ _______ _______ _____ _____    ______ ____
ROOT
ATOM      1  C   UNL     1       0.914   8.357  21.224  0.00  0.00    +0.000 C 
ENDROOT
BRANCH   1   4
ATOM      2  O   UNL     1       1.304   5.576  21.022  0.00  0.00    +0.000 OA
ATOM      3  C   UNL     1       1.887   6.306  20.220  0.00  0.00    +0.000 C 
ATOM      4  N   UNL     1       1.786   7.685  20.253  0.00  0.00    +0.000 N 
ATOM      5  H   UNL     1       2.159   8.225  19.482  0.00  0.00    +0.000 HD
BRANCH   3   6
ATOM      6  C   UNL     1       2.708   5.685  19.138  0.00  0.00    +0.000 A 
ATOM      7  C   UNL     1       2.826   4.293  19.112  0.00  0.00    +0.000 A 
ATOM      8  C   UNL     1       3.610   3.659  18.144  0.00  0.00    +0.000 A 
ATOM      9  C   UNL     1       4.309   4.410  17.185  0.00  0.00    +0.000 A 
ATOM     10  C   UNL     1       5.102   3.787  16.202  0.00  0.00    +0.000 A 
ATOM     11  C   UNL     1       5.803   4.544  15.264  0.00  0.00    +0.000 A 
ATOM     12  C   UNL     1       5.727   5.933  15.299  0.00  0.00    +0.000 A 
ATOM     13  C   UNL     1       4.942   6.565  16.269  0.00  0.00    +0.000 A 
ATOM     14  C   UNL     1       4.215   5.822  17.216  0.00  0.00    +0.000 A 
ATOM     15  C   UNL     1       3.411   6.447  18.195  0.00  0.00    +0.000 A 
ENDBRANCH   3   6
ENDBRANCH   1   4
BRANCH   1  16
ATOM     16  C   UNL     1       1.313   9.813  21.444  0.00  0.00    +0.000 C 
BRANCH  16  17
ATOM     17  C   UNL     1       0.212  10.790  21.025  0.00  0.00    +0.000 C 
ATOM     18  O   UNL     1      -0.795  10.946  21.722  0.00  0.00    +0.000 OA
ATOM     19  N   UNL     1       0.364  11.506  19.856  0.00  0.00    +0.000 N 
ATOM     20  C   UNL     1       1.457  11.429  18.906  0.00  0.00    +0.000 C 
ATOM     21  C   UNL     1       1.639  12.862  18.457  0.00  0.00    +0.000 C 
ATOM     22  C   UNL     1       0.218  13.402  18.403  0.00  0.00    +0.000 C 
ATOM     23  C   UNL     1      -0.581  12.564  19.435  0.00  0.00    +0.000 C 
BRANCH  23  24
ATOM     24  C   UNL     1      -1.868  12.005  18.777  0.00  0.00    +0.000 C 
ATOM     25  O   UNL     1      -2.905  11.800  19.412  0.00  0.00    +0.000 OA
ATOM     26  N   UNL     1      -1.773  11.696  17.433  0.00  0.00    +0.000 N 
ATOM     27  H   UNL     1      -0.946  12.009  16.921  0.00  0.00    +0.000 HD
BRANCH  26  28
ATOM     28  C   UNL     1      -2.896  11.145  16.735  0.00  0.00    +0.000 C 
ATOM     29  C   UNL     1      -2.859   9.714  16.261  0.00  0.00    +0.000 C 
ATOM     30  C   UNL     1      -2.881  10.836  15.266  0.00  0.00    +0.000 C 
ENDBRANCH  26  28
ENDBRANCH  23  24
ENDBRANCH  16  17
ENDBRANCH   1  16
TORSDOF 6
ENDMDL
MODEL 8
REMARK VINA RESULT:      -7.9      5.724      8.623
REMARK  Name = 
REMARK  6 active torsions:
REMARK  status: ('A' for Active; 'I' for Inactive)
REMARK    1  A    between atoms: C_2  and  C_19
REMARK    2  A    between atoms: N_3  and  C_4
REMARK    3  A    between atoms: C_4  and  C_5
REMARK    4  A    between atoms: C_5  and  C_6
REMARK    5  A    between atoms: C_12  and  C_13
REMARK    6  A    between atoms: N_15  and  C_16
REMARK                            x       y       z     vdW  Elec       q    Type
REMARK                         _______ _______ _______ _____ _____    ______ ____
ROOT
ATOM      1  C   UNL     1       3.817   3.060  19.321  0.00  0.00    +0.000 C 
ENDROOT
BRANCH   1   4
ATOM      2  O   UNL     1       4.706   5.634  20.039  0.00  0.00    +0.000 OA
ATOM      3  C   UNL     1       3.590   5.523  19.530  0.00  0.00    +0.000 C 
ATOM      4  N   UNL     1       3.049   4.302  19.170  0.00  0.00    +0.000 N 
ATOM      5  H   UNL     1       2.199   4.283  18.620  0.00  0.00    +0.000 HD
BRANCH   3   6
ATOM      6  C   UNL     1       2.795   6.756  19.251  0.00  0.00    +0.000 A 
ATOM      7  C   UNL     1       2.926   7.359  17.996  0.00  0.00    +0.000 A 
ATOM      8  C   UNL     1       2.233   8.534  17.691  0.00  0.00    +0.000 A 
ATOM      9  C   UNL     1       1.402   9.143  18.645  0.00  0.00    +0.000 A 
ATOM     10  C   UNL     1       0.697  10.327  18.354  0.00  0.00    +0.000 A 
ATOM     11  C   UNL     1      -0.114  10.930  19.315  0.00  0.00    +0.000 A 
ATOM     12  C   UNL     1      -0.225  10.364  20.581  0.00  0.00    +0.000 A 
ATOM     13  C   UNL     1       0.468   9.189  20.884  0.00  0.00    +0.000 A 
ATOM     14  C   UNL     1       1.280   8.554  19.927  0.00  0.00    +0.000 A 
ATOM     15  C   UNL     1       1.980   7.362  20.216  0.00  0.00    +0.000 A 
ENDBRANCH   3   6
ENDBRANCH   1   4
BRANCH   1  16
ATOM     16  C   UNL     1       4.298   2.516  17.979  0.00  0.00    +0.000 C 
BRANCH  16  17
ATOM     17  C   UNL     1       4.550   3.624  16.955  0.00  0.00    +0.000 C 
ATOM     18  O   UNL     1       3.702   3.903  16.103  0.00  0.00    +0.000 OA
ATOM     19  N   UNL     1       5.742   4.319  17.000  0.00  0.00    +0.000 N 
ATOM     20  C   UNL     1       6.855   4.107  17.904  0.00  0.00    +0.000 C 
ATOM     21  C   UNL     1       7.354   5.508  18.187  0.00  0.00    +0.000 C 
ATOM     22  C   UNL     1       7.185   6.221  16.854  0.00  0.00    +0.000 C 
ATOM     23  C   UNL     1       6.021   5.488  16.138  0.00  0.00    +0.000 C 
BRANCH  23  24
ATOM     24  C   UNL     1       6.451   5.095  14.701  0.00  0.00    +0.000 C 
ATOM     25  O   UNL     1       7.557   5.378  14.236  0.00  0.00    +0.000 OA
ATOM     26  N   UNL     1       5.495   4.447  13.942  0.00  0.00    +0.000 N 
ATOM     27  H   UNL     1       4.650   4.113  14.409  0.00  0.00    +0.000 HD
BRANCH  26  28
ATOM     28  C   UNL     1       5.779   4.066  12.591  0.00  0.00    +0.000 C 
ATOM     29  C   UNL     1       4.740   3.332  11.782  0.00  0.00    +0.000 C 
ATOM     30  C   UNL     1       6.015   2.645  12.169  0.00  0.00    +0.000 C 
ENDBRANCH  26  28
ENDBRANCH  23  24
ENDBRANCH  16  17
ENDBRANCH   1  16
TORSDOF 6
ENDMDL
MODEL 9
REMARK VINA RESULT:      -7.9      0.931      1.455
REMARK  Name = 
REMARK  6 active torsions:
REMARK  status: ('A' for Active; 'I' for Inactive)
REMARK    1  A    between atoms: C_2  and  C_19
REMARK    2  A    between atoms: N_3  and  C_4
REMARK    3  A    between atoms: C_4  and  C_5
REMARK    4  A    between atoms: C_5  and  C_6
REMARK    5  A    between atoms: C_12  and  C_13
REMARK    6  A    between atoms: N_15  and  C_16
REMARK                            x       y       z     vdW  Elec       q    Type
REMARK                         _______ _______ _______ _____ _____    ______ ____
ROOT
ATOM      1  C   UNL     1       8.169   8.047  17.524  0.00  0.00    +0.000 C 
ENDROOT
BRANCH   1   4
ATOM      2  O   UNL     1       6.789   6.248  15.854  0.00  0.00    +0.000 OA
ATOM      3  C   UNL     1       6.352   6.443  16.989  0.00  0.00    +0.000 C 
ATOM      4  N   UNL     1       6.937   7.329  17.875  0.00  0.00    +0.000 N 
ATOM      5  H   UNL     1       6.630   7.337  18.839  0.00  0.00    +0.000 HD
BRANCH   3   6
ATOM      6  C   UNL     1       5.162   5.668  17.451  0.00  0.00    +0.000 A 
ATOM      7  C   UNL     1       4.708   4.613  16.654  0.00  0.00    +0.000 A 
ATOM      8  C   UNL     1       3.579   3.874  17.019  0.00  0.00    +0.000 A 
ATOM      9  C   UNL     1       2.866   4.187  18.188  0.00  0.00    +0.000 A 
ATOM     10  C   UNL     1       1.727   3.453  18.570  0.00  0.00    +0.000 A 
ATOM     11  C   UNL     1       1.019   3.783  19.726  0.00  0.00    +0.000 A 
ATOM     12  C   UNL     1       1.434   4.854  20.509  0.00  0.00    +0.000 A 
ATOM     13  C   UNL     1       2.564   5.591  20.143  0.00  0.00    +0.000 A 
ATOM     14  C   UNL     1       3.303   5.268  18.990  0.00  0.00    +0.000 A 
ATOM     15  C   UNL     1       4.451   5.999  18.613  0.00  0.00    +0.000 A 
ENDBRANCH   3   6
ENDBRANCH   1   4
BRANCH   1  16
ATOM     16  C   UNL     1       8.051   9.547  17.772  0.00  0.00    +0.000 C 
BRANCH  16  17
ATOM     17  C   UNL     1       8.936  10.020  18.927  0.00  0.00    +0.000 C 
ATOM     18  O   UNL     1       8.950   9.415  20.003  0.00  0.00    +0.000 OA
ATOM     19  N   UNL     1       9.731  11.133  18.748  0.00  0.00    +0.000 N 
ATOM     20  C   UNL     1       9.819  11.978  17.573  0.00  0.00    +0.000 C 
ATOM     21  C   UNL     1      11.288  12.337  17.502  0.00  0.00    +0.000 C 
ATOM     22  C   UNL     1      11.685  12.498  18.962  0.00  0.00    +0.000 C 
ATOM     23  C   UNL     1      10.713  11.589  19.757  0.00  0.00    +0.000 C 
BRANCH  23  24
ATOM     24  C   UNL     1      10.067  12.392  20.915  0.00  0.00    +0.000 C 
ATOM     25  O   UNL     1      10.357  13.567  21.153  0.00  0.00    +0.000 OA
ATOM     26  N   UNL     1       9.175  11.696  21.708  0.00  0.00    +0.000 N 
ATOM     27  H   UNL     1       8.863  10.775  21.393  0.00  0.00    +0.000 HD
BRANCH  26  28
ATOM     28  C   UNL     1       8.544  12.337  22.823  0.00  0.00    +0.000 C 
ATOM     29  C   UNL     1       8.418  11.607  24.137  0.00  0.00    +0.000 C 
ATOM     30  C   UNL     1       7.191  11.942  23.341  0.00  0.00    +0.000 C 
ENDBRANCH  26  28
ENDBRANCH  23  24
ENDBRANCH  16  17
ENDBRANCH   1  16
TORSDOF 6
ENDMDL
