MODEL 1
REMARK VINA RESULT:      -8.2      0.000      0.000
REMARK  Name = 
REMARK  5 active torsions:
REMARK  status: ('A' for Active; 'I' for Inactive)
REMARK    1  A    between atoms: C_1  and  C_2
REMARK    2  A    between atoms: C_2  and  C_3
REMARK    3  A    between atoms: C_3  and  N_4
REMARK    4  A    between atoms: C_6  and  N_7
REMARK    5  A    between atoms: C_14  and  C_15
REMARK                            x       y       z     vdW  Elec       q    Type
REMARK                         _______ _______ _______ _____ _____    ______ ____
ROOT
ATOM      1  N   UNL     1       1.810   8.002  19.632  0.00  0.00    +0.000 N 
ATOM      2  C   UNL     1       2.093   6.672  19.822  0.00  0.00    +0.000 A 
ATOM      3  C   UNL     1       1.477   5.823  20.927  0.00  0.00    +0.000 A 
ATOM      4  C   UNL     1       1.387   4.525  20.579  0.00  0.00    +0.000 A 
ATOM      5  C   UNL     1       2.511   3.976  19.917  0.00  0.00    +0.000 A 
ATOM      6  N   UNL     1       2.985   2.760  19.811  0.00  0.00    +0.000 NA
ATOM      7  N   UNL     1       4.055   2.815  18.953  0.00  0.00    +0.000 NA
ATOM      8  C   UNL     1       4.203   4.059  18.512  0.00  0.00    +0.000 A 
ATOM      9  N   UNL     1       3.240   4.845  19.131  0.00  0.00    +0.000 N 
ATOM     10  N   UNL     1       2.974   6.182  18.973  0.00  0.00    +0.000 NA
ATOM     11  H   UNL     1       2.326   8.372  18.839  0.00  0.00    +0.000 HD
ENDROOT
BRANCH   8  12
ATOM     12  C   UNL     1       5.209   4.474  17.520  0.00  0.00    +0.000 A 
ATOM     13  C   UNL     1       5.277   3.771  16.300  0.00  0.00    +0.000 A 
ATOM     14  C   UNL     1       6.199   4.114  15.306  0.00  0.00    +0.000 A 
ATOM     15  C   UNL     1       7.077   5.170  15.516  0.00  0.00    +0.000 A 
ATOM     16  C   UNL     1       7.021   5.867  16.715  0.00  0.00    +0.000 A 
ATOM     17  F   UNL     1       7.867   6.886  16.920  0.00  0.00    +0.000 F 
ATOM     18  C   UNL     1       6.106   5.531  17.712  0.00  0.00    +0.000 A 
ENDBRANCH   8  12
BRANCH   1  21
ATOM     19  N   UNL     1       0.026  10.394  21.515  0.00  0.00    +0.000 N 
ATOM     20  C   UNL     1       0.277   9.857  20.277  0.00  0.00    +0.000 A 
ATOM     21  C   UNL     1       1.210   8.867  20.477  0.00  0.00    +0.000 A 
ATOM     22  C   UNL     1       1.475   8.910  21.863  0.00  0.00    +0.000 A 
ATOM     23  N   UNL     1       0.742   9.823  22.500  0.00  0.00    +0.000 NA
BRANCH  19  24
ATOM     24  C   UNL     1      -0.930  11.438  21.841  0.00  0.00    +0.000 C 
BRANCH  24  26
ATOM     25  C   UNL     1      -2.826  12.170  23.373  0.00  0.00    +0.000 C 
ATOM     26  C   UNL     1      -1.614  11.267  23.199  0.00  0.00    +0.000 C 
ENDBRANCH  24  26
ENDBRANCH  19  24
ENDBRANCH   1  21
TORSDOF 4
ENDMDL
MODEL 2
REMARK VINA RESULT:      -8.2      1.034      1.342
REMARK  Name = 
REMARK  5 active torsions:
REMARK  status: ('A' for Active; 'I' for Inactive)
REMARK    1  A    between atoms: C_1  and  C_2
REMARK    2  A    between atoms: C_2  and  C_3
REMARK    3  A    between atoms: C_3  and  N_4
REMARK    4  A    between atoms: C_6  and  N_7
REMARK    5  A    between atoms: C_14  and  C_15
REMARK                            x       y       z     vdW  Elec       q    Type
REMARK                         _______ _______ _______ _____ _____    ______ ____
ROOT
ATOM      1  N   UNL     1       1.929   7.877  19.515  0.00  0.00    +0.000 N 
ATOM      2  C   UNL     1       2.149   6.541  19.745  0.00  0.00    +0.000 A 
ATOM      3  C   UNL     1       1.506   5.759  20.883  0.00  0.00    +0.000 A 
ATOM      4  C   UNL     1       1.349   4.456  20.578  0.00  0.00    +0.000 A 
ATOM      5  C   UNL     1       2.436   3.832  19.922  0.00  0.00    +0.000 A 
ATOM      6  N   UNL     1       2.849   2.592  19.851  0.00  0.00    +0.000 NA
ATOM      7  N   UNL     1       3.910   2.566  18.981  0.00  0.00    +0.000 NA
ATOM      8  C   UNL     1       4.113   3.787  18.497  0.00  0.00    +0.000 A 
ATOM      9  N   UNL     1       3.197   4.639  19.101  0.00  0.00    +0.000 N 
ATOM     10  N   UNL     1       2.994   5.982  18.903  0.00  0.00    +0.000 NA
ATOM     11  H   UNL     1       2.453   8.195  18.704  0.00  0.00    +0.000 HD
ENDROOT
BRANCH   8  12
ATOM     12  C   UNL     1       5.125   4.120  17.482  0.00  0.00    +0.000 A 
ATOM     13  C   UNL     1       6.409   4.507  17.916  0.00  0.00    +0.000 A 
ATOM     14  C   UNL     1       7.425   4.827  17.010  0.00  0.00    +0.000 A 
ATOM     15  C   UNL     1       7.174   4.769  15.645  0.00  0.00    +0.000 A 
ATOM     16  C   UNL     1       5.912   4.392  15.205  0.00  0.00    +0.000 A 
ATOM     17  F   UNL     1       5.667   4.334  13.890  0.00  0.00    +0.000 F 
ATOM     18  C   UNL     1       4.893   4.073  16.102  0.00  0.00    +0.000 A 
ENDBRANCH   8  12
BRANCH   1  21
ATOM     19  N   UNL     1       0.337  10.452  21.328  0.00  0.00    +0.000 N 
ATOM     20  C   UNL     1       0.626   9.919  20.096  0.00  0.00    +0.000 A 
ATOM     21  C   UNL     1       1.382   8.797  20.338  0.00  0.00    +0.000 A 
ATOM     22  C   UNL     1       1.516   8.760  21.743  0.00  0.00    +0.000 A 
ATOM     23  N   UNL     1       0.865   9.752  22.349  0.00  0.00    +0.000 NA
BRANCH  19  24
ATOM     24  C   UNL     1      -0.483  11.616  21.609  0.00  0.00    +0.000 C 
BRANCH  24  26
ATOM     25  C   UNL     1      -1.820  12.885  23.366  0.00  0.00    +0.000 C 
ATOM     26  C   UNL     1      -1.255  11.541  22.928  0.00  0.00    +0.000 C 
ENDBRANCH  24  26
ENDBRANCH  19  24
ENDBRANCH   1  21
TORSDOF 4
ENDMDL
MODEL 3
REMARK VINA RESULT:      -7.9      2.974      8.423
REMARK  Name = 
REMARK  5 active torsions:
REMARK  status: ('A' for Active; 'I' for Inactive)
REMARK    1  A    between atoms: C_1  and  C_2
REMARK    2  A    between atoms: C_2  and  C_3
REMARK    3  A    between atoms: C_3  and  N_4
REMARK    4  A    between atoms: C_6  and  N_7
REMARK    5  A    between atoms: C_14  and  C_15
REMARK                            x       y       z     vdW  Elec       q    Type
REMARK                         _______ _______ _______ _____ _____    ______ ____
ROOT
ATOM      1  N   UNL     1       5.246   5.734  16.374  0.00  0.00    +0.000 N 
ATOM      2  C   UNL     1       4.542   5.173  17.411  0.00  0.00    +0.000 A 
ATOM      3  C   UNL     1       4.517   3.679  17.709  0.00  0.00    +0.000 A 
ATOM      4  C   UNL     1       4.323   3.427  19.018  0.00  0.00    +0.000 A 
ATOM      5  C   UNL     1       3.343   4.214  19.668  0.00  0.00    +0.000 A 
ATOM      6  N   UNL     1       2.588   4.019  20.720  0.00  0.00    +0.000 NA
ATOM      7  N   UNL     1       1.894   5.182  20.942  0.00  0.00    +0.000 NA
ATOM      8  C   UNL     1       2.258   6.091  20.044  0.00  0.00    +0.000 A 
ATOM      9  N   UNL     1       3.174   5.496  19.188  0.00  0.00    +0.000 N 
ATOM     10  N   UNL     1       3.856   6.040  18.127  0.00  0.00    +0.000 NA
ATOM     11  H   UNL     1       5.126   6.743  16.360  0.00  0.00    +0.000 HD
ENDROOT
BRANCH   8  12
ATOM     12  C   UNL     1       1.768   7.479  20.023  0.00  0.00    +0.000 A 
ATOM     13  C   UNL     1       1.200   8.008  21.200  0.00  0.00    +0.000 A 
ATOM     14  C   UNL     1       0.722   9.321  21.259  0.00  0.00    +0.000 A 
ATOM     15  C   UNL     1       0.800  10.133  20.134  0.00  0.00    +0.000 A 
ATOM     16  C   UNL     1       1.355   9.622  18.968  0.00  0.00    +0.000 A 
ATOM     17  F   UNL     1       1.432  10.403  17.882  0.00  0.00    +0.000 F 
ATOM     18  C   UNL     1       1.832   8.313  18.901  0.00  0.00    +0.000 A 
ENDBRANCH   8  12
BRANCH   1  21
ATOM     19  N   UNL     1       6.279   4.082  13.432  0.00  0.00    +0.000 N 
ATOM     20  C   UNL     1       5.230   4.468  14.228  0.00  0.00    +0.000 A 
ATOM     21  C   UNL     1       5.789   5.129  15.296  0.00  0.00    +0.000 A 
ATOM     22  C   UNL     1       7.179   5.059  15.062  0.00  0.00    +0.000 A 
ATOM     23  N   UNL     1       7.480   4.441  13.921  0.00  0.00    +0.000 NA
BRANCH  19  24
ATOM     24  C   UNL     1       6.205   3.396  12.154  0.00  0.00    +0.000 C 
BRANCH  24  26
ATOM     25  C   UNL     1       4.014   3.498  10.862  0.00  0.00    +0.000 C 
ATOM     26  C   UNL     1       4.856   2.731  11.872  0.00  0.00    +0.000 C 
ENDBRANCH  24  26
ENDBRANCH  19  24
ENDBRANCH   1  21
TORSDOF 4
ENDMDL
MODEL 4
REMARK VINA RESULT:      -7.9      3.164      8.435
REMARK  Name = 
REMARK  5 active torsions:
REMARK  status: ('A' for Active; 'I' for Inactive)
REMARK    1  A    between atoms: C_1  and  C_2
REMARK    2  A    between atoms: C_2  and  C_3
REMARK    3  A    between atoms: C_3  and  N_4
REMARK    4  A    between atoms: C_6  and  N_7
REMARK    5  A    between atoms: C_14  and  C_15
REMARK                            x       y       z     vdW  Elec       q    Type
REMARK                         _______ _______ _______ _____ _____    ______ ____
ROOT
ATOM      1  N   UNL     1       5.337   5.974  16.649  0.00  0.00    +0.000 N 
ATOM      2  C   UNL     1       4.558   5.415  17.632  0.00  0.00    +0.000 A 
ATOM      3  C   UNL     1       4.479   3.918  17.902  0.00  0.00    +0.000 A 
ATOM      4  C   UNL     1       4.201   3.649  19.193  0.00  0.00    +0.000 A 
ATOM      5  C   UNL     1       3.204   4.451  19.797  0.00  0.00    +0.000 A 
ATOM      6  N   UNL     1       2.383   4.259  20.799  0.00  0.00    +0.000 NA
ATOM      7  N   UNL     1       1.706   5.436  21.000  0.00  0.00    +0.000 NA
ATOM      8  C   UNL     1       2.146   6.350  20.142  0.00  0.00    +0.000 A 
ATOM      9  N   UNL     1       3.096   5.745  19.330  0.00  0.00    +0.000 N 
ATOM     10  N   UNL     1       3.853   6.288  18.322  0.00  0.00    +0.000 NA
ATOM     11  H   UNL     1       5.244   6.986  16.646  0.00  0.00    +0.000 HD
ENDROOT
BRANCH   8  12
ATOM     12  C   UNL     1       1.692   7.750  20.116  0.00  0.00    +0.000 A 
ATOM     13  C   UNL     1       1.720   8.442  18.889  0.00  0.00    +0.000 A 
ATOM     14  C   UNL     1       1.295   9.770  18.785  0.00  0.00    +0.000 A 
ATOM     15  C   UNL     1       0.834  10.436  19.914  0.00  0.00    +0.000 A 
ATOM     16  C   UNL     1       0.805   9.766  21.130  0.00  0.00    +0.000 A 
ATOM     17  F   UNL     1       0.361  10.405  22.220  0.00  0.00    +0.000 F 
ATOM     18  C   UNL     1       1.229   8.442  21.242  0.00  0.00    +0.000 A 
ENDBRANCH   8  12
BRANCH   1  21
ATOM     19  N   UNL     1       6.504   4.369  13.731  0.00  0.00    +0.000 N 
ATOM     20  C   UNL     1       5.419   4.808  14.449  0.00  0.00    +0.000 A 
ATOM     21  C   UNL     1       5.927   5.372  15.594  0.00  0.00    +0.000 A 
ATOM     22  C   UNL     1       7.324   5.195  15.483  0.00  0.00    +0.000 A 
ATOM     23  N   UNL     1       7.679   4.604  14.343  0.00  0.00    +0.000 NA
BRANCH  19  24
ATOM     24  C   UNL     1       6.494   3.748  12.418  0.00  0.00    +0.000 C 
BRANCH  24  26
ATOM     25  C   UNL     1       4.242   3.275  11.330  0.00  0.00    +0.000 C 
ATOM     26  C   UNL     1       5.365   2.738  12.205  0.00  0.00    +0.000 C 
ENDBRANCH  24  26
ENDBRANCH  19  24
ENDBRANCH   1  21
TORSDOF 4
ENDMDL
MODEL 5
REMARK VINA RESULT:      -7.9      1.730      2.153
REMARK  Name = 
REMARK  5 active torsions:
REMARK  status: ('A' for Active; 'I' for Inactive)
REMARK    1  A    between atoms: C_1  and  C_2
REMARK    2  A    between atoms: C_2  and  C_3
REMARK    3  A    between atoms: C_3  and  N_4
REMARK    4  A    between atoms: C_6  and  N_7
REMARK    5  A    between atoms: C_14  and  C_15
REMARK                            x       y       z     vdW  Elec       q    Type
REMARK                         _______ _______ _______ _____ _____    ______ ____
ROOT
ATOM      1  N   UNL     1       1.845   8.545  18.124  0.00  0.00    +0.000 N 
ATOM      2  C   UNL     1       2.246   7.417  18.796  0.00  0.00    +0.000 A 
ATOM      3  C   UNL     1       1.832   7.089  20.225  0.00  0.00    +0.000 A 
ATOM      4  C   UNL     1       1.796   5.761  20.450  0.00  0.00    +0.000 A 
ATOM      5  C   UNL     1       2.869   5.007  19.917  0.00  0.00    +0.000 A 
ATOM      6  N   UNL     1       3.415   3.864  20.249  0.00  0.00    +0.000 NA
ATOM      7  N   UNL     1       4.366   3.579  19.301  0.00  0.00    +0.000 NA
ATOM      8  C   UNL     1       4.367   4.533  18.376  0.00  0.00    +0.000 A 
ATOM      9  N   UNL     1       3.432   5.487  18.752  0.00  0.00    +0.000 N 
ATOM     10  N   UNL     1       3.050   6.636  18.104  0.00  0.00    +0.000 NA
ATOM     11  H   UNL     1       2.232   8.564  17.185  0.00  0.00    +0.000 HD
ENDROOT
BRANCH   8  12
ATOM     12  C   UNL     1       5.212   4.518  17.171  0.00  0.00    +0.000 A 
ATOM     13  C   UNL     1       6.592   4.765  17.316  0.00  0.00    +0.000 A 
ATOM     14  C   UNL     1       7.459   4.757  16.219  0.00  0.00    +0.000 A 
ATOM     15  C   UNL     1       6.958   4.504  14.948  0.00  0.00    +0.000 A 
ATOM     16  C   UNL     1       5.599   4.262  14.792  0.00  0.00    +0.000 A 
ATOM     17  F   UNL     1       5.114   4.017  13.568  0.00  0.00    +0.000 F 
ATOM     18  C   UNL     1       4.729   4.270  15.881  0.00  0.00    +0.000 A 
ENDBRANCH   8  12
BRANCH   1  21
ATOM     19  N   UNL     1       0.087  11.250  19.554  0.00  0.00    +0.000 N 
ATOM     20  C   UNL     1       0.101   9.908  19.267  0.00  0.00    +0.000 A 
ATOM     21  C   UNL     1       1.290   9.671  18.620  0.00  0.00    +0.000 A 
ATOM     22  C   UNL     1       1.904  10.940  18.542  0.00  0.00    +0.000 A 
ATOM     23  N   UNL     1       1.186  11.898  19.127  0.00  0.00    +0.000 NA
BRANCH  19  24
ATOM     24  C   UNL     1      -0.935  11.981  20.282  0.00  0.00    +0.000 C 
BRANCH  24  26
ATOM     25  C   UNL     1      -1.013  11.189  22.700  0.00  0.00    +0.000 C 
ATOM     26  C   UNL     1      -0.579  12.285  21.738  0.00  0.00    +0.000 C 
ENDBRANCH  24  26
ENDBRANCH  19  24
ENDBRANCH   1  21
TORSDOF 4
ENDMDL
MODEL 6
REMARK VINA RESULT:      -7.8      2.984      4.097
REMARK  Name = 
REMARK  5 active torsions:
REMARK  status: ('A' for Active; 'I' for Inactive)
REMARK    1  A    between atoms: C_1  and  C_2
REMARK    2  A    between atoms: C_2  and  C_3
REMARK    3  A    between atoms: C_3  and  N_4
REMARK    4  A    between atoms: C_6  and  N_7
REMARK    5  A    between atoms: C_14  and  C_15
REMARK                            x       y       z     vdW  Elec       q    Type
REMARK                         _______ _______ _______ _____ _____    ______ ____
ROOT
ATOM      1  N   UNL     1       3.121   6.867  17.405  0.00  0.00    +0.000 N 
ATOM      2  C   UNL     1       4.358   6.335  17.675  0.00  0.00    +0.000 A 
ATOM      3  C   UNL     1       5.042   6.427  19.033  0.00  0.00    +0.000 A 
ATOM      4  C   UNL     1       5.868   5.386  19.256  0.00  0.00    +0.000 A 
ATOM      5  C   UNL     1       6.680   4.989  18.168  0.00  0.00    +0.000 A 
ATOM      6  N   UNL     1       7.835   4.376  18.087  0.00  0.00    +0.000 NA
ATOM      7  N   UNL     1       8.090   4.167  16.755  0.00  0.00    +0.000 NA
ATOM      8  C   UNL     1       7.070   4.620  16.034  0.00  0.00    +0.000 A 
ATOM      9  N   UNL     1       6.151   5.182  16.909  0.00  0.00    +0.000 N 
ATOM     10  N   UNL     1       4.929   5.748  16.643  0.00  0.00    +0.000 NA
ATOM     11  H   UNL     1       2.853   6.688  16.441  0.00  0.00    +0.000 HD
ENDROOT
BRANCH   8  12
ATOM     12  C   UNL     1       6.970   4.498  14.571  0.00  0.00    +0.000 A 
ATOM     13  C   UNL     1       7.778   5.333  13.771  0.00  0.00    +0.000 A 
ATOM     14  C   UNL     1       7.745   5.267  12.375  0.00  0.00    +0.000 A 
ATOM     15  C   UNL     1       6.897   4.362  11.748  0.00  0.00    +0.000 A 
ATOM     16  C   UNL     1       6.095   3.537  12.525  0.00  0.00    +0.000 A 
ATOM     17  F   UNL     1       5.276   2.664  11.923  0.00  0.00    +0.000 F 
ATOM     18  C   UNL     1       6.120   3.598  13.918  0.00  0.00    +0.000 A 
ENDBRANCH   8  12
BRANCH   1  21
ATOM     19  N   UNL     1       1.242   9.441  18.920  0.00  0.00    +0.000 N 
ATOM     20  C   UNL     1       1.860   8.982  17.784  0.00  0.00    +0.000 A 
ATOM     21  C   UNL     1       2.416   7.770  18.118  0.00  0.00    +0.000 A 
ATOM     22  C   UNL     1       2.100   7.606  19.485  0.00  0.00    +0.000 A 
ATOM     23  N   UNL     1       1.370   8.609  19.970  0.00  0.00    +0.000 NA
BRANCH  19  24
ATOM     24  C   UNL     1       0.465  10.659  19.065  0.00  0.00    +0.000 C 
BRANCH  24  26
ATOM     25  C   UNL     1      -1.727  10.244  17.839  0.00  0.00    +0.000 C 
ATOM     26  C   UNL     1      -1.043  10.436  19.185  0.00  0.00    +0.000 C 
ENDBRANCH  24  26
ENDBRANCH  19  24
ENDBRANCH   1  21
TORSDOF 4
ENDMDL
MODEL 7
REMARK VINA RESULT:      -7.7      2.809      3.962
REMARK  Name = 
REMARK  5 active torsions:
REMARK  status: ('A' for Active; 'I' for Inactive)
REMARK    1  A    between atoms: C_1  and  C_2
REMARK    2  A    between atoms: C_2  and  C_3
REMARK    3  A    between atoms: C_3  and  N_4
REMARK    4  A    between atoms: C_6  and  N_7
REMARK    5  A    between atoms: C_14  and  C_15
REMARK                            x       y       z     vdW  Elec       q    Type
REMARK                         _______ _______ _______ _____ _____    ______ ____
ROOT
ATOM      1  N   UNL     1       3.045   6.996  17.398  0.00  0.00    +0.000 N 
ATOM      2  C   UNL     1       4.263   6.439  17.700  0.00  0.00    +0.000 A 
ATOM      3  C   UNL     1       4.920   6.529  19.072  0.00  0.00    +0.000 A 
ATOM      4  C   UNL     1       5.717   5.473  19.323  0.00  0.00    +0.000 A 
ATOM      5  C   UNL     1       6.543   5.045  18.257  0.00  0.00    +0.000 A 
ATOM      6  N   UNL     1       7.684   4.405  18.206  0.00  0.00    +0.000 NA
ATOM      7  N   UNL     1       7.963   4.176  16.882  0.00  0.00    +0.000 NA
ATOM      8  C   UNL     1       6.970   4.645  16.135  0.00  0.00    +0.000 A 
ATOM      9  N   UNL     1       6.045   5.237  16.985  0.00  0.00    +0.000 N 
ATOM     10  N   UNL     1       4.842   5.828  16.687  0.00  0.00    +0.000 NA
ATOM     11  H   UNL     1       2.794   6.813  16.431  0.00  0.00    +0.000 HD
ENDROOT
BRANCH   8  12
ATOM     12  C   UNL     1       6.898   4.511  14.671  0.00  0.00    +0.000 A 
ATOM     13  C   UNL     1       7.744   5.315  13.881  0.00  0.00    +0.000 A 
ATOM     14  C   UNL     1       7.740   5.235  12.485  0.00  0.00    +0.000 A 
ATOM     15  C   UNL     1       6.882   4.347  11.849  0.00  0.00    +0.000 A 
ATOM     16  C   UNL     1       6.042   3.551  12.616  0.00  0.00    +0.000 A 
ATOM     17  F   UNL     1       5.214   2.693  12.005  0.00  0.00    +0.000 F 
ATOM     18  C   UNL     1       6.039   3.626  14.009  0.00  0.00    +0.000 A 
ENDBRANCH   8  12
BRANCH   1  21
ATOM     19  N   UNL     1       1.255   9.170  19.525  0.00  0.00    +0.000 N 
ATOM     20  C   UNL     1       1.885   7.959  19.382  0.00  0.00    +0.000 A 
ATOM     21  C   UNL     1       2.346   7.923  18.087  0.00  0.00    +0.000 A 
ATOM     22  C   UNL     1       1.915   9.146  17.528  0.00  0.00    +0.000 A 
ATOM     23  N   UNL     1       1.269   9.915  18.404  0.00  0.00    +0.000 NA
BRANCH  19  24
ATOM     24  C   UNL     1       0.647   9.706  20.730  0.00  0.00    +0.000 C 
BRANCH  24  26
ATOM     25  C   UNL     1       0.121   9.363  23.197  0.00  0.00    +0.000 C 
ATOM     26  C   UNL     1       0.584   8.720  21.898  0.00  0.00    +0.000 C 
ENDBRANCH  24  26
ENDBRANCH  19  24
ENDBRANCH   1  21
TORSDOF 4
ENDMDL
MODEL 8
REMARK VINA RESULT:      -7.7      1.305      1.834
REMARK  Name = 
REMARK  5 active torsions:
REMARK  status: ('A' for Active; 'I' for Inactive)
REMARK    1  A    between atoms: C_1  and  C_2
REMARK    2  A    between atoms: C_2  and  C_3
REMARK    3  A    between atoms: C_3  and  N_4
REMARK    4  A    between atoms: C_6  and  N_7
REMARK    5  A    between atoms: C_14  and  C_15
REMARK                            x       y       z     vdW  Elec       q    Type
REMARK                         _______ _______ _______ _____ _____    ______ ____
ROOT
ATOM      1  N   UNL     1       1.670   8.329  18.689  0.00  0.00    +0.000 N 
ATOM      2  C   UNL     1       2.074   7.137  19.239  0.00  0.00    +0.000 A 
ATOM      3  C   UNL     1       1.566   6.602  20.571  0.00  0.00    +0.000 A 
ATOM      4  C   UNL     1       1.581   5.256  20.617  0.00  0.00    +0.000 A 
ATOM      5  C   UNL     1       2.730   4.626  20.083  0.00  0.00    +0.000 A 
ATOM      6  N   UNL     1       3.306   3.471  20.308  0.00  0.00    +0.000 NA
ATOM      7  N   UNL     1       4.343   3.356  19.416  0.00  0.00    +0.000 NA
ATOM      8  C   UNL     1       4.369   4.425  18.628  0.00  0.00    +0.000 A 
ATOM      9  N   UNL     1       3.358   5.281  19.044  0.00  0.00    +0.000 N 
ATOM     10  N   UNL     1       2.971   6.490  18.523  0.00  0.00    +0.000 NA
ATOM     11  H   UNL     1       2.130   8.490  17.797  0.00  0.00    +0.000 HD
ENDROOT
BRANCH   8  12
ATOM     12  C   UNL     1       5.307   4.608  17.509  0.00  0.00    +0.000 A 
ATOM     13  C   UNL     1       6.365   5.526  17.663  0.00  0.00    +0.000 A 
ATOM     14  C   UNL     1       7.301   5.745  16.648  0.00  0.00    +0.000 A 
ATOM     15  C   UNL     1       7.194   5.049  15.451  0.00  0.00    +0.000 A 
ATOM     16  C   UNL     1       6.154   4.144  15.285  0.00  0.00    +0.000 A 
ATOM     17  F   UNL     1       6.048   3.471  14.132  0.00  0.00    +0.000 F 
ATOM     18  C   UNL     1       5.215   3.922  16.292  0.00  0.00    +0.000 A 
ENDBRANCH   8  12
BRANCH   1  21
ATOM     19  N   UNL     1       0.217  10.948  20.554  0.00  0.00    +0.000 N 
ATOM     20  C   UNL     1       1.123   9.918  20.528  0.00  0.00    +0.000 A 
ATOM     21  C   UNL     1       1.019   9.354  19.279  0.00  0.00    +0.000 A 
ATOM     22  C   UNL     1       0.003  10.098  18.642  0.00  0.00    +0.000 A 
ATOM     23  N   UNL     1      -0.473  11.080  19.407  0.00  0.00    +0.000 NA
BRANCH  19  24
ATOM     24  C   UNL     1      -0.016  11.885  21.639  0.00  0.00    +0.000 C 
BRANCH  24  26
ATOM     25  C   UNL     1      -2.237  11.971  22.881  0.00  0.00    +0.000 C 
ATOM     26  C   UNL     1      -0.862  11.326  22.785  0.00  0.00    +0.000 C 
ENDBRANCH  24  26
ENDBRANCH  19  24
ENDBRANCH   1  21
TORSDOF 4
ENDMDL
MODEL 9
REMARK VINA RESULT:      -7.7      2.516      2.955
REMARK  Name = 
REMARK  5 active torsions:
REMARK  status: ('A' for Active; 'I' for Inactive)
REMARK    1  A    between atoms: C_1  and  C_2
REMARK    2  A    between atoms: C_2  and  C_3
REMARK    3  A    between atoms: C_3  and  N_4
REMARK    4  A    between atoms: C_6  and  N_7
REMARK    5  A    between atoms: C_14  and  C_15
REMARK                            x       y       z     vdW  Elec       q    Type
REMARK                         _______ _______ _______ _____ _____    ______ ____
ROOT
ATOM      1  N   UNL     1       1.923   8.820  17.806  0.00  0.00    +0.000 N 
ATOM      2  C   UNL     1       2.334   7.738  18.544  0.00  0.00    +0.000 A 
ATOM      3  C   UNL     1       1.951   7.509  20.001  0.00  0.00    +0.000 A 
ATOM      4  C   UNL     1       1.914   6.200  20.316  0.00  0.00    +0.000 A 
ATOM      5  C   UNL     1       2.971   5.406  19.812  0.00  0.00    +0.000 A 
ATOM      6  N   UNL     1       3.519   4.284  20.208  0.00  0.00    +0.000 NA
ATOM      7  N   UNL     1       4.447   3.930  19.261  0.00  0.00    +0.000 NA
ATOM      8  C   UNL     1       4.432   4.819  18.274  0.00  0.00    +0.000 A 
ATOM      9  N   UNL     1       3.509   5.802  18.605  0.00  0.00    +0.000 N 
ATOM     10  N   UNL     1       3.119   6.907  17.889  0.00  0.00    +0.000 NA
ATOM     11  H   UNL     1       2.289   8.773  16.860  0.00  0.00    +0.000 HD
ENDROOT
BRANCH   8  12
ATOM     12  C   UNL     1       5.249   4.718  17.054  0.00  0.00    +0.000 A 
ATOM     13  C   UNL     1       6.638   4.932  17.158  0.00  0.00    +0.000 A 
ATOM     14  C   UNL     1       7.480   4.842  16.044  0.00  0.00    +0.000 A 
ATOM     15  C   UNL     1       6.945   4.539  14.799  0.00  0.00    +0.000 A 
ATOM     16  C   UNL     1       5.577   4.329  14.684  0.00  0.00    +0.000 A 
ATOM     17  F   UNL     1       5.057   4.036  13.484  0.00  0.00    +0.000 F 
ATOM     18  C   UNL     1       4.731   4.418  15.789  0.00  0.00    +0.000 A 
ENDBRANCH   8  12
BRANCH   1  21
ATOM     19  N   UNL     1       0.893  12.011  18.906  0.00  0.00    +0.000 N 
ATOM     20  C   UNL     1       1.938  11.203  18.536  0.00  0.00    +0.000 A 
ATOM     21  C   UNL     1       1.384   9.981  18.238  0.00  0.00    +0.000 A 
ATOM     22  C   UNL     1       0.005  10.151  18.489  0.00  0.00    +0.000 A 
ATOM     23  N   UNL     1      -0.300  11.389  18.877  0.00  0.00    +0.000 NA
BRANCH  19  24
ATOM     24  C   UNL     1       0.955  13.417  19.265  0.00  0.00    +0.000 C 
BRANCH  24  26
ATOM     25  C   UNL     1       0.064  15.736  18.706  0.00  0.00    +0.000 C 
ATOM     26  C   UNL     1      -0.236  14.246  18.780  0.00  0.00    +0.000 C 
ENDBRANCH  24  26
ENDBRANCH  19  24
ENDBRANCH   1  21
TORSDOF 4
ENDMDL
