MODEL 1
REMARK VINA RESULT:      -8.8      0.000      0.000
REMARK  Name = 
REMARK  6 active torsions:
REMARK  status: ('A' for Active; 'I' for Inactive)
REMARK    1  A    between atoms: C_2  and  C_11
REMARK    2  A    between atoms: N_3  and  C_4
REMARK    3  A    between atoms: C_9  and  O_10
REMARK    4  A    between atoms: C_15  and  N_16
REMARK    5  A    between atoms: N_16  and  S_17
REMARK    6  A    between atoms: S_17  and  C_20
REMARK                            x       y       z     vdW  Elec       q    Type
REMARK                         _______ _______ _______ _____ _____    ______ ____
ROOT
ATOM      1  C   UNL     1       8.041   7.679  18.202  0.00  0.00    +0.000 A 
ATOM      2  C   UNL     1       8.275   6.879  19.332  0.00  0.00    +0.000 A 
ATOM      3  C   UNL     1       8.069   5.504  19.273  0.00  0.00    +0.000 A 
ATOM      4  C   UNL     1       7.630   4.928  18.084  0.00  0.00    +0.000 A 
ATOM      5  C   UNL     1       7.410   5.726  16.956  0.00  0.00    +0.000 A 
ATOM      6  C   UNL     1       7.628   7.102  17.000  0.00  0.00    +0.000 A 
ENDROOT
BRANCH   1   8
ATOM      7  O   UNL     1       7.715   9.872  17.590  0.00  0.00    +0.000 OA
ATOM      8  C   UNL     1       8.348   9.121  18.326  0.00  0.00    +0.000 C 
ATOM      9  N   UNL     1       9.349   9.476  19.208  0.00  0.00    +0.000 N 
ATOM     10  H   UNL     1       9.938   8.761  19.626  0.00  0.00    +0.000 HD
BRANCH   9  11
ATOM     11  C   UNL     1       9.801  10.804  19.424  0.00  0.00    +0.000 A 
ATOM     12  C   UNL     1      10.342  11.595  18.408  0.00  0.00    +0.000 A 
ATOM     13  C   UNL     1      10.812  12.880  18.675  0.00  0.00    +0.000 A 
ATOM     14  C   UNL     1      10.735  13.398  19.968  0.00  0.00    +0.000 A 
ATOM     15  C   UNL     1      10.177  12.631  20.989  0.00  0.00    +0.000 A 
ATOM     16  C   UNL     1       9.703  11.346  20.714  0.00  0.00    +0.000 A 
BRANCH  16  17
ATOM     17  O   UNL     1       9.145  10.584  21.708  0.00  0.00    +0.000 OA
ATOM     18  H   UNL     1       8.248  10.333  21.424  0.00  0.00    +0.000 HD
ENDBRANCH  16  17
ENDBRANCH   9  11
ENDBRANCH   1   8
BRANCH   5  19
ATOM     19  N   UNL     1       6.991   5.111  15.754  0.00  0.00    +0.000 N 
ATOM     20  H   UNL     1       7.674   4.747  15.092  0.00  0.00    +0.000 HD
BRANCH  19  21
ATOM     21  S   UNL     1       5.414   5.273  15.214  0.00  0.00    +0.000 S 
ATOM     22  O   UNL     1       5.204   6.685  14.980  0.00  0.00    +0.000 OA
ATOM     23  O   UNL     1       5.149   4.290  14.186  0.00  0.00    +0.000 OA
BRANCH  21  24
ATOM     24  C   UNL     1       4.459   4.830  16.651  0.00  0.00    +0.000 A 
ATOM     25  C   UNL     1       3.901   5.829  17.454  0.00  0.00    +0.000 A 
ATOM     26  C   UNL     1       3.171   5.470  18.590  0.00  0.00    +0.000 A 
ATOM     27  C   UNL     1       3.019   4.122  18.935  0.00  0.00    +0.000 A 
ATOM     28 CL   UNL     1       2.107   3.752  20.355  0.00  0.00    +0.000 Cl
ATOM     29  C   UNL     1       3.604   3.127  18.139  0.00  0.00    +0.000 A 
ATOM     30 CL   UNL     1       3.470   1.447  18.514  0.00  0.00    +0.000 Cl
ATOM     31  C   UNL     1       4.328   3.481  16.997  0.00  0.00    +0.000 A 
ENDBRANCH  21  24
ENDBRANCH  19  21
ENDBRANCH   5  19
TORSDOF 6
ENDMDL
MODEL 2
REMARK VINA RESULT:      -8.6      0.636      1.408
REMARK  Name = 
REMARK  6 active torsions:
REMARK  status: ('A' for Active; 'I' for Inactive)
REMARK    1  A    between atoms: C_2  and  C_11
REMARK    2  A    between atoms: N_3  and  C_4
REMARK    3  A    between atoms: C_9  and  O_10
REMARK    4  A    between atoms: C_15  and  N_16
REMARK    5  A    between atoms: N_16  and  S_17
REMARK    6  A    between atoms: S_17  and  C_20
REMARK                            x       y       z     vdW  Elec       q    Type
REMARK                         _______ _______ _______ _____ _____    ______ ____
ROOT
ATOM      1  C   UNL     1       8.055   7.677  18.211  0.00  0.00    +0.000 A 
ATOM      2  C   UNL     1       8.303   6.882  19.342  0.00  0.00    +0.000 A 
ATOM      3  C   UNL     1       8.097   5.508  19.293  0.00  0.00    +0.000 A 
ATOM      4  C   UNL     1       7.644   4.925  18.113  0.00  0.00    +0.000 A 
ATOM      5  C   UNL     1       7.410   5.717  16.983  0.00  0.00    +0.000 A 
ATOM      6  C   UNL     1       7.627   7.094  17.017  0.00  0.00    +0.000 A 
ENDROOT
BRANCH   1   8
ATOM      7  O   UNL     1       7.778   9.858  17.537  0.00  0.00    +0.000 OA
ATOM      8  C   UNL     1       8.362   9.119  18.325  0.00  0.00    +0.000 C 
ATOM      9  N   UNL     1       9.312   9.487  19.257  0.00  0.00    +0.000 N 
ATOM     10  H   UNL     1       9.870   8.779  19.723  0.00  0.00    +0.000 HD
BRANCH   9  11
ATOM     11  C   UNL     1       9.758  10.817  19.472  0.00  0.00    +0.000 A 
ATOM     12  C   UNL     1      10.270  11.620  18.451  0.00  0.00    +0.000 A 
ATOM     13  C   UNL     1      10.735  12.907  18.716  0.00  0.00    +0.000 A 
ATOM     14  C   UNL     1      10.684  13.415  20.015  0.00  0.00    +0.000 A 
ATOM     15  C   UNL     1      10.154  12.637  21.042  0.00  0.00    +0.000 A 
ATOM     16  C   UNL     1       9.684  11.350  20.769  0.00  0.00    +0.000 A 
BRANCH  16  17
ATOM     17  O   UNL     1       9.154  10.576  21.769  0.00  0.00    +0.000 OA
ATOM     18  H   UNL     1       8.513  11.121  22.259  0.00  0.00    +0.000 HD
ENDBRANCH  16  17
ENDBRANCH   9  11
ENDBRANCH   1   8
BRANCH   5  19
ATOM     19  N   UNL     1       6.977   5.096  15.789  0.00  0.00    +0.000 N 
ATOM     20  H   UNL     1       7.652   4.721  15.125  0.00  0.00    +0.000 HD
BRANCH  19  21
ATOM     21  S   UNL     1       5.397   5.264  15.261  0.00  0.00    +0.000 S 
ATOM     22  O   UNL     1       5.200   6.673  14.999  0.00  0.00    +0.000 OA
ATOM     23  O   UNL     1       5.111   4.263  14.256  0.00  0.00    +0.000 OA
BRANCH  21  24
ATOM     24  C   UNL     1       4.451   4.863  16.716  0.00  0.00    +0.000 A 
ATOM     25  C   UNL     1       4.233   3.526  17.062  0.00  0.00    +0.000 A 
ATOM     26  C   UNL     1       3.473   3.223  18.194  0.00  0.00    +0.000 A 
ATOM     27  C   UNL     1       2.914   4.250  18.964  0.00  0.00    +0.000 A 
ATOM     28 CL   UNL     1       1.982   3.802  20.349  0.00  0.00    +0.000 Cl
ATOM     29  C   UNL     1       3.116   5.588  18.597  0.00  0.00    +0.000 A 
ATOM     30 CL   UNL     1       2.443   6.903  19.491  0.00  0.00    +0.000 Cl
ATOM     31  C   UNL     1       3.883   5.896  17.470  0.00  0.00    +0.000 A 
ENDBRANCH  21  24
ENDBRANCH  19  21
ENDBRANCH   5  19
TORSDOF 6
ENDMDL
MODEL 3
REMARK VINA RESULT:      -8.4      1.035      1.891
REMARK  Name = 
REMARK  6 active torsions:
REMARK  status: ('A' for Active; 'I' for Inactive)
REMARK    1  A    between atoms: C_2  and  C_11
REMARK    2  A    between atoms: N_3  and  C_4
REMARK    3  A    between atoms: C_9  and  O_10
REMARK    4  A    between atoms: C_15  and  N_16
REMARK    5  A    between atoms: N_16  and  S_17
REMARK    6  A    between atoms: S_17  and  C_20
REMARK                            x       y       z     vdW  Elec       q    Type
REMARK                         _______ _______ _______ _____ _____    ______ ____
ROOT
ATOM      1  C   UNL     1       8.092   7.875  18.226  0.00  0.00    +0.000 A 
ATOM      2  C   UNL     1       8.311   7.032  19.328  0.00  0.00    +0.000 A 
ATOM      3  C   UNL     1       8.088   5.663  19.219  0.00  0.00    +0.000 A 
ATOM      4  C   UNL     1       7.647   5.135  18.009  0.00  0.00    +0.000 A 
ATOM      5  C   UNL     1       7.442   5.975  16.909  0.00  0.00    +0.000 A 
ATOM      6  C   UNL     1       7.677   7.346  17.002  0.00  0.00    +0.000 A 
ENDROOT
BRANCH   1   8
ATOM      7  O   UNL     1       7.845  10.086  17.646  0.00  0.00    +0.000 OA
ATOM      8  C   UNL     1       8.416   9.307  18.403  0.00  0.00    +0.000 C 
ATOM      9  N   UNL     1       9.366   9.623  19.354  0.00  0.00    +0.000 N 
ATOM     10  H   UNL     1       9.914   8.888  19.791  0.00  0.00    +0.000 HD
BRANCH   9  11
ATOM     11  C   UNL     1       9.827  10.937  19.628  0.00  0.00    +0.000 A 
ATOM     12  C   UNL     1       9.599  11.581  20.846  0.00  0.00    +0.000 A 
ATOM     13  C   UNL     1      10.035  12.889  21.057  0.00  0.00    +0.000 A 
ATOM     14  C   UNL     1      10.720  13.568  20.049  0.00  0.00    +0.000 A 
ATOM     15  C   UNL     1      10.977  12.932  18.836  0.00  0.00    +0.000 A 
ATOM     16  C   UNL     1      10.543  11.620  18.633  0.00  0.00    +0.000 A 
BRANCH  16  17
ATOM     17  O   UNL     1      10.796  10.980  17.447  0.00  0.00    +0.000 OA
ATOM     18  H   UNL     1      11.079  10.072  17.653  0.00  0.00    +0.000 HD
ENDBRANCH  16  17
ENDBRANCH   9  11
ENDBRANCH   1   8
BRANCH   5  19
ATOM     19  N   UNL     1       7.022   5.408  15.684  0.00  0.00    +0.000 N 
ATOM     20  H   UNL     1       7.701   5.158  14.967  0.00  0.00    +0.000 HD
BRANCH  19  21
ATOM     21  S   UNL     1       5.411   5.455  15.228  0.00  0.00    +0.000 S 
ATOM     22  O   UNL     1       5.095   6.846  14.982  0.00  0.00    +0.000 OA
ATOM     23  O   UNL     1       5.158   4.437  14.232  0.00  0.00    +0.000 OA
BRANCH  21  24
ATOM     24  C   UNL     1       4.565   4.980  16.722  0.00  0.00    +0.000 A 
ATOM     25  C   UNL     1       4.468   3.630  17.071  0.00  0.00    +0.000 A 
ATOM     26  C   UNL     1       3.785   3.267  18.234  0.00  0.00    +0.000 A 
ATOM     27  C   UNL     1       3.183   4.247  19.033  0.00  0.00    +0.000 A 
ATOM     28 CL   UNL     1       2.351   3.726  20.456  0.00  0.00    +0.000 Cl
ATOM     29  C   UNL     1       3.263   5.597  18.663  0.00  0.00    +0.000 A 
ATOM     30 CL   UNL     1       2.530   6.854  19.593  0.00  0.00    +0.000 Cl
ATOM     31  C   UNL     1       3.952   5.965  17.505  0.00  0.00    +0.000 A 
ENDBRANCH  21  24
ENDBRANCH  19  21
ENDBRANCH   5  19
TORSDOF 6
ENDMDL
MODEL 4
REMARK VINA RESULT:      -8.2      6.446      8.030
REMARK  Name = 
REMARK  6 active torsions:
REMARK  status: ('A' for Active; 'I' for Inactive)
REMARK    1  A    between atoms: C_2  and  C_11
REMARK    2  A    between atoms: N_3  and  C_4
REMARK    3  A    between atoms: C_9  and  O_10
REMARK    4  A    between atoms: C_15  and  N_16
REMARK    5  A    between atoms: N_16  and  S_17
REMARK    6  A    between atoms: S_17  and  C_20
REMARK                            x       y       z     vdW  Elec       q    Type
REMARK                         _______ _______ _______ _____ _____    ______ ____
ROOT
ATOM      1  C   UNL     1       0.857   9.378  19.727  0.00  0.00    +0.000 A 
ATOM      2  C   UNL     1       1.250   9.590  18.395  0.00  0.00    +0.000 A 
ATOM      3  C   UNL     1       2.114   8.698  17.769  0.00  0.00    +0.000 A 
ATOM      4  C   UNL     1       2.587   7.594  18.472  0.00  0.00    +0.000 A 
ATOM      5  C   UNL     1       2.184   7.377  19.794  0.00  0.00    +0.000 A 
ATOM      6  C   UNL     1       1.306   8.257  20.427  0.00  0.00    +0.000 A 
ENDROOT
BRANCH   1   8
ATOM      7  O   UNL     1      -1.067  10.630  19.581  0.00  0.00    +0.000 OA
ATOM      8  C   UNL     1      -0.115  10.334  20.299  0.00  0.00    +0.000 C 
ATOM      9  N   UNL     1       0.167  10.844  21.551  0.00  0.00    +0.000 N 
ATOM     10  H   UNL     1       1.075  10.679  21.975  0.00  0.00    +0.000 HD
BRANCH   9  11
ATOM     11  C   UNL     1      -0.631  11.800  22.232  0.00  0.00    +0.000 A 
ATOM     12  C   UNL     1      -1.804  11.462  22.910  0.00  0.00    +0.000 A 
ATOM     13  C   UNL     1      -2.580  12.440  23.531  0.00  0.00    +0.000 A 
ATOM     14  C   UNL     1      -2.182  13.777  23.490  0.00  0.00    +0.000 A 
ATOM     15  C   UNL     1      -1.002  14.129  22.838  0.00  0.00    +0.000 A 
ATOM     16  C   UNL     1      -0.226  13.143  22.223  0.00  0.00    +0.000 A 
BRANCH  16  17
ATOM     17  O   UNL     1       0.940  13.476  21.584  0.00  0.00    +0.000 OA
ATOM     18  H   UNL     1       1.558  13.822  22.252  0.00  0.00    +0.000 HD
ENDBRANCH  16  17
ENDBRANCH   9  11
ENDBRANCH   1   8
BRANCH   5  19
ATOM     19  N   UNL     1       2.656   6.233  20.476  0.00  0.00    +0.000 N 
ATOM     20  H   UNL     1       3.277   6.325  21.278  0.00  0.00    +0.000 HD
BRANCH  19  21
ATOM     21  S   UNL     1       2.508   4.710  19.795  0.00  0.00    +0.000 S 
ATOM     22  O   UNL     1       2.817   3.760  20.842  0.00  0.00    +0.000 OA
ATOM     23  O   UNL     1       1.274   4.630  19.044  0.00  0.00    +0.000 OA
BRANCH  21  24
ATOM     24  C   UNL     1       3.858   4.667  18.632  0.00  0.00    +0.000 A 
ATOM     25  C   UNL     1       3.650   4.185  17.337  0.00  0.00    +0.000 A 
ATOM     26  C   UNL     1       4.720   4.137  16.440  0.00  0.00    +0.000 A 
ATOM     27  C   UNL     1       5.997   4.547  16.843  0.00  0.00    +0.000 A 
ATOM     28 CL   UNL     1       7.274   4.456  15.683  0.00  0.00    +0.000 Cl
ATOM     29  C   UNL     1       6.203   5.004  18.152  0.00  0.00    +0.000 A 
ATOM     30 CL   UNL     1       7.754   5.509  18.720  0.00  0.00    +0.000 Cl
ATOM     31  C   UNL     1       5.134   5.062  19.050  0.00  0.00    +0.000 A 
ENDBRANCH  21  24
ENDBRANCH  19  21
ENDBRANCH   5  19
TORSDOF 6
ENDMDL
MODEL 5
REMARK VINA RESULT:      -8.1      6.425      7.912
REMARK  Name = 
REMARK  6 active torsions:
REMARK  status: ('A' for Active; 'I' for Inactive)
REMARK    1  A    between atoms: C_2  and  C_11
REMARK    2  A    between atoms: N_3  and  C_4
REMARK    3  A    between atoms: C_9  and  O_10
REMARK    4  A    between atoms: C_15  and  N_16
REMARK    5  A    between atoms: N_16  and  S_17
REMARK    6  A    between atoms: S_17  and  C_20
REMARK                            x       y       z     vdW  Elec       q    Type
REMARK                         _______ _______ _______ _____ _____    ______ ____
ROOT
ATOM      1  C   UNL     1       1.017   9.230  19.609  0.00  0.00    +0.000 A 
ATOM      2  C   UNL     1       1.447   9.412  18.285  0.00  0.00    +0.000 A 
ATOM      3  C   UNL     1       2.306   8.492  17.694  0.00  0.00    +0.000 A 
ATOM      4  C   UNL     1       2.736   7.389  18.425  0.00  0.00    +0.000 A 
ATOM      5  C   UNL     1       2.296   7.202  19.739  0.00  0.00    +0.000 A 
ATOM      6  C   UNL     1       1.423   8.110  20.337  0.00  0.00    +0.000 A 
ENDROOT
BRANCH   1   8
ATOM      7  O   UNL     1      -0.965  10.390  19.476  0.00  0.00    +0.000 OA
ATOM      8  C   UNL     1       0.052  10.216  20.142  0.00  0.00    +0.000 C 
ATOM      9  N   UNL     1       0.410  10.885  21.296  0.00  0.00    +0.000 N 
ATOM     10  H   UNL     1       1.355  10.803  21.660  0.00  0.00    +0.000 HD
BRANCH   9  11
ATOM     11  C   UNL     1      -0.372  11.889  21.923  0.00  0.00    +0.000 A 
ATOM     12  C   UNL     1      -0.321  13.234  21.549  0.00  0.00    +0.000 A 
ATOM     13  C   UNL     1      -1.077  14.194  22.220  0.00  0.00    +0.000 A 
ATOM     14  C   UNL     1      -1.908  13.816  23.275  0.00  0.00    +0.000 A 
ATOM     15  C   UNL     1      -1.990  12.475  23.646  0.00  0.00    +0.000 A 
ATOM     16  C   UNL     1      -1.235  11.517  22.965  0.00  0.00    +0.000 A 
BRANCH  16  17
ATOM     17  O   UNL     1      -1.311  10.194  23.316  0.00  0.00    +0.000 OA
ATOM     18  H   UNL     1      -2.085   9.811  22.866  0.00  0.00    +0.000 HD
ENDBRANCH  16  17
ENDBRANCH   9  11
ENDBRANCH   1   8
BRANCH   5  19
ATOM     19  N   UNL     1       2.725   6.057  20.449  0.00  0.00    +0.000 N 
ATOM     20  H   UNL     1       3.304   6.150  21.282  0.00  0.00    +0.000 HD
BRANCH  19  21
ATOM     21  S   UNL     1       2.604   4.532  19.768  0.00  0.00    +0.000 S 
ATOM     22  O   UNL     1       2.962   3.590  20.805  0.00  0.00    +0.000 OA
ATOM     23  O   UNL     1       1.356   4.420  19.045  0.00  0.00    +0.000 OA
BRANCH  21  24
ATOM     24  C   UNL     1       3.928   4.529  18.576  0.00  0.00    +0.000 A 
ATOM     25  C   UNL     1       3.692   4.091  17.269  0.00  0.00    +0.000 A 
ATOM     26  C   UNL     1       4.742   4.074  16.349  0.00  0.00    +0.000 A 
ATOM     27  C   UNL     1       6.027   4.470  16.737  0.00  0.00    +0.000 A 
ATOM     28 CL   UNL     1       7.279   4.420  15.547  0.00  0.00    +0.000 Cl
ATOM     29  C   UNL     1       6.262   4.884  18.055  0.00  0.00    +0.000 A 
ATOM     30 CL   UNL     1       7.825   5.370  18.606  0.00  0.00    +0.000 Cl
ATOM     31  C   UNL     1       5.213   4.911  18.978  0.00  0.00    +0.000 A 
ENDBRANCH  21  24
ENDBRANCH  19  21
ENDBRANCH   5  19
TORSDOF 6
ENDMDL
MODEL 6
REMARK VINA RESULT:      -7.8      6.447      8.021
REMARK  Name = 
REMARK  6 active torsions:
REMARK  status: ('A' for Active; 'I' for Inactive)
REMARK    1  A    between atoms: C_2  and  C_11
REMARK    2  A    between atoms: N_3  and  C_4
REMARK    3  A    between atoms: C_9  and  O_10
REMARK    4  A    between atoms: C_15  and  N_16
REMARK    5  A    between atoms: N_16  and  S_17
REMARK    6  A    between atoms: S_17  and  C_20
REMARK                            x       y       z     vdW  Elec       q    Type
REMARK                         _______ _______ _______ _____ _____    ______ ____
ROOT
ATOM      1  C   UNL     1       0.986   9.157  19.970  0.00  0.00    +0.000 A 
ATOM      2  C   UNL     1       1.256   9.398  18.613  0.00  0.00    +0.000 A 
ATOM      3  C   UNL     1       2.035   8.506  17.884  0.00  0.00    +0.000 A 
ATOM      4  C   UNL     1       2.543   7.371  18.509  0.00  0.00    +0.000 A 
ATOM      5  C   UNL     1       2.262   7.125  19.857  0.00  0.00    +0.000 A 
ATOM      6  C   UNL     1       1.470   8.005  20.594  0.00  0.00    +0.000 A 
ENDROOT
BRANCH   1   8
ATOM      7  O   UNL     1      -0.402   9.731  21.711  0.00  0.00    +0.000 OA
ATOM      8  C   UNL     1       0.096  10.117  20.657  0.00  0.00    +0.000 C 
ATOM      9  N   UNL     1      -0.135  11.322  20.025  0.00  0.00    +0.000 N 
ATOM     10  H   UNL     1       0.175  11.464  19.068  0.00  0.00    +0.000 HD
BRANCH   9  11
ATOM     11  C   UNL     1      -0.990  12.342  20.518  0.00  0.00    +0.000 A 
ATOM     12  C   UNL     1      -2.352  12.401  20.216  0.00  0.00    +0.000 A 
ATOM     13  C   UNL     1      -3.147  13.444  20.689  0.00  0.00    +0.000 A 
ATOM     14  C   UNL     1      -2.586  14.444  21.485  0.00  0.00    +0.000 A 
ATOM     15  C   UNL     1      -1.234  14.388  21.817  0.00  0.00    +0.000 A 
ATOM     16  C   UNL     1      -0.444  13.336  21.344  0.00  0.00    +0.000 A 
BRANCH  16  17
ATOM     17  O   UNL     1       0.886  13.266  21.669  0.00  0.00    +0.000 OA
ATOM     18  H   UNL     1       1.323  12.692  21.015  0.00  0.00    +0.000 HD
ENDBRANCH  16  17
ENDBRANCH   9  11
ENDBRANCH   1   8
BRANCH   5  19
ATOM     19  N   UNL     1       2.766   5.950  20.459  0.00  0.00    +0.000 N 
ATOM     20  H   UNL     1       3.405   6.005  21.251  0.00  0.00    +0.000 HD
BRANCH  19  21
ATOM     21  S   UNL     1       2.625   4.467  19.693  0.00  0.00    +0.000 S 
ATOM     22  O   UNL     1       2.974   3.464  20.675  0.00  0.00    +0.000 OA
ATOM     23  O   UNL     1       1.374   4.411  18.968  0.00  0.00    +0.000 OA
BRANCH  21  24
ATOM     24  C   UNL     1       3.947   4.515  18.498  0.00  0.00    +0.000 A 
ATOM     25  C   UNL     1       3.723   4.074  17.191  0.00  0.00    +0.000 A 
ATOM     26  C   UNL     1       4.771   4.097  16.268  0.00  0.00    +0.000 A 
ATOM     27  C   UNL     1       6.043   4.537  16.656  0.00  0.00    +0.000 A 
ATOM     28 CL   UNL     1       7.294   4.535  15.463  0.00  0.00    +0.000 Cl
ATOM     29  C   UNL     1       6.266   4.954  17.976  0.00  0.00    +0.000 A 
ATOM     30 CL   UNL     1       7.811   5.493  18.525  0.00  0.00    +0.000 Cl
ATOM     31  C   UNL     1       5.217   4.941  18.900  0.00  0.00    +0.000 A 
ENDBRANCH  21  24
ENDBRANCH  19  21
ENDBRANCH   5  19
TORSDOF 6
ENDMDL
MODEL 7
REMARK VINA RESULT:      -7.8      6.546      8.358
REMARK  Name = 
REMARK  6 active torsions:
REMARK  status: ('A' for Active; 'I' for Inactive)
REMARK    1  A    between atoms: C_2  and  C_11
REMARK    2  A    between atoms: N_3  and  C_4
REMARK    3  A    between atoms: C_9  and  O_10
REMARK    4  A    between atoms: C_15  and  N_16
REMARK    5  A    between atoms: N_16  and  S_17
REMARK    6  A    between atoms: S_17  and  C_20
REMARK                            x       y       z     vdW  Elec       q    Type
REMARK                         _______ _______ _______ _____ _____    ______ ____
ROOT
ATOM      1  C   UNL     1       0.925   9.071  20.176  0.00  0.00    +0.000 A 
ATOM      2  C   UNL     1       1.192   9.387  18.834  0.00  0.00    +0.000 A 
ATOM      3  C   UNL     1       1.994   8.552  18.062  0.00  0.00    +0.000 A 
ATOM      4  C   UNL     1       2.528   7.399  18.631  0.00  0.00    +0.000 A 
ATOM      5  C   UNL     1       2.251   7.079  19.964  0.00  0.00    +0.000 A 
ATOM      6  C   UNL     1       1.437   7.901  20.742  0.00  0.00    +0.000 A 
ENDROOT
BRANCH   1   8
ATOM      7  O   UNL     1      -0.386   9.570  21.998  0.00  0.00    +0.000 OA
ATOM      8  C   UNL     1       0.011   9.973  20.908  0.00  0.00    +0.000 C 
ATOM      9  N   UNL     1      -0.353  11.146  20.276  0.00  0.00    +0.000 N 
ATOM     10  H   UNL     1      -0.119  11.292  19.299  0.00  0.00    +0.000 HD
BRANCH   9  11
ATOM     11  C   UNL     1      -1.250  12.106  20.812  0.00  0.00    +0.000 A 
ATOM     12  C   UNL     1      -1.004  12.792  22.003  0.00  0.00    +0.000 A 
ATOM     13  C   UNL     1      -1.934  13.697  22.514  0.00  0.00    +0.000 A 
ATOM     14  C   UNL     1      -3.124  13.938  21.828  0.00  0.00    +0.000 A 
ATOM     15  C   UNL     1      -3.376  13.280  20.625  0.00  0.00    +0.000 A 
ATOM     16  C   UNL     1      -2.438  12.379  20.116  0.00  0.00    +0.000 A 
BRANCH  16  17
ATOM     17  O   UNL     1      -2.670  11.730  18.930  0.00  0.00    +0.000 OA
ATOM     18  H   UNL     1      -1.849  11.275  18.673  0.00  0.00    +0.000 HD
ENDBRANCH  16  17
ENDBRANCH   9  11
ENDBRANCH   1   8
BRANCH   5  19
ATOM     19  N   UNL     1       2.783   5.888  20.508  0.00  0.00    +0.000 N 
ATOM     20  H   UNL     1       3.452   5.921  21.275  0.00  0.00    +0.000 HD
BRANCH  19  21
ATOM     21  S   UNL     1       2.617   4.430  19.701  0.00  0.00    +0.000 S 
ATOM     22  O   UNL     1       2.956   3.394  20.652  0.00  0.00    +0.000 OA
ATOM     23  O   UNL     1       1.361   4.412  18.982  0.00  0.00    +0.000 OA
BRANCH  21  24
ATOM     24  C   UNL     1       3.932   4.492  18.500  0.00  0.00    +0.000 A 
ATOM     25  C   UNL     1       3.689   4.113  17.177  0.00  0.00    +0.000 A 
ATOM     26  C   UNL     1       4.732   4.147  16.249  0.00  0.00    +0.000 A 
ATOM     27  C   UNL     1       6.018   4.536  16.646  0.00  0.00    +0.000 A 
ATOM     28 CL   UNL     1       7.261   4.551  15.446  0.00  0.00    +0.000 Cl
ATOM     29  C   UNL     1       6.259   4.889  17.981  0.00  0.00    +0.000 A 
ATOM     30 CL   UNL     1       7.822   5.362  18.543  0.00  0.00    +0.000 Cl
ATOM     31  C   UNL     1       5.216   4.865  18.911  0.00  0.00    +0.000 A 
ENDBRANCH  21  24
ENDBRANCH  19  21
ENDBRANCH   5  19
TORSDOF 6
ENDMDL
MODEL 8
REMARK VINA RESULT:      -7.8      6.262      8.095
REMARK  Name = 
REMARK  6 active torsions:
REMARK  status: ('A' for Active; 'I' for Inactive)
REMARK    1  A    between atoms: C_2  and  C_11
REMARK    2  A    between atoms: N_3  and  C_4
REMARK    3  A    between atoms: C_9  and  O_10
REMARK    4  A    between atoms: C_15  and  N_16
REMARK    5  A    between atoms: N_16  and  S_17
REMARK    6  A    between atoms: S_17  and  C_20
REMARK                            x       y       z     vdW  Elec       q    Type
REMARK                         _______ _______ _______ _____ _____    ______ ____
ROOT
ATOM      1  C   UNL     1       1.023   8.447  20.247  0.00  0.00    +0.000 A 
ATOM      2  C   UNL     1       1.438   8.929  18.995  0.00  0.00    +0.000 A 
ATOM      3  C   UNL     1       2.376   8.224  18.247  0.00  0.00    +0.000 A 
ATOM      4  C   UNL     1       2.899   7.036  18.750  0.00  0.00    +0.000 A 
ATOM      5  C   UNL     1       2.475   6.551  19.992  0.00  0.00    +0.000 A 
ATOM      6  C   UNL     1       1.525   7.242  20.743  0.00  0.00    +0.000 A 
ENDROOT
BRANCH   1   8
ATOM      7  O   UNL     1      -0.764   8.576  21.689  0.00  0.00    +0.000 OA
ATOM      8  C   UNL     1      -0.025   9.219  20.949  0.00  0.00    +0.000 C 
ATOM      9  N   UNL     1      -0.110  10.567  20.662  0.00  0.00    +0.000 N 
ATOM     10  H   UNL     1       0.426  10.960  19.894  0.00  0.00    +0.000 HD
BRANCH   9  11
ATOM     11  C   UNL     1      -1.077  11.449  21.210  0.00  0.00    +0.000 A 
ATOM     12  C   UNL     1      -1.973  12.175  20.422  0.00  0.00    +0.000 A 
ATOM     13  C   UNL     1      -2.880  13.062  21.001  0.00  0.00    +0.000 A 
ATOM     14  C   UNL     1      -2.908  13.227  22.386  0.00  0.00    +0.000 A 
ATOM     15  C   UNL     1      -2.037  12.493  23.190  0.00  0.00    +0.000 A 
ATOM     16  C   UNL     1      -1.135  11.602  22.604  0.00  0.00    +0.000 A 
BRANCH  16  17
ATOM     17  O   UNL     1      -0.278  10.869  23.383  0.00  0.00    +0.000 OA
ATOM     18  H   UNL     1      -0.767  10.096  23.718  0.00  0.00    +0.000 HD
ENDBRANCH  16  17
ENDBRANCH   9  11
ENDBRANCH   1   8
BRANCH   5  19
ATOM     19  N   UNL     1       3.002   5.328  20.465  0.00  0.00    +0.000 N 
ATOM     20  H   UNL     1       3.657   5.312  21.245  0.00  0.00    +0.000 HD
BRANCH  19  21
ATOM     21  S   UNL     1       2.854   3.925  19.562  0.00  0.00    +0.000 S 
ATOM     22  O   UNL     1       3.282   2.840  20.417  0.00  0.00    +0.000 OA
ATOM     23  O   UNL     1       1.566   3.904  18.904  0.00  0.00    +0.000 OA
BRANCH  21  24
ATOM     24  C   UNL     1       4.104   4.132  18.309  0.00  0.00    +0.000 A 
ATOM     25  C   UNL     1       3.783   3.936  16.963  0.00  0.00    +0.000 A 
ATOM     26  C   UNL     1       4.776   4.081  15.991  0.00  0.00    +0.000 A 
ATOM     27  C   UNL     1       6.088   4.397  16.364  0.00  0.00    +0.000 A 
ATOM     28 CL   UNL     1       7.265   4.556  15.109  0.00  0.00    +0.000 Cl
ATOM     29  C   UNL     1       6.408   4.566  17.718  0.00  0.00    +0.000 A 
ATOM     30 CL   UNL     1       8.008   4.940  18.250  0.00  0.00    +0.000 Cl
ATOM     31  C   UNL     1       5.416   4.430  18.693  0.00  0.00    +0.000 A 
ENDBRANCH  21  24
ENDBRANCH  19  21
ENDBRANCH   5  19
TORSDOF 6
ENDMDL
MODEL 9
REMARK VINA RESULT:      -7.7      2.649      3.125
REMARK  Name = 
REMARK  6 active torsions:
REMARK  status: ('A' for Active; 'I' for Inactive)
REMARK    1  A    between atoms: C_2  and  C_11
REMARK    2  A    between atoms: N_3  and  C_4
REMARK    3  A    between atoms: C_9  and  O_10
REMARK    4  A    between atoms: C_15  and  N_16
REMARK    5  A    between atoms: N_16  and  S_17
REMARK    6  A    between atoms: S_17  and  C_20
REMARK                            x       y       z     vdW  Elec       q    Type
REMARK                         _______ _______ _______ _____ _____    ______ ____
ROOT
ATOM      1  C   UNL     1       7.472   7.402  18.120  0.00  0.00    +0.000 A 
ATOM      2  C   UNL     1       8.293   6.444  18.737  0.00  0.00    +0.000 A 
ATOM      3  C   UNL     1       7.901   5.110  18.783  0.00  0.00    +0.000 A 
ATOM      4  C   UNL     1       6.689   4.732  18.213  0.00  0.00    +0.000 A 
ATOM      5  C   UNL     1       5.879   5.686  17.588  0.00  0.00    +0.000 A 
ATOM      6  C   UNL     1       6.269   7.023  17.522  0.00  0.00    +0.000 A 
ENDROOT
BRANCH   1   8
ATOM      7  O   UNL     1       7.582   9.470  17.120  0.00  0.00    +0.000 OA
ATOM      8  C   UNL     1       7.990   8.786  18.054  0.00  0.00    +0.000 C 
ATOM      9  N   UNL     1       8.920   9.154  19.005  0.00  0.00    +0.000 N 
ATOM     10  H   UNL     1       9.330   8.453  19.616  0.00  0.00    +0.000 HD
BRANCH   9  11
ATOM     11  C   UNL     1       9.551  10.424  19.068  0.00  0.00    +0.000 A 
ATOM     12  C   UNL     1      10.042  11.084  17.939  0.00  0.00    +0.000 A 
ATOM     13  C   UNL     1      10.692  12.312  18.052  0.00  0.00    +0.000 A 
ATOM     14  C   UNL     1      10.851  12.904  19.305  0.00  0.00    +0.000 A 
ATOM     15  C   UNL     1      10.348  12.272  20.440  0.00  0.00    +0.000 A 
ATOM     16  C   UNL     1       9.692  11.044  20.319  0.00  0.00    +0.000 A 
BRANCH  16  17
ATOM     17  O   UNL     1       9.186  10.414  21.427  0.00  0.00    +0.000 OA
ATOM     18  H   UNL     1       8.713  11.080  21.958  0.00  0.00    +0.000 HD
ENDBRANCH  16  17
ENDBRANCH   9  11
ENDBRANCH   1   8
BRANCH   5  19
ATOM     19  N   UNL     1       4.667   5.270  16.991  0.00  0.00    +0.000 N 
ATOM     20  H   UNL     1       4.422   5.569  16.049  0.00  0.00    +0.000 HD
BRANCH  19  21
ATOM     21  S   UNL     1       3.451   4.581  17.914  0.00  0.00    +0.000 S 
ATOM     22  O   UNL     1       2.454   4.096  16.985  0.00  0.00    +0.000 OA
ATOM     23  O   UNL     1       4.033   3.714  18.916  0.00  0.00    +0.000 OA
BRANCH  21  24
ATOM     24  C   UNL     1       2.748   5.988  18.752  0.00  0.00    +0.000 A 
ATOM     25  C   UNL     1       2.271   5.857  20.059  0.00  0.00    +0.000 A 
ATOM     26  C   UNL     1       1.703   6.962  20.698  0.00  0.00    +0.000 A 
ATOM     27  C   UNL     1       1.593   8.186  20.027  0.00  0.00    +0.000 A 
ATOM     28 CL   UNL     1       0.877   9.509  20.878  0.00  0.00    +0.000 Cl
ATOM     29  C   UNL     1       2.051   8.302  18.707  0.00  0.00    +0.000 A 
ATOM     30 CL   UNL     1       1.931   9.776  17.815  0.00  0.00    +0.000 Cl
ATOM     31  C   UNL     1       2.627   7.202  18.067  0.00  0.00    +0.000 A 
ENDBRANCH  21  24
ENDBRANCH  19  21
ENDBRANCH   5  19
TORSDOF 6
ENDMDL
