MODEL 1
REMARK VINA RESULT:      -9.0      0.000      0.000
REMARK  Name = 
REMARK  3 active torsions:
REMARK  status: ('A' for Active; 'I' for Inactive)
REMARK    1  A    between atoms: C_2  and  C_20
REMARK    2  A    between atoms: N_3  and  C_4
REMARK    3  A    between atoms: C_7  and  C_8
REMARK                            x       y       z     vdW  Elec       q    Type
REMARK                         _______ _______ _______ _____ _____    ______ ____
ROOT
ATOM      1  C   UNL     1       0.470   9.663  20.000  0.00  0.00    +0.000 A 
ATOM      2  C   UNL     1       0.904   9.830  18.683  0.00  0.00    +0.000 A 
ATOM      3  C   UNL     1       1.793   8.923  18.103  0.00  0.00    +0.000 A 
ATOM      4  C   UNL     1       2.278   7.834  18.832  0.00  0.00    +0.000 A 
ATOM      5  C   UNL     1       1.929   7.736  20.184  0.00  0.00    +0.000 A 
ATOM      6  C   UNL     1       1.026   8.636  20.764  0.00  0.00    +0.000 A 
ENDROOT
BRANCH   4   7
ATOM      7  C   UNL     1       3.125   6.850  18.149  0.00  0.00    +0.000 A 
ATOM      8  N   UNL     1       4.152   7.152  17.374  0.00  0.00    +0.000 NA
ATOM      9  N   UNL     1       4.699   5.992  16.894  0.00  0.00    +0.000 NA
ATOM     10  C   UNL     1       3.987   4.983  17.348  0.00  0.00    +0.000 A 
ATOM     11  N   UNL     1       2.955   5.479  18.111  0.00  0.00    +0.000 N 
ATOM     12  C   UNL     1       1.877   4.723  18.716  0.00  0.00    +0.000 C 
ATOM     13  C   UNL     1       1.385   3.533  17.902  0.00  0.00    +0.000 C 
ATOM     14  C   UNL     1       2.272   2.295  18.020  0.00  0.00    +0.000 C 
ATOM     15  C   UNL     1       3.774   2.566  18.090  0.00  0.00    +0.000 C 
ATOM     16  C   UNL     1       4.261   3.550  17.033  0.00  0.00    +0.000 C 
ENDBRANCH   4   7
BRANCH   1  19
ATOM     17  O   UNL     1       0.807  12.163  21.485  0.00  0.00    +0.000 OA
ATOM     18  C   UNL     1      -0.285  11.641  21.287  0.00  0.00    +0.000 C 
ATOM     19  N   UNL     1      -0.522  10.482  20.594  0.00  0.00    +0.000 N 
ATOM     20  H   UNL     1      -1.497  10.262  20.426  0.00  0.00    +0.000 HD
BRANCH  18  21
ATOM     21  C   UNL     1      -1.499  12.243  21.837  0.00  0.00    +0.000 A 
ATOM     22  C   UNL     1      -1.737  12.405  23.185  0.00  0.00    +0.000 A 
ATOM     23  N   UNL     1      -3.037  12.798  23.276  0.00  0.00    +0.000 N 
ATOM     24  C   UNL     1      -3.828  12.882  24.430  0.00  0.00    +0.000 A 
ATOM     25  C   UNL     1      -5.132  12.568  24.274  0.00  0.00    +0.000 A 
ATOM     26  C   UNL     1      -5.719  12.869  22.958  0.00  0.00    +0.000 A 
ATOM     27  C   UNL     1      -4.946  13.057  21.868  0.00  0.00    +0.000 A 
ATOM     28  C   UNL     1      -3.541  12.858  21.982  0.00  0.00    +0.000 A 
ATOM     29  N   UNL     1      -2.603  12.624  21.086  0.00  0.00    +0.000 NA
ENDBRANCH  18  21
ENDBRANCH   1  19
TORSDOF 3
ENDMDL
MODEL 2
REMARK VINA RESULT:      -8.6      6.748      9.764
REMARK  Name = 
REMARK  3 active torsions:
REMARK  status: ('A' for Active; 'I' for Inactive)
REMARK    1  A    between atoms: C_2  and  C_20
REMARK    2  A    between atoms: N_3  and  C_4
REMARK    3  A    between atoms: C_7  and  C_8
REMARK                            x       y       z     vdW  Elec       q    Type
REMARK                         _______ _______ _______ _____ _____    ______ ____
ROOT
ATOM      1  C   UNL     1       7.788   7.327  18.325  0.00  0.00    +0.000 A 
ATOM      2  C   UNL     1       6.816   7.355  17.323  0.00  0.00    +0.000 A 
ATOM      3  C   UNL     1       5.891   6.317  17.195  0.00  0.00    +0.000 A 
ATOM      4  C   UNL     1       5.925   5.221  18.060  0.00  0.00    +0.000 A 
ATOM      5  C   UNL     1       6.970   5.144  18.989  0.00  0.00    +0.000 A 
ATOM      6  C   UNL     1       7.889   6.192  19.129  0.00  0.00    +0.000 A 
ENDROOT
BRANCH   4   7
ATOM      7  C   UNL     1       4.869   4.207  17.955  0.00  0.00    +0.000 A 
ATOM      8  N   UNL     1       4.775   3.318  16.983  0.00  0.00    +0.000 NA
ATOM      9  N   UNL     1       3.665   2.546  17.197  0.00  0.00    +0.000 NA
ATOM     10  C   UNL     1       3.061   2.984  18.280  0.00  0.00    +0.000 A 
ATOM     11  N   UNL     1       3.762   4.061  18.770  0.00  0.00    +0.000 N 
ATOM     12  C   UNL     1       3.393   4.906  19.889  0.00  0.00    +0.000 C 
ATOM     13  C   UNL     1       1.898   5.154  20.046  0.00  0.00    +0.000 C 
ATOM     14  C   UNL     1       1.148   4.003  20.712  0.00  0.00    +0.000 C 
ATOM     15  C   UNL     1       1.623   2.601  20.335  0.00  0.00    +0.000 C 
ATOM     16  C   UNL     1       1.802   2.407  18.834  0.00  0.00    +0.000 C 
ENDBRANCH   4   7
BRANCH   1  19
ATOM     17  O   UNL     1       7.473  10.148  17.611  0.00  0.00    +0.000 OA
ATOM     18  C   UNL     1       8.456   9.710  18.197  0.00  0.00    +0.000 C 
ATOM     19  N   UNL     1       8.669   8.409  18.574  0.00  0.00    +0.000 N 
ATOM     20  H   UNL     1       9.483   8.248  19.156  0.00  0.00    +0.000 HD
BRANCH  18  21
ATOM     21  C   UNL     1       9.566  10.599  18.538  0.00  0.00    +0.000 A 
ATOM     22  C   UNL     1       9.704  11.228  19.757  0.00  0.00    +0.000 A 
ATOM     23  N   UNL     1      10.729  12.108  19.593  0.00  0.00    +0.000 N 
ATOM     24  C   UNL     1      11.120  13.138  20.459  0.00  0.00    +0.000 A 
ATOM     25  C   UNL     1      11.580  14.262  19.868  0.00  0.00    +0.000 A 
ATOM     26  C   UNL     1      12.272  14.081  18.581  0.00  0.00    +0.000 A 
ATOM     27  C   UNL     1      12.112  12.962  17.846  0.00  0.00    +0.000 A 
ATOM     28  C   UNL     1      11.173  11.984  18.282  0.00  0.00    +0.000 A 
ATOM     29  N   UNL     1      10.553  11.006  17.651  0.00  0.00    +0.000 NA
ENDBRANCH  18  21
ENDBRANCH   1  19
TORSDOF 3
ENDMDL
MODEL 3
REMARK VINA RESULT:      -8.5      0.880      1.271
REMARK  Name = 
REMARK  3 active torsions:
REMARK  status: ('A' for Active; 'I' for Inactive)
REMARK    1  A    between atoms: C_2  and  C_20
REMARK    2  A    between atoms: N_3  and  C_4
REMARK    3  A    between atoms: C_7  and  C_8
REMARK                            x       y       z     vdW  Elec       q    Type
REMARK                         _______ _______ _______ _____ _____    ______ ____
ROOT
ATOM      1  C   UNL     1       0.576   9.634  19.898  0.00  0.00    +0.000 A 
ATOM      2  C   UNL     1       1.003   9.773  18.575  0.00  0.00    +0.000 A 
ATOM      3  C   UNL     1       1.880   8.847  18.006  0.00  0.00    +0.000 A 
ATOM      4  C   UNL     1       2.360   7.767  18.752  0.00  0.00    +0.000 A 
ATOM      5  C   UNL     1       2.019   7.697  20.108  0.00  0.00    +0.000 A 
ATOM      6  C   UNL     1       1.127   8.617  20.676  0.00  0.00    +0.000 A 
ENDROOT
BRANCH   4   7
ATOM      7  C   UNL     1       3.194   6.763  18.082  0.00  0.00    +0.000 A 
ATOM      8  N   UNL     1       4.219   7.040  17.297  0.00  0.00    +0.000 NA
ATOM      9  N   UNL     1       4.752   5.867  16.835  0.00  0.00    +0.000 NA
ATOM     10  C   UNL     1       4.032   4.874  17.310  0.00  0.00    +0.000 A 
ATOM     11  N   UNL     1       3.009   5.393  18.068  0.00  0.00    +0.000 N 
ATOM     12  C   UNL     1       1.926   4.659  18.691  0.00  0.00    +0.000 C 
ATOM     13  C   UNL     1       1.418   3.460  17.901  0.00  0.00    +0.000 C 
ATOM     14  C   UNL     1       2.293   2.216  18.035  0.00  0.00    +0.000 C 
ATOM     15  C   UNL     1       3.798   2.472  18.094  0.00  0.00    +0.000 C 
ATOM     16  C   UNL     1       4.290   3.433  17.018  0.00  0.00    +0.000 C 
ENDBRANCH   4   7
BRANCH   1  19
ATOM     17  O   UNL     1       0.952  12.108  21.415  0.00  0.00    +0.000 OA
ATOM     18  C   UNL     1      -0.149  11.618  21.192  0.00  0.00    +0.000 C 
ATOM     19  N   UNL     1      -0.404  10.474  20.482  0.00  0.00    +0.000 N 
ATOM     20  H   UNL     1      -1.382  10.281  20.294  0.00  0.00    +0.000 HD
BRANCH  18  21
ATOM     21  C   UNL     1      -1.356  12.247  21.727  0.00  0.00    +0.000 A 
ATOM     22  C   UNL     1      -1.840  13.468  21.309  0.00  0.00    +0.000 A 
ATOM     23  N   UNL     1      -2.834  13.781  22.185  0.00  0.00    +0.000 N 
ATOM     24  C   UNL     1      -3.492  15.010  22.331  0.00  0.00    +0.000 A 
ATOM     25  C   UNL     1      -3.843  15.343  23.591  0.00  0.00    +0.000 A 
ATOM     26  C   UNL     1      -4.167  14.223  24.492  0.00  0.00    +0.000 A 
ATOM     27  C   UNL     1      -3.761  12.965  24.227  0.00  0.00    +0.000 A 
ATOM     28  C   UNL     1      -2.915  12.740  23.103  0.00  0.00    +0.000 A 
ATOM     29  N   UNL     1      -2.101  11.753  22.790  0.00  0.00    +0.000 NA
ENDBRANCH  18  21
ENDBRANCH   1  19
TORSDOF 3
ENDMDL
MODEL 4
REMARK VINA RESULT:      -8.4      1.317      1.990
REMARK  Name = 
REMARK  3 active torsions:
REMARK  status: ('A' for Active; 'I' for Inactive)
REMARK    1  A    between atoms: C_2  and  C_20
REMARK    2  A    between atoms: N_3  and  C_4
REMARK    3  A    between atoms: C_7  and  C_8
REMARK                            x       y       z     vdW  Elec       q    Type
REMARK                         _______ _______ _______ _____ _____    ______ ____
ROOT
ATOM      1  C   UNL     1       0.732   9.745  20.235  0.00  0.00    +0.000 A 
ATOM      2  C   UNL     1       1.217   8.593  20.857  0.00  0.00    +0.000 A 
ATOM      3  C   UNL     1       1.967   7.656  20.142  0.00  0.00    +0.000 A 
ATOM      4  C   UNL     1       2.238   7.845  18.785  0.00  0.00    +0.000 A 
ATOM      5  C   UNL     1       1.654   8.943  18.141  0.00  0.00    +0.000 A 
ATOM      6  C   UNL     1       0.915   9.892  18.860  0.00  0.00    +0.000 A 
ENDROOT
BRANCH   4   7
ATOM      7  C   UNL     1       3.118   6.890  18.102  0.00  0.00    +0.000 A 
ATOM      8  N   UNL     1       4.148   7.225  17.347  0.00  0.00    +0.000 NA
ATOM      9  N   UNL     1       4.729   6.085  16.861  0.00  0.00    +0.000 NA
ATOM     10  C   UNL     1       4.034   5.054  17.291  0.00  0.00    +0.000 A 
ATOM     11  N   UNL     1       2.980   5.516  18.044  0.00  0.00    +0.000 N 
ATOM     12  C   UNL     1       1.911   4.728  18.624  0.00  0.00    +0.000 C 
ATOM     13  C   UNL     1       1.459   3.537  17.788  0.00  0.00    +0.000 C 
ATOM     14  C   UNL     1       2.372   2.319  17.903  0.00  0.00    +0.000 C 
ATOM     15  C   UNL     1       3.866   2.623  17.999  0.00  0.00    +0.000 C 
ATOM     16  C   UNL     1       4.346   3.632  16.962  0.00  0.00    +0.000 C 
ENDBRANCH   4   7
BRANCH   1  19
ATOM     17  O   UNL     1      -0.752   9.591  22.753  0.00  0.00    +0.000 OA
ATOM     18  C   UNL     1      -0.615  10.630  22.116  0.00  0.00    +0.000 C 
ATOM     19  N   UNL     1       0.073  10.782  20.940  0.00  0.00    +0.000 N 
ATOM     20  H   UNL     1       0.184  11.736  20.616  0.00  0.00    +0.000 HD
BRANCH  18  21
ATOM     21  C   UNL     1      -1.241  11.867  22.583  0.00  0.00    +0.000 A 
ATOM     22  C   UNL     1      -0.604  13.088  22.620  0.00  0.00    +0.000 A 
ATOM     23  N   UNL     1      -1.446  13.913  23.301  0.00  0.00    +0.000 N 
ATOM     24  C   UNL     1      -1.173  15.194  23.799  0.00  0.00    +0.000 A 
ATOM     25  C   UNL     1      -1.767  15.509  24.970  0.00  0.00    +0.000 A 
ATOM     26  C   UNL     1      -3.077  14.886  25.222  0.00  0.00    +0.000 A 
ATOM     27  C   UNL     1      -3.475  13.787  24.550  0.00  0.00    +0.000 A 
ATOM     28  C   UNL     1      -2.561  13.162  23.655  0.00  0.00    +0.000 A 
ATOM     29  N   UNL     1      -2.508  11.947  23.146  0.00  0.00    +0.000 NA
ENDBRANCH  18  21
ENDBRANCH   1  19
TORSDOF 3
ENDMDL
MODEL 5
REMARK VINA RESULT:      -8.4      1.776      2.726
REMARK  Name = 
REMARK  3 active torsions:
REMARK  status: ('A' for Active; 'I' for Inactive)
REMARK    1  A    between atoms: C_2  and  C_20
REMARK    2  A    between atoms: N_3  and  C_4
REMARK    3  A    between atoms: C_7  and  C_8
REMARK                            x       y       z     vdW  Elec       q    Type
REMARK                         _______ _______ _______ _____ _____    ______ ____
ROOT
ATOM      1  C   UNL     1       1.320   8.751  19.955  0.00  0.00    +0.000 A 
ATOM      2  C   UNL     1       1.761   8.888  18.637  0.00  0.00    +0.000 A 
ATOM      3  C   UNL     1       2.377   7.823  17.975  0.00  0.00    +0.000 A 
ATOM      4  C   UNL     1       2.577   6.601  18.621  0.00  0.00    +0.000 A 
ATOM      5  C   UNL     1       2.236   6.506  19.976  0.00  0.00    +0.000 A 
ATOM      6  C   UNL     1       1.604   7.568  20.637  0.00  0.00    +0.000 A 
ENDROOT
BRANCH   4   7
ATOM      7  C   UNL     1       3.131   5.480  17.854  0.00  0.00    +0.000 A 
ATOM      8  N   UNL     1       2.558   4.296  17.734  0.00  0.00    +0.000 NA
ATOM      9  N   UNL     1       3.358   3.495  16.964  0.00  0.00    +0.000 NA
ATOM     10  C   UNL     1       4.435   4.177  16.641  0.00  0.00    +0.000 A 
ATOM     11  N   UNL     1       4.357   5.423  17.218  0.00  0.00    +0.000 N 
ATOM     12  C   UNL     1       5.373   6.457  17.202  0.00  0.00    +0.000 C 
ATOM     13  C   UNL     1       6.809   5.952  17.268  0.00  0.00    +0.000 C 
ATOM     14  C   UNL     1       7.349   5.450  15.931  0.00  0.00    +0.000 C 
ATOM     15  C   UNL     1       6.347   4.698  15.057  0.00  0.00    +0.000 C 
ATOM     16  C   UNL     1       5.556   3.639  15.817  0.00  0.00    +0.000 C 
ENDBRANCH   4   7
BRANCH   1  19
ATOM     17  O   UNL     1       1.519   9.609  22.746  0.00  0.00    +0.000 OA
ATOM     18  C   UNL     1       0.725  10.096  21.949  0.00  0.00    +0.000 C 
ATOM     19  N   UNL     1       0.582   9.756  20.629  0.00  0.00    +0.000 N 
ATOM     20  H   UNL     1      -0.040  10.345  20.088  0.00  0.00    +0.000 HD
BRANCH  18  21
ATOM     21  C   UNL     1      -0.213  11.130  22.383  0.00  0.00    +0.000 A 
ATOM     22  C   UNL     1      -1.337  10.883  23.142  0.00  0.00    +0.000 A 
ATOM     23  N   UNL     1      -2.032  12.053  23.147  0.00  0.00    +0.000 N 
ATOM     24  C   UNL     1      -3.345  12.268  23.589  0.00  0.00    +0.000 A 
ATOM     25  C   UNL     1      -4.060  13.177  22.892  0.00  0.00    +0.000 A 
ATOM     26  C   UNL     1      -3.295  14.284  22.295  0.00  0.00    +0.000 A 
ATOM     27  C   UNL     1      -1.963  14.197  22.101  0.00  0.00    +0.000 A 
ATOM     28  C   UNL     1      -1.307  12.966  22.389  0.00  0.00    +0.000 A 
ATOM     29  N   UNL     1      -0.153  12.463  21.999  0.00  0.00    +0.000 NA
ENDBRANCH  18  21
ENDBRANCH   1  19
TORSDOF 3
ENDMDL
MODEL 6
REMARK VINA RESULT:      -8.4      1.089      1.648
REMARK  Name = 
REMARK  3 active torsions:
REMARK  status: ('A' for Active; 'I' for Inactive)
REMARK    1  A    between atoms: C_2  and  C_20
REMARK    2  A    between atoms: N_3  and  C_4
REMARK    3  A    between atoms: C_7  and  C_8
REMARK                            x       y       z     vdW  Elec       q    Type
REMARK                         _______ _______ _______ _____ _____    ______ ____
ROOT
ATOM      1  C   UNL     1       0.319   9.572  20.659  0.00  0.00    +0.000 A 
ATOM      2  C   UNL     1       0.985   8.469  21.199  0.00  0.00    +0.000 A 
ATOM      3  C   UNL     1       1.809   7.671  20.403  0.00  0.00    +0.000 A 
ATOM      4  C   UNL     1       1.976   7.951  19.044  0.00  0.00    +0.000 A 
ATOM      5  C   UNL     1       1.218   8.987  18.485  0.00  0.00    +0.000 A 
ATOM      6  C   UNL     1       0.403   9.798  19.286  0.00  0.00    +0.000 A 
ENDROOT
BRANCH   4   7
ATOM      7  C   UNL     1       2.932   7.150  18.272  0.00  0.00    +0.000 A 
ATOM      8  N   UNL     1       3.921   7.649  17.552  0.00  0.00    +0.000 NA
ATOM      9  N   UNL     1       4.598   6.619  16.957  0.00  0.00    +0.000 NA
ATOM     10  C   UNL     1       4.004   5.492  17.286  0.00  0.00    +0.000 A 
ATOM     11  N   UNL     1       2.919   5.781  18.081  0.00  0.00    +0.000 N 
ATOM     12  C   UNL     1       1.931   4.847  18.582  0.00  0.00    +0.000 C 
ATOM     13  C   UNL     1       1.581   3.706  17.634  0.00  0.00    +0.000 C 
ATOM     14  C   UNL     1       2.603   2.571  17.630  0.00  0.00    +0.000 C 
ATOM     15  C   UNL     1       4.064   2.999  17.755  0.00  0.00    +0.000 C 
ATOM     16  C   UNL     1       4.440   4.143  16.820  0.00  0.00    +0.000 C 
ENDBRANCH   4   7
BRANCH   1  19
ATOM     17  O   UNL     1       1.042  12.276  21.514  0.00  0.00    +0.000 OA
ATOM     18  C   UNL     1      -0.016  11.736  21.818  0.00  0.00    +0.000 C 
ATOM     19  N   UNL     1      -0.428  10.482  21.448  0.00  0.00    +0.000 N 
ATOM     20  H   UNL     1      -1.383  10.243  21.690  0.00  0.00    +0.000 HD
BRANCH  18  21
ATOM     21  C   UNL     1      -0.973  12.426  22.682  0.00  0.00    +0.000 A 
ATOM     22  C   UNL     1      -2.217  11.929  23.008  0.00  0.00    +0.000 A 
ATOM     23  N   UNL     1      -2.858  12.949  23.640  0.00  0.00    +0.000 N 
ATOM     24  C   UNL     1      -4.217  13.031  23.974  0.00  0.00    +0.000 A 
ATOM     25  C   UNL     1      -4.770  14.260  23.892  0.00  0.00    +0.000 A 
ATOM     26  C   UNL     1      -3.874  15.395  24.173  0.00  0.00    +0.000 A 
ATOM     27  C   UNL     1      -2.533  15.265  24.115  0.00  0.00    +0.000 A 
ATOM     28  C   UNL     1      -1.982  14.028  23.672  0.00  0.00    +0.000 A 
ATOM     29  N   UNL     1      -0.799  13.707  23.189  0.00  0.00    +0.000 NA
ENDBRANCH  18  21
ENDBRANCH   1  19
TORSDOF 3
ENDMDL
MODEL 7
REMARK VINA RESULT:      -8.3      1.766      2.692
REMARK  Name = 
REMARK  3 active torsions:
REMARK  status: ('A' for Active; 'I' for Inactive)
REMARK    1  A    between atoms: C_2  and  C_20
REMARK    2  A    between atoms: N_3  and  C_4
REMARK    3  A    between atoms: C_7  and  C_8
REMARK                            x       y       z     vdW  Elec       q    Type
REMARK                         _______ _______ _______ _____ _____    ______ ____
ROOT
ATOM      1  C   UNL     1       1.335   9.153  19.648  0.00  0.00    +0.000 A 
ATOM      2  C   UNL     1       1.767   9.158  18.320  0.00  0.00    +0.000 A 
ATOM      3  C   UNL     1       2.360   8.025  17.757  0.00  0.00    +0.000 A 
ATOM      4  C   UNL     1       2.546   6.866  18.515  0.00  0.00    +0.000 A 
ATOM      5  C   UNL     1       2.215   6.906  19.875  0.00  0.00    +0.000 A 
ATOM      6  C   UNL     1       1.606   8.036  20.437  0.00  0.00    +0.000 A 
ENDROOT
BRANCH   4   7
ATOM      7  C   UNL     1       3.075   5.669  17.853  0.00  0.00    +0.000 A 
ATOM      8  N   UNL     1       2.487   4.486  17.856  0.00  0.00    +0.000 NA
ATOM      9  N   UNL     1       3.265   3.604  17.158  0.00  0.00    +0.000 NA
ATOM     10  C   UNL     1       4.346   4.237  16.756  0.00  0.00    +0.000 A 
ATOM     11  N   UNL     1       4.291   5.534  17.210  0.00  0.00    +0.000 N 
ATOM     12  C   UNL     1       5.320   6.547  17.081  0.00  0.00    +0.000 C 
ATOM     13  C   UNL     1       6.750   6.032  17.178  0.00  0.00    +0.000 C 
ATOM     14  C   UNL     1       7.266   5.395  15.889  0.00  0.00    +0.000 C 
ATOM     15  C   UNL     1       6.242   4.576  15.105  0.00  0.00    +0.000 C 
ATOM     16  C   UNL     1       5.449   3.606  15.974  0.00  0.00    +0.000 C 
ENDBRANCH   4   7
BRANCH   1  19
ATOM     17  O   UNL     1      -1.369  10.094  19.040  0.00  0.00    +0.000 OA
ATOM     18  C   UNL     1      -0.648  10.619  19.882  0.00  0.00    +0.000 C 
ATOM     19  N   UNL     1       0.619  10.230  20.229  0.00  0.00    +0.000 N 
ATOM     20  H   UNL     1       1.021  10.704  21.029  0.00  0.00    +0.000 HD
BRANCH  18  21
ATOM     21  C   UNL     1      -1.109  11.800  20.611  0.00  0.00    +0.000 A 
ATOM     22  C   UNL     1      -0.530  12.265  21.772  0.00  0.00    +0.000 A 
ATOM     23  N   UNL     1      -1.370  13.232  22.232  0.00  0.00    +0.000 N 
ATOM     24  C   UNL     1      -1.350  13.860  23.485  0.00  0.00    +0.000 A 
ATOM     25  C   UNL     1      -2.556  14.176  24.003  0.00  0.00    +0.000 A 
ATOM     26  C   UNL     1      -3.614  14.505  23.033  0.00  0.00    +0.000 A 
ATOM     27  C   UNL     1      -3.524  14.133  21.740  0.00  0.00    +0.000 A 
ATOM     28  C   UNL     1      -2.429  13.318  21.335  0.00  0.00    +0.000 A 
ATOM     29  N   UNL     1      -2.246  12.532  20.293  0.00  0.00    +0.000 NA
ENDBRANCH  18  21
ENDBRANCH   1  19
TORSDOF 3
ENDMDL
MODEL 8
REMARK VINA RESULT:      -8.3      1.664      2.639
REMARK  Name = 
REMARK  3 active torsions:
REMARK  status: ('A' for Active; 'I' for Inactive)
REMARK    1  A    between atoms: C_2  and  C_20
REMARK    2  A    between atoms: N_3  and  C_4
REMARK    3  A    between atoms: C_7  and  C_8
REMARK                            x       y       z     vdW  Elec       q    Type
REMARK                         _______ _______ _______ _____ _____    ______ ____
ROOT
ATOM      1  C   UNL     1       1.005   9.299  19.840  0.00  0.00    +0.000 A 
ATOM      2  C   UNL     1       1.336   9.294  18.483  0.00  0.00    +0.000 A 
ATOM      3  C   UNL     1       1.994   8.203  17.911  0.00  0.00    +0.000 A 
ATOM      4  C   UNL     1       2.347   7.097  18.687  0.00  0.00    +0.000 A 
ATOM      5  C   UNL     1       2.116   7.156  20.067  0.00  0.00    +0.000 A 
ATOM      6  C   UNL     1       1.442   8.243  20.640  0.00  0.00    +0.000 A 
ENDROOT
BRANCH   4   7
ATOM      7  C   UNL     1       2.941   5.931  18.024  0.00  0.00    +0.000 A 
ATOM      8  N   UNL     1       2.388   4.732  17.973  0.00  0.00    +0.000 NA
ATOM      9  N   UNL     1       3.223   3.889  17.291  0.00  0.00    +0.000 NA
ATOM     10  C   UNL     1       4.302   4.562  16.955  0.00  0.00    +0.000 A 
ATOM     11  N   UNL     1       4.189   5.846  17.434  0.00  0.00    +0.000 N 
ATOM     12  C   UNL     1       5.192   6.890  17.377  0.00  0.00    +0.000 C 
ATOM     13  C   UNL     1       6.631   6.414  17.528  0.00  0.00    +0.000 C 
ATOM     14  C   UNL     1       7.223   5.822  16.250  0.00  0.00    +0.000 C 
ATOM     15  C   UNL     1       6.261   4.993  15.401  0.00  0.00    +0.000 C 
ATOM     16  C   UNL     1       5.458   3.981  16.210  0.00  0.00    +0.000 C 
ENDBRANCH   4   7
BRANCH   1  19
ATOM     17  O   UNL     1       1.891  11.880  20.898  0.00  0.00    +0.000 OA
ATOM     18  C   UNL     1       0.723  11.508  20.925  0.00  0.00    +0.000 C 
ATOM     19  N   UNL     1       0.233  10.324  20.441  0.00  0.00    +0.000 N 
ATOM     20  H   UNL     1      -0.777  10.234  20.438  0.00  0.00    +0.000 HD
BRANCH  18  21
ATOM     21  C   UNL     1      -0.302  12.348  21.543  0.00  0.00    +0.000 A 
ATOM     22  C   UNL     1      -0.059  13.595  22.078  0.00  0.00    +0.000 A 
ATOM     23  N   UNL     1      -1.205  13.939  22.726  0.00  0.00    +0.000 N 
ATOM     24  C   UNL     1      -1.401  15.007  23.613  0.00  0.00    +0.000 A 
ATOM     25  C   UNL     1      -2.249  14.773  24.637  0.00  0.00    +0.000 A 
ATOM     26  C   UNL     1      -3.348  13.831  24.367  0.00  0.00    +0.000 A 
ATOM     27  C   UNL     1      -3.294  12.960  23.339  0.00  0.00    +0.000 A 
ATOM     28  C   UNL     1      -2.100  12.888  22.565  0.00  0.00    +0.000 A 
ATOM     29  N   UNL     1      -1.615  11.956  21.769  0.00  0.00    +0.000 NA
ENDBRANCH  18  21
ENDBRANCH   1  19
TORSDOF 3
ENDMDL
MODEL 9
REMARK VINA RESULT:      -8.3      1.488      2.130
REMARK  Name = 
REMARK  3 active torsions:
REMARK  status: ('A' for Active; 'I' for Inactive)
REMARK    1  A    between atoms: C_2  and  C_20
REMARK    2  A    between atoms: N_3  and  C_4
REMARK    3  A    between atoms: C_7  and  C_8
REMARK                            x       y       z     vdW  Elec       q    Type
REMARK                         _______ _______ _______ _____ _____    ______ ____
ROOT
ATOM      1  C   UNL     1       0.529   9.755  20.132  0.00  0.00    +0.000 A 
ATOM      2  C   UNL     1       1.090   8.654  20.782  0.00  0.00    +0.000 A 
ATOM      3  C   UNL     1       1.899   7.750  20.090  0.00  0.00    +0.000 A 
ATOM      4  C   UNL     1       2.153   7.920  18.727  0.00  0.00    +0.000 A 
ATOM      5  C   UNL     1       1.497   8.959  18.056  0.00  0.00    +0.000 A 
ATOM      6  C   UNL     1       0.699   9.876  18.752  0.00  0.00    +0.000 A 
ENDROOT
BRANCH   4   7
ATOM      7  C   UNL     1       3.092   7.006  18.066  0.00  0.00    +0.000 A 
ATOM      8  N   UNL     1       4.131   7.388  17.345  0.00  0.00    +0.000 NA
ATOM      9  N   UNL     1       4.772   6.276  16.870  0.00  0.00    +0.000 NA
ATOM     10  C   UNL     1       4.107   5.215  17.272  0.00  0.00    +0.000 A 
ATOM     11  N   UNL     1       3.012   5.628  17.995  0.00  0.00    +0.000 N 
ATOM     12  C   UNL     1       1.959   4.793  18.535  0.00  0.00    +0.000 C 
ATOM     13  C   UNL     1       1.581   3.592  17.678  0.00  0.00    +0.000 C 
ATOM     14  C   UNL     1       2.540   2.410  17.814  0.00  0.00    +0.000 C 
ATOM     15  C   UNL     1       4.017   2.774  17.958  0.00  0.00    +0.000 C 
ATOM     16  C   UNL     1       4.487   3.810  16.944  0.00  0.00    +0.000 C 
ENDBRANCH   4   7
BRANCH   1  19
ATOM     17  O   UNL     1       1.493  12.319  21.163  0.00  0.00    +0.000 OA
ATOM     18  C   UNL     1       0.331  11.943  21.277  0.00  0.00    +0.000 C 
ATOM     19  N   UNL     1      -0.195  10.766  20.812  0.00  0.00    +0.000 N 
ATOM     20  H   UNL     1      -1.201  10.672  20.891  0.00  0.00    +0.000 HD
BRANCH  18  21
ATOM     21  C   UNL     1      -0.642  12.767  21.993  0.00  0.00    +0.000 A 
ATOM     22  C   UNL     1      -1.698  13.413  21.388  0.00  0.00    +0.000 A 
ATOM     23  N   UNL     1      -2.222  14.223  22.348  0.00  0.00    +0.000 N 
ATOM     24  C   UNL     1      -3.167  15.245  22.185  0.00  0.00    +0.000 A 
ATOM     25  C   UNL     1      -3.011  16.324  22.982  0.00  0.00    +0.000 A 
ATOM     26  C   UNL     1      -2.423  16.071  24.308  0.00  0.00    +0.000 A 
ATOM     27  C   UNL     1      -1.722  14.949  24.566  0.00  0.00    +0.000 A 
ATOM     28  C   UNL     1      -1.463  14.042  23.499  0.00  0.00    +0.000 A 
ATOM     29  N   UNL     1      -0.563  13.092  23.341  0.00  0.00    +0.000 NA
ENDBRANCH  18  21
ENDBRANCH   1  19
TORSDOF 3
ENDMDL
