MODEL 1
REMARK VINA RESULT:      -9.3      0.000      0.000
REMARK  Name = 
REMARK  7 active torsions:
REMARK  status: ('A' for Active; 'I' for Inactive)
REMARK    1  A    between atoms: C_1  and  C_2
REMARK    2  A    between atoms: C_6  and  C_7
REMARK    3  A    between atoms: C_7  and  C_8
REMARK    4  A    between atoms: C_8  and  C_9
REMARK    5  A    between atoms: N_13  and  C_14
REMARK    6  A    between atoms: C_15  and  N_16
REMARK    7  A    between atoms: C_23  and  C_24
REMARK                            x       y       z     vdW  Elec       q    Type
REMARK                         _______ _______ _______ _____ _____    ______ ____
ROOT
ATOM      1  C   UNL     1       7.836   7.625  17.493  0.00  0.00    +0.000 C 
ATOM      2  C   UNL     1       6.776   6.567  17.229  0.00  0.00    +0.000 C 
ATOM      3  N   UNL     1       7.223   5.425  16.854  0.00  0.00    +0.000 NA
ATOM      4  C   UNL     1       6.410   4.273  16.536  0.00  0.00    +0.000 C 
ATOM      5  C   UNL     1       5.030   4.605  16.005  0.00  0.00    +0.000 C 
ATOM      6  C   UNL     1       4.006   4.959  17.087  0.00  0.00    +0.000 C 
ATOM      7  C   UNL     1       4.060   6.207  17.621  0.00  0.00    +0.000 C 
ATOM      8  C   UNL     1       5.337   7.045  17.453  0.00  0.00    +0.000 C 
ENDROOT
BRANCH   7   9
ATOM      9  N   UNL     1       3.032   6.885  18.327  0.00  0.00    +0.000 N 
ATOM     10  C   UNL     1       2.336   8.117  17.951  0.00  0.00    +0.000 C 
ATOM     11  C   UNL     1       1.576   8.525  19.187  0.00  0.00    +0.000 A 
ATOM     12  C   UNL     1       1.806   7.594  20.185  0.00  0.00    +0.000 A 
ATOM     13  C   UNL     1       1.337   7.715  21.484  0.00  0.00    +0.000 A 
ATOM     14  C   UNL     1       0.595   8.847  21.798  0.00  0.00    +0.000 A 
ATOM     15  C   UNL     1       0.324   9.800  20.800  0.00  0.00    +0.000 A 
ATOM     16  C   UNL     1       0.799   9.650  19.475  0.00  0.00    +0.000 A 
ATOM     17  C   UNL     1       2.685   6.558  19.666  0.00  0.00    +0.000 C 
ATOM     18  O   UNL     1       3.044   5.646  20.390  0.00  0.00    +0.000 OA
BRANCH  16  19
ATOM     19  C   UNL     1       0.450  10.710  18.466  0.00  0.00    +0.000 C 
ATOM     20  F   UNL     1      -0.337  10.259  17.455  0.00  0.00    +0.000 F 
ATOM     21  F   UNL     1      -0.224  11.750  19.030  0.00  0.00    +0.000 F 
ATOM     22  F   UNL     1       1.551  11.251  17.879  0.00  0.00    +0.000 F 
ENDBRANCH  16  19
ENDBRANCH   7   9
BRANCH   6  23
ATOM     23  C   UNL     1       3.032   3.802  17.331  0.00  0.00    +0.000 C 
BRANCH  23  24
ATOM     24  C   UNL     1       3.741   2.764  18.204  0.00  0.00    +0.000 C 
BRANCH  24  25
ATOM     25  C   UNL     1       3.194   2.545  19.572  0.00  0.00    +0.000 A 
ATOM     26  N   UNL     1       3.826   2.522  20.723  0.00  0.00    +0.000 NA
ATOM     27  N   UNL     1       2.881   2.451  21.729  0.00  0.00    +0.000 NA
ATOM     28  C   UNL     1       1.692   2.442  21.161  0.00  0.00    +0.000 A 
ATOM     29  N   UNL     1       1.845   2.472  19.813  0.00  0.00    +0.000 N 
ATOM     30  C   UNL     1       0.794   2.489  18.831  0.00  0.00    +0.000 C 
ENDBRANCH  24  25
ENDBRANCH  23  24
ENDBRANCH   6  23
TORSDOF 5
ENDMDL
MODEL 2
REMARK VINA RESULT:      -9.1      2.144      4.754
REMARK  Name = 
REMARK  7 active torsions:
REMARK  status: ('A' for Active; 'I' for Inactive)
REMARK    1  A    between atoms: C_1  and  C_2
REMARK    2  A    between atoms: C_6  and  C_7
REMARK    3  A    between atoms: C_7  and  C_8
REMARK    4  A    between atoms: C_8  and  C_9
REMARK    5  A    between atoms: N_13  and  C_14
REMARK    6  A    between atoms: C_15  and  N_16
REMARK    7  A    between atoms: C_23  and  C_24
REMARK                            x       y       z     vdW  Elec       q    Type
REMARK                         _______ _______ _______ _____ _____    ______ ____
ROOT
ATOM      1  C   UNL     1       0.356   2.153  18.763  0.00  0.00    +0.000 C 
ATOM      2  C   UNL     1       1.758   2.700  18.982  0.00  0.00    +0.000 C 
ATOM      3  N   UNL     1       2.712   1.906  18.662  0.00  0.00    +0.000 NA
ATOM      4  C   UNL     1       4.122   2.198  18.791  0.00  0.00    +0.000 C 
ATOM      5  C   UNL     1       4.464   3.161  19.909  0.00  0.00    +0.000 C 
ATOM      6  C   UNL     1       4.247   4.637  19.559  0.00  0.00    +0.000 C 
ATOM      7  C   UNL     1       2.974   5.110  19.591  0.00  0.00    +0.000 C 
ATOM      8  C   UNL     1       1.800   4.121  19.556  0.00  0.00    +0.000 C 
ENDROOT
BRANCH   7   9
ATOM      9  N   UNL     1       2.564   6.467  19.682  0.00  0.00    +0.000 N 
ATOM     10  C   UNL     1       1.790   7.109  20.747  0.00  0.00    +0.000 C 
ATOM     11  C   UNL     1       1.403   8.453  20.187  0.00  0.00    +0.000 A 
ATOM     12  C   UNL     1       1.926   8.576  18.911  0.00  0.00    +0.000 A 
ATOM     13  C   UNL     1       1.677   9.652  18.071  0.00  0.00    +0.000 A 
ATOM     14  C   UNL     1       0.847  10.660  18.543  0.00  0.00    +0.000 A 
ATOM     15  C   UNL     1       0.320  10.575  19.844  0.00  0.00    +0.000 A 
ATOM     16  C   UNL     1       0.598   9.476  20.692  0.00  0.00    +0.000 A 
ATOM     17  C   UNL     1       2.668   7.368  18.589  0.00  0.00    +0.000 C 
ATOM     18  O   UNL     1       3.191   7.250  17.495  0.00  0.00    +0.000 OA
BRANCH  16  19
ATOM     19  C   UNL     1       0.003   9.473  22.074  0.00  0.00    +0.000 C 
ATOM     20  F   UNL     1      -0.651  10.622  22.386  0.00  0.00    +0.000 F 
ATOM     21  F   UNL     1      -0.902   8.470  22.240  0.00  0.00    +0.000 F 
ATOM     22  F   UNL     1       0.941   9.296  23.043  0.00  0.00    +0.000 F 
ENDBRANCH  16  19
ENDBRANCH   7   9
BRANCH   6  23
ATOM     23  C   UNL     1       5.577   5.344  19.284  0.00  0.00    +0.000 C 
BRANCH  23  24
ATOM     24  C   UNL     1       6.399   4.457  18.346  0.00  0.00    +0.000 C 
BRANCH  24  25
ATOM     25  C   UNL     1       6.585   4.942  16.949  0.00  0.00    +0.000 A 
ATOM     26  N   UNL     1       7.635   5.512  16.404  0.00  0.00    +0.000 NA
ATOM     27  N   UNL     1       7.401   5.633  15.047  0.00  0.00    +0.000 NA
ATOM     28  C   UNL     1       6.211   5.122  14.801  0.00  0.00    +0.000 A 
ATOM     29  N   UNL     1       5.658   4.704  15.966  0.00  0.00    +0.000 N 
ATOM     30  C   UNL     1       4.374   4.075  16.130  0.00  0.00    +0.000 C 
ENDBRANCH  24  25
ENDBRANCH  23  24
ENDBRANCH   6  23
TORSDOF 5
ENDMDL
MODEL 3
REMARK VINA RESULT:      -9.0      2.421      5.151
REMARK  Name = 
REMARK  7 active torsions:
REMARK  status: ('A' for Active; 'I' for Inactive)
REMARK    1  A    between atoms: C_1  and  C_2
REMARK    2  A    between atoms: C_6  and  C_7
REMARK    3  A    between atoms: C_7  and  C_8
REMARK    4  A    between atoms: C_8  and  C_9
REMARK    5  A    between atoms: N_13  and  C_14
REMARK    6  A    between atoms: C_15  and  N_16
REMARK    7  A    between atoms: C_23  and  C_24
REMARK                            x       y       z     vdW  Elec       q    Type
REMARK                         _______ _______ _______ _____ _____    ______ ____
ROOT
ATOM      1  C   UNL     1       0.664   2.752  19.170  0.00  0.00    +0.000 C 
ATOM      2  C   UNL     1       1.815   3.588  18.630  0.00  0.00    +0.000 C 
ATOM      3  N   UNL     1       2.537   3.014  17.739  0.00  0.00    +0.000 NA
ATOM      4  C   UNL     1       3.688   3.602  17.092  0.00  0.00    +0.000 C 
ATOM      5  C   UNL     1       4.430   4.621  17.932  0.00  0.00    +0.000 C 
ATOM      6  C   UNL     1       3.794   6.014  17.942  0.00  0.00    +0.000 C 
ATOM      7  C   UNL     1       2.708   6.204  18.736  0.00  0.00    +0.000 C 
ATOM      8  C   UNL     1       1.924   4.987  19.247  0.00  0.00    +0.000 C 
ENDROOT
BRANCH   7   9
ATOM      9  N   UNL     1       2.191   7.442  19.202  0.00  0.00    +0.000 N 
ATOM     10  C   UNL     1       1.601   7.743  20.508  0.00  0.00    +0.000 C 
ATOM     11  C   UNL     1       0.968   9.100  20.344  0.00  0.00    +0.000 A 
ATOM     12  C   UNL     1       1.191   9.547  19.053  0.00  0.00    +0.000 A 
ATOM     13  C   UNL     1       0.661  10.719  18.534  0.00  0.00    +0.000 A 
ATOM     14  C   UNL     1      -0.147  11.484  19.366  0.00  0.00    +0.000 A 
ATOM     15  C   UNL     1      -0.374  11.068  20.690  0.00  0.00    +0.000 A 
ATOM     16  C   UNL     1       0.190   9.876  21.205  0.00  0.00    +0.000 A 
ATOM     17  C   UNL     1       1.967   8.547  18.337  0.00  0.00    +0.000 C 
ATOM     18  O   UNL     1       2.254   8.723  17.166  0.00  0.00    +0.000 OA
BRANCH  16  19
ATOM     19  C   UNL     1      -0.092   9.514  22.638  0.00  0.00    +0.000 C 
ATOM     20  F   UNL     1      -0.873   8.411  22.776  0.00  0.00    +0.000 F 
ATOM     21  F   UNL     1       1.048   9.255  23.335  0.00  0.00    +0.000 F 
ATOM     22  F   UNL     1      -0.724  10.513  23.311  0.00  0.00    +0.000 F 
ENDBRANCH  16  19
ENDBRANCH   7   9
BRANCH   6  23
ATOM     23  C   UNL     1       4.576   6.989  17.056  0.00  0.00    +0.000 C 
BRANCH  23  24
ATOM     24  C   UNL     1       6.006   6.461  16.921  0.00  0.00    +0.000 C 
BRANCH  24  25
ATOM     25  C   UNL     1       7.096   7.313  17.473  0.00  0.00    +0.000 A 
ATOM     26  N   UNL     1       7.407   8.555  17.177  0.00  0.00    +0.000 NA
ATOM     27  N   UNL     1       8.382   8.975  18.061  0.00  0.00    +0.000 NA
ATOM     28  C   UNL     1       8.633   7.976  18.883  0.00  0.00    +0.000 A 
ATOM     29  N   UNL     1       7.870   6.911  18.533  0.00  0.00    +0.000 N 
ATOM     30  C   UNL     1       7.833   5.630  19.186  0.00  0.00    +0.000 C 
ENDBRANCH  24  25
ENDBRANCH  23  24
ENDBRANCH   6  23
TORSDOF 5
ENDMDL
MODEL 4
REMARK VINA RESULT:      -8.8      0.703      1.326
REMARK  Name = 
REMARK  7 active torsions:
REMARK  status: ('A' for Active; 'I' for Inactive)
REMARK    1  A    between atoms: C_1  and  C_2
REMARK    2  A    between atoms: C_6  and  C_7
REMARK    3  A    between atoms: C_7  and  C_8
REMARK    4  A    between atoms: C_8  and  C_9
REMARK    5  A    between atoms: N_13  and  C_14
REMARK    6  A    between atoms: C_15  and  N_16
REMARK    7  A    between atoms: C_23  and  C_24
REMARK                            x       y       z     vdW  Elec       q    Type
REMARK                         _______ _______ _______ _____ _____    ______ ____
ROOT
ATOM      1  C   UNL     1       8.057   7.950  17.850  0.00  0.00    +0.000 C 
ATOM      2  C   UNL     1       7.049   6.938  17.331  0.00  0.00    +0.000 C 
ATOM      3  N   UNL     1       7.553   5.881  16.808  0.00  0.00    +0.000 NA
ATOM      4  C   UNL     1       6.798   4.788  16.239  0.00  0.00    +0.000 C 
ATOM      5  C   UNL     1       5.454   5.185  15.662  0.00  0.00    +0.000 C 
ATOM      6  C   UNL     1       4.341   5.339  16.703  0.00  0.00    +0.000 C 
ATOM      7  C   UNL     1       4.322   6.480  17.440  0.00  0.00    +0.000 C 
ATOM      8  C   UNL     1       5.584   7.351  17.516  0.00  0.00    +0.000 C 
ENDROOT
BRANCH   7   9
ATOM      9  N   UNL     1       3.225   7.016  18.165  0.00  0.00    +0.000 N 
ATOM     10  C   UNL     1       2.395   8.175  17.827  0.00  0.00    +0.000 C 
ATOM     11  C   UNL     1       1.595   8.455  19.073  0.00  0.00    +0.000 A 
ATOM     12  C   UNL     1       1.929   7.523  20.040  0.00  0.00    +0.000 A 
ATOM     13  C   UNL     1       1.450   7.549  21.342  0.00  0.00    +0.000 A 
ATOM     14  C   UNL     1       0.587   8.580  21.690  0.00  0.00    +0.000 A 
ATOM     15  C   UNL     1       0.211   9.529  20.723  0.00  0.00    +0.000 A 
ATOM     16  C   UNL     1       0.699   9.476  19.395  0.00  0.00    +0.000 A 
ATOM     17  C   UNL     1       2.917   6.609  19.491  0.00  0.00    +0.000 C 
ATOM     18  O   UNL     1       3.377   5.720  20.187  0.00  0.00    +0.000 OA
BRANCH  16  19
ATOM     19  C   UNL     1       0.233  10.523  18.420  0.00  0.00    +0.000 C 
ATOM     20  F   UNL     1      -0.630  11.422  18.962  0.00  0.00    +0.000 F 
ATOM     21  F   UNL     1       1.267  11.253  17.919  0.00  0.00    +0.000 F 
ATOM     22  F   UNL     1      -0.404   9.986  17.345  0.00  0.00    +0.000 F 
ENDBRANCH  16  19
ENDBRANCH   7   9
BRANCH   6  23
ATOM     23  C   UNL     1       3.383   4.144  16.673  0.00  0.00    +0.000 C 
BRANCH  23  24
ATOM     24  C   UNL     1       3.740   3.223  17.841  0.00  0.00    +0.000 C 
BRANCH  24  25
ATOM     25  C   UNL     1       2.715   3.060  18.911  0.00  0.00    +0.000 A 
ATOM     26  N   UNL     1       1.419   3.270  18.855  0.00  0.00    +0.000 NA
ATOM     27  N   UNL     1       0.862   2.825  20.039  0.00  0.00    +0.000 NA
ATOM     28  C   UNL     1       1.838   2.346  20.784  0.00  0.00    +0.000 A 
ATOM     29  N   UNL     1       3.014   2.498  20.126  0.00  0.00    +0.000 N 
ATOM     30  C   UNL     1       4.314   2.091  20.588  0.00  0.00    +0.000 C 
ENDBRANCH  24  25
ENDBRANCH  23  24
ENDBRANCH   6  23
TORSDOF 5
ENDMDL
MODEL 5
REMARK VINA RESULT:      -8.8      2.162      4.965
REMARK  Name = 
REMARK  7 active torsions:
REMARK  status: ('A' for Active; 'I' for Inactive)
REMARK    1  A    between atoms: C_1  and  C_2
REMARK    2  A    between atoms: C_6  and  C_7
REMARK    3  A    between atoms: C_7  and  C_8
REMARK    4  A    between atoms: C_8  and  C_9
REMARK    5  A    between atoms: N_13  and  C_14
REMARK    6  A    between atoms: C_15  and  N_16
REMARK    7  A    between atoms: C_23  and  C_24
REMARK                            x       y       z     vdW  Elec       q    Type
REMARK                         _______ _______ _______ _____ _____    ______ ____
ROOT
ATOM      1  C   UNL     1       1.341   2.555  21.559  0.00  0.00    +0.000 C 
ATOM      2  C   UNL     1       2.355   3.271  20.681  0.00  0.00    +0.000 C 
ATOM      3  N   UNL     1       3.087   2.508  19.955  0.00  0.00    +0.000 NA
ATOM      4  C   UNL     1       4.124   2.957  19.053  0.00  0.00    +0.000 C 
ATOM      5  C   UNL     1       4.790   4.256  19.457  0.00  0.00    +0.000 C 
ATOM      6  C   UNL     1       3.999   5.514  19.084  0.00  0.00    +0.000 C 
ATOM      7  C   UNL     1       2.945   5.851  19.872  0.00  0.00    +0.000 C 
ATOM      8  C   UNL     1       2.337   4.799  20.811  0.00  0.00    +0.000 C 
ENDROOT
BRANCH   7   9
ATOM      9  N   UNL     1       2.316   7.120  19.968  0.00  0.00    +0.000 N 
ATOM     10  C   UNL     1       1.618   7.700  21.117  0.00  0.00    +0.000 C 
ATOM     11  C   UNL     1       0.909   8.912  20.569  0.00  0.00    +0.000 A 
ATOM     12  C   UNL     1       1.191   9.024  19.218  0.00  0.00    +0.000 A 
ATOM     13  C   UNL     1       0.621   9.973  18.382  0.00  0.00    +0.000 A 
ATOM     14  C   UNL     1      -0.292  10.859  18.941  0.00  0.00    +0.000 A 
ATOM     15  C   UNL     1      -0.582  10.785  20.315  0.00  0.00    +0.000 A 
ATOM     16  C   UNL     1       0.023   9.818  21.154  0.00  0.00    +0.000 A 
ATOM     17  C   UNL     1       2.079   7.940  18.832  0.00  0.00    +0.000 C 
ATOM     18  O   UNL     1       2.434   7.829  17.671  0.00  0.00    +0.000 OA
BRANCH  16  19
ATOM     19  C   UNL     1      -0.334   9.819  22.616  0.00  0.00    +0.000 C 
ATOM     20  F   UNL     1      -1.001  10.935  23.011  0.00  0.00    +0.000 F 
ATOM     21  F   UNL     1      -1.132   8.768  22.950  0.00  0.00    +0.000 F 
ATOM     22  F   UNL     1       0.761   9.729  23.418  0.00  0.00    +0.000 F 
ENDBRANCH  16  19
ENDBRANCH   7   9
BRANCH   6  23
ATOM     23  C   UNL     1       4.612   6.216  17.868  0.00  0.00    +0.000 C 
BRANCH  23  24
ATOM     24  C   UNL     1       6.060   5.741  17.729  0.00  0.00    +0.000 C 
BRANCH  24  25
ATOM     25  C   UNL     1       6.581   5.561  16.345  0.00  0.00    +0.000 A 
ATOM     26  N   UNL     1       7.637   6.104  15.781  0.00  0.00    +0.000 NA
ATOM     27  N   UNL     1       7.813   5.512  14.545  0.00  0.00    +0.000 NA
ATOM     28  C   UNL     1       6.861   4.614  14.392  0.00  0.00    +0.000 A 
ATOM     29  N   UNL     1       6.056   4.632  15.483  0.00  0.00    +0.000 N 
ATOM     30  C   UNL     1       4.910   3.794  15.718  0.00  0.00    +0.000 C 
ENDBRANCH  24  25
ENDBRANCH  23  24
ENDBRANCH   6  23
TORSDOF 5
ENDMDL
MODEL 6
REMARK VINA RESULT:      -8.8      2.264      4.821
REMARK  Name = 
REMARK  7 active torsions:
REMARK  status: ('A' for Active; 'I' for Inactive)
REMARK    1  A    between atoms: C_1  and  C_2
REMARK    2  A    between atoms: C_6  and  C_7
REMARK    3  A    between atoms: C_7  and  C_8
REMARK    4  A    between atoms: C_8  and  C_9
REMARK    5  A    between atoms: N_13  and  C_14
REMARK    6  A    between atoms: C_15  and  N_16
REMARK    7  A    between atoms: C_23  and  C_24
REMARK                            x       y       z     vdW  Elec       q    Type
REMARK                         _______ _______ _______ _____ _____    ______ ____
ROOT
ATOM      1  C   UNL     1       0.442   2.511  18.684  0.00  0.00    +0.000 C 
ATOM      2  C   UNL     1       1.812   3.163  18.793  0.00  0.00    +0.000 C 
ATOM      3  N   UNL     1       2.786   2.472  18.326  0.00  0.00    +0.000 NA
ATOM      4  C   UNL     1       4.174   2.877  18.328  0.00  0.00    +0.000 C 
ATOM      5  C   UNL     1       4.557   3.802  19.464  0.00  0.00    +0.000 C 
ATOM      6  C   UNL     1       4.187   5.271  19.235  0.00  0.00    +0.000 C 
ATOM      7  C   UNL     1       2.891   5.631  19.428  0.00  0.00    +0.000 C 
ATOM      8  C   UNL     1       1.802   4.548  19.450  0.00  0.00    +0.000 C 
ENDROOT
BRANCH   7   9
ATOM      9  N   UNL     1       2.387   6.939  19.649  0.00  0.00    +0.000 N 
ATOM     10  C   UNL     1       1.722   7.464  20.844  0.00  0.00    +0.000 C 
ATOM     11  C   UNL     1       1.148   8.790  20.417  0.00  0.00    +0.000 A 
ATOM     12  C   UNL     1       1.471   9.013  19.089  0.00  0.00    +0.000 A 
ATOM     13  C   UNL     1       1.016  10.096  18.351  0.00  0.00    +0.000 A 
ATOM     14  C   UNL     1       0.181  11.005  18.988  0.00  0.00    +0.000 A 
ATOM     15  C   UNL     1      -0.146  10.818  20.343  0.00  0.00    +0.000 A 
ATOM     16  C   UNL     1       0.341   9.714  21.083  0.00  0.00    +0.000 A 
ATOM     17  C   UNL     1       2.258   7.892  18.602  0.00  0.00    +0.000 C 
ATOM     18  O   UNL     1       2.627   7.867  17.441  0.00  0.00    +0.000 OA
BRANCH  16  19
ATOM     19  C   UNL     1      -0.047   9.600  22.532  0.00  0.00    +0.000 C 
ATOM     20  F   UNL     1       1.008   9.385  23.362  0.00  0.00    +0.000 F 
ATOM     21  F   UNL     1      -0.658  10.727  22.989  0.00  0.00    +0.000 F 
ATOM     22  F   UNL     1      -0.920   8.582  22.758  0.00  0.00    +0.000 F 
ENDBRANCH  16  19
ENDBRANCH   7   9
BRANCH   6  23
ATOM     23  C   UNL     1       5.419   6.104  18.871  0.00  0.00    +0.000 C 
BRANCH  23  24
ATOM     24  C   UNL     1       5.291   6.522  17.405  0.00  0.00    +0.000 C 
BRANCH  24  25
ATOM     25  C   UNL     1       5.638   5.500  16.378  0.00  0.00    +0.000 A 
ATOM     26  N   UNL     1       5.092   5.288  15.202  0.00  0.00    +0.000 NA
ATOM     27  N   UNL     1       5.854   4.345  14.539  0.00  0.00    +0.000 NA
ATOM     28  C   UNL     1       6.854   4.012  15.330  0.00  0.00    +0.000 A 
ATOM     29  N   UNL     1       6.740   4.691  16.499  0.00  0.00    +0.000 N 
ATOM     30  C   UNL     1       7.637   4.625  17.621  0.00  0.00    +0.000 C 
ENDBRANCH  24  25
ENDBRANCH  23  24
ENDBRANCH   6  23
TORSDOF 5
ENDMDL
MODEL 7
REMARK VINA RESULT:      -8.8      0.609      1.295
REMARK  Name = 
REMARK  7 active torsions:
REMARK  status: ('A' for Active; 'I' for Inactive)
REMARK    1  A    between atoms: C_1  and  C_2
REMARK    2  A    between atoms: C_6  and  C_7
REMARK    3  A    between atoms: C_7  and  C_8
REMARK    4  A    between atoms: C_8  and  C_9
REMARK    5  A    between atoms: N_13  and  C_14
REMARK    6  A    between atoms: C_15  and  N_16
REMARK    7  A    between atoms: C_23  and  C_24
REMARK                            x       y       z     vdW  Elec       q    Type
REMARK                         _______ _______ _______ _____ _____    ______ ____
ROOT
ATOM      1  C   UNL     1       7.876   6.876  18.193  0.00  0.00    +0.000 C 
ATOM      2  C   UNL     1       6.717   6.033  17.685  0.00  0.00    +0.000 C 
ATOM      3  N   UNL     1       7.041   4.887  17.207  0.00  0.00    +0.000 NA
ATOM      4  C   UNL     1       6.118   3.920  16.658  0.00  0.00    +0.000 C 
ATOM      5  C   UNL     1       4.871   4.521  16.040  0.00  0.00    +0.000 C 
ATOM      6  C   UNL     1       3.785   4.899  17.052  0.00  0.00    +0.000 C 
ATOM      7  C   UNL     1       3.951   6.052  17.751  0.00  0.00    +0.000 C 
ATOM      8  C   UNL     1       5.343   6.697  17.826  0.00  0.00    +0.000 C 
ENDROOT
BRANCH   7   9
ATOM      9  N   UNL     1       2.951   6.793  18.435  0.00  0.00    +0.000 N 
ATOM     10  C   UNL     1       2.303   8.039  18.019  0.00  0.00    +0.000 C 
ATOM     11  C   UNL     1       1.562   8.517  19.240  0.00  0.00    +0.000 A 
ATOM     12  C   UNL     1       1.757   7.610  20.268  0.00  0.00    +0.000 A 
ATOM     13  C   UNL     1       1.294   7.793  21.563  0.00  0.00    +0.000 A 
ATOM     14  C   UNL     1       0.598   8.962  21.839  0.00  0.00    +0.000 A 
ATOM     15  C   UNL     1       0.364   9.892  20.811  0.00  0.00    +0.000 A 
ATOM     16  C   UNL     1       0.831   9.680  19.491  0.00  0.00    +0.000 A 
ATOM     17  C   UNL     1       2.593   6.524  19.783  0.00  0.00    +0.000 C 
ATOM     18  O   UNL     1       2.917   5.623  20.537  0.00  0.00    +0.000 OA
BRANCH  16  19
ATOM     19  C   UNL     1       0.522  10.720  18.449  0.00  0.00    +0.000 C 
ATOM     20  F   UNL     1       1.630  11.246  17.863  0.00  0.00    +0.000 F 
ATOM     21  F   UNL     1      -0.236  10.219  17.435  0.00  0.00    +0.000 F 
ATOM     22  F   UNL     1      -0.175  11.772  18.955  0.00  0.00    +0.000 F 
ENDBRANCH  16  19
ENDBRANCH   7   9
BRANCH   6  23
ATOM     23  C   UNL     1       2.637   3.886  17.040  0.00  0.00    +0.000 C 
BRANCH  23  24
ATOM     24  C   UNL     1       3.018   2.729  17.967  0.00  0.00    +0.000 C 
BRANCH  24  25
ATOM     25  C   UNL     1       2.467   2.762  19.351  0.00  0.00    +0.000 A 
ATOM     26  N   UNL     1       1.225   2.932  19.743  0.00  0.00    +0.000 NA
ATOM     27  N   UNL     1       1.175   2.721  21.108  0.00  0.00    +0.000 NA
ATOM     28  C   UNL     1       2.392   2.418  21.511  0.00  0.00    +0.000 A 
ATOM     29  N   UNL     1       3.234   2.459  20.448  0.00  0.00    +0.000 N 
ATOM     30  C   UNL     1       4.644   2.177  20.458  0.00  0.00    +0.000 C 
ENDBRANCH  24  25
ENDBRANCH  23  24
ENDBRANCH   6  23
TORSDOF 5
ENDMDL
MODEL 8
REMARK VINA RESULT:      -8.7      2.055      4.761
REMARK  Name = 
REMARK  7 active torsions:
REMARK  status: ('A' for Active; 'I' for Inactive)
REMARK    1  A    between atoms: C_1  and  C_2
REMARK    2  A    between atoms: C_6  and  C_7
REMARK    3  A    between atoms: C_7  and  C_8
REMARK    4  A    between atoms: C_8  and  C_9
REMARK    5  A    between atoms: N_13  and  C_14
REMARK    6  A    between atoms: C_15  and  N_16
REMARK    7  A    between atoms: C_23  and  C_24
REMARK                            x       y       z     vdW  Elec       q    Type
REMARK                         _______ _______ _______ _____ _____    ______ ____
ROOT
ATOM      1  C   UNL     1       0.420   2.060  18.705  0.00  0.00    +0.000 C 
ATOM      2  C   UNL     1       1.811   2.612  18.981  0.00  0.00    +0.000 C 
ATOM      3  N   UNL     1       2.779   1.816  18.711  0.00  0.00    +0.000 NA
ATOM      4  C   UNL     1       4.181   2.112  18.900  0.00  0.00    +0.000 C 
ATOM      5  C   UNL     1       4.473   3.085  20.023  0.00  0.00    +0.000 C 
ATOM      6  C   UNL     1       4.269   4.558  19.652  0.00  0.00    +0.000 C 
ATOM      7  C   UNL     1       2.995   5.029  19.623  0.00  0.00    +0.000 C 
ATOM      8  C   UNL     1       1.825   4.037  19.545  0.00  0.00    +0.000 C 
ENDROOT
BRANCH   7   9
ATOM      9  N   UNL     1       2.580   6.385  19.686  0.00  0.00    +0.000 N 
ATOM     10  C   UNL     1       1.774   7.039  20.719  0.00  0.00    +0.000 C 
ATOM     11  C   UNL     1       1.400   8.374  20.131  0.00  0.00    +0.000 A 
ATOM     12  C   UNL     1       1.959   8.483  18.869  0.00  0.00    +0.000 A 
ATOM     13  C   UNL     1       1.732   9.547  18.008  0.00  0.00    +0.000 A 
ATOM     14  C   UNL     1       0.886  10.559  18.444  0.00  0.00    +0.000 A 
ATOM     15  C   UNL     1       0.322  10.489  19.730  0.00  0.00    +0.000 A 
ATOM     16  C   UNL     1       0.578   9.402  20.600  0.00  0.00    +0.000 A 
ATOM     17  C   UNL     1       2.713   7.273  18.585  0.00  0.00    +0.000 C 
ATOM     18  O   UNL     1       3.267   7.142  17.507  0.00  0.00    +0.000 OA
BRANCH  16  19
ATOM     19  C   UNL     1      -0.056   9.415  21.964  0.00  0.00    +0.000 C 
ATOM     20  F   UNL     1      -0.883   8.360  22.188  0.00  0.00    +0.000 F 
ATOM     21  F   UNL     1       0.872   9.381  22.960  0.00  0.00    +0.000 F 
ATOM     22  F   UNL     1      -0.799  10.533  22.181  0.00  0.00    +0.000 F 
ENDBRANCH  16  19
ENDBRANCH   7   9
BRANCH   6  23
ATOM     23  C   UNL     1       5.609   5.265  19.431  0.00  0.00    +0.000 C 
BRANCH  23  24
ATOM     24  C   UNL     1       6.407   4.455  18.406  0.00  0.00    +0.000 C 
BRANCH  24  25
ATOM     25  C   UNL     1       6.082   4.676  16.969  0.00  0.00    +0.000 A 
ATOM     26  N   UNL     1       5.492   3.865  16.120  0.00  0.00    +0.000 NA
ATOM     27  N   UNL     1       5.258   4.565  14.952  0.00  0.00    +0.000 NA
ATOM     28  C   UNL     1       5.705   5.793  15.125  0.00  0.00    +0.000 A 
ATOM     29  N   UNL     1       6.250   5.895  16.363  0.00  0.00    +0.000 N 
ATOM     30  C   UNL     1       6.835   7.072  16.949  0.00  0.00    +0.000 C 
ENDBRANCH  24  25
ENDBRANCH  23  24
ENDBRANCH   6  23
TORSDOF 5
ENDMDL
MODEL 9
REMARK VINA RESULT:      -8.7      2.092      5.083
REMARK  Name = 
REMARK  7 active torsions:
REMARK  status: ('A' for Active; 'I' for Inactive)
REMARK    1  A    between atoms: C_1  and  C_2
REMARK    2  A    between atoms: C_6  and  C_7
REMARK    3  A    between atoms: C_7  and  C_8
REMARK    4  A    between atoms: C_8  and  C_9
REMARK    5  A    between atoms: N_13  and  C_14
REMARK    6  A    between atoms: C_15  and  N_16
REMARK    7  A    between atoms: C_23  and  C_24
REMARK                            x       y       z     vdW  Elec       q    Type
REMARK                         _______ _______ _______ _____ _____    ______ ____
ROOT
ATOM      1  C   UNL     1       1.428   2.532  21.772  0.00  0.00    +0.000 C 
ATOM      2  C   UNL     1       2.345   3.157  20.732  0.00  0.00    +0.000 C 
ATOM      3  N   UNL     1       2.936   2.327  19.954  0.00  0.00    +0.000 NA
ATOM      4  C   UNL     1       3.859   2.681  18.900  0.00  0.00    +0.000 C 
ATOM      5  C   UNL     1       4.633   3.960  19.147  0.00  0.00    +0.000 C 
ATOM      6  C   UNL     1       3.857   5.241  18.822  0.00  0.00    +0.000 C 
ATOM      7  C   UNL     1       2.938   5.666  19.726  0.00  0.00    +0.000 C 
ATOM      8  C   UNL     1       2.415   4.687  20.788  0.00  0.00    +0.000 C 
ENDROOT
BRANCH   7   9
ATOM      9  N   UNL     1       2.386   6.969  19.843  0.00  0.00    +0.000 N 
ATOM     10  C   UNL     1       1.640   7.539  20.967  0.00  0.00    +0.000 C 
ATOM     11  C   UNL     1       1.056   8.821  20.433  0.00  0.00    +0.000 A 
ATOM     12  C   UNL     1       1.449   8.980  19.115  0.00  0.00    +0.000 A 
ATOM     13  C   UNL     1       1.008  10.005  18.291  0.00  0.00    +0.000 A 
ATOM     14  C   UNL     1       0.114  10.923  18.827  0.00  0.00    +0.000 A 
ATOM     15  C   UNL     1      -0.286  10.802  20.170  0.00  0.00    +0.000 A 
ATOM     16  C   UNL     1       0.188   9.757  20.999  0.00  0.00    +0.000 A 
ATOM     17  C   UNL     1       2.292   7.857  18.738  0.00  0.00    +0.000 C 
ATOM     18  O   UNL     1       2.728   7.778  17.603  0.00  0.00    +0.000 OA
BRANCH  16  19
ATOM     19  C   UNL     1      -0.279   9.712  22.429  0.00  0.00    +0.000 C 
ATOM     20  F   UNL     1       0.736   9.712  23.332  0.00  0.00    +0.000 F 
ATOM     21  F   UNL     1      -1.061  10.781  22.745  0.00  0.00    +0.000 F 
ATOM     22  F   UNL     1      -1.027   8.608  22.697  0.00  0.00    +0.000 F 
ENDBRANCH  16  19
ENDBRANCH   7   9
BRANCH   6  23
ATOM     23  C   UNL     1       4.331   5.857  17.502  0.00  0.00    +0.000 C 
BRANCH  23  24
ATOM     24  C   UNL     1       5.805   5.493  17.313  0.00  0.00    +0.000 C 
BRANCH  24  25
ATOM     25  C   UNL     1       6.799   6.591  17.477  0.00  0.00    +0.000 A 
ATOM     26  N   UNL     1       6.902   7.721  16.815  0.00  0.00    +0.000 NA
ATOM     27  N   UNL     1       7.871   8.491  17.429  0.00  0.00    +0.000 NA
ATOM     28  C   UNL     1       8.328   7.809  18.460  0.00  0.00    +0.000 A 
ATOM     29  N   UNL     1       7.703   6.607  18.509  0.00  0.00    +0.000 N 
ATOM     30  C   UNL     1       7.904   5.574  19.491  0.00  0.00    +0.000 C 
ENDBRANCH  24  25
ENDBRANCH  23  24
ENDBRANCH   6  23
TORSDOF 5
ENDMDL
