MODEL 1
REMARK VINA RESULT:      -8.6      0.000      0.000
REMARK  Name = 
REMARK  3 active torsions:
REMARK  status: ('A' for Active; 'I' for Inactive)
REMARK    1  A    between atoms: C_2  and  C_20
REMARK    2  A    between atoms: N_10  and  C_11
REMARK    3  A    between atoms: C_11  and  C_12
REMARK                            x       y       z     vdW  Elec       q    Type
REMARK                         _______ _______ _______ _____ _____    ______ ____
ROOT
ATOM      1  O   UNL     1       2.087  11.396  18.084  0.00  0.00    +0.000 OA
ATOM      2  C   UNL     1       1.222  10.577  18.538  0.00  0.00    +0.000 C 
ATOM      3  N   UNL     1      -0.054  11.744  19.166  0.00  0.00    +0.000 N 
ATOM      4  C   UNL     1      -1.573  12.504  19.770  0.00  0.00    +0.000 A 
ATOM      5  N   UNL     1      -1.855  13.791  20.447  0.00  0.00    +0.000 NA
ATOM      6  C   UNL     1      -3.413  14.290  20.898  0.00  0.00    +0.000 A 
ATOM      7  C   UNL     1      -4.388  13.459  20.397  0.00  0.00    +0.000 A 
ATOM      8  S   UNL     1      -3.458  12.029  19.437  0.00  0.00    +0.000 S 
ATOM      9  C   UNL     1      -6.054  13.656  20.765  0.00  0.00    +0.000 C 
ATOM     10  N   UNL     1      -6.545  14.919  21.536  0.00  0.00    +0.000 NA
ATOM     11  C   UNL     1      -5.514  15.299  22.503  0.00  0.00    +0.000 C 
ATOM     12  C   UNL     1      -4.050  15.564  21.844  0.00  0.00    +0.000 C 
ATOM     13  H   UNL     1       0.446  12.655  19.133  0.00  0.00    +0.000 HD
ENDROOT
BRANCH   2  14
ATOM     14  C   UNL     1       1.978   8.694  18.356  0.00  0.00    +0.000 A 
ATOM     15  C   UNL     1       1.784   8.319  19.624  0.00  0.00    +0.000 A 
ATOM     16  C   UNL     1       2.130   6.887  19.800  0.00  0.00    +0.000 A 
ATOM     17  C   UNL     1       2.724   5.506  18.919  0.00  0.00    +0.000 A 
ATOM     18  C   UNL     1       1.910   4.491  17.955  0.00  0.00    +0.000 A 
ATOM     19  O   UNL     1       0.932   4.840  17.285  0.00  0.00    +0.000 OA
ATOM     20  N   UNL     1       2.380   2.892  18.197  0.00  0.00    +0.000 N 
ATOM     21  C   UNL     1       3.816   1.726  17.843  0.00  0.00    +0.000 A 
ATOM     22  N   UNL     1       4.007   3.485  17.447  0.00  0.00    +0.000 NA
ATOM     23  C   UNL     1       3.441   5.453  17.820  0.00  0.00    +0.000 A 
ATOM     24  C   UNL     1       2.729   7.143  17.539  0.00  0.00    +0.000 A 
ATOM     25  C   UNL     1       3.800   1.422  19.656  0.00  0.00    +0.000 C 
ATOM     26  C   UNL     1       3.795   2.532  20.795  0.00  0.00    +0.000 C 
ATOM     27  C   UNL     1       2.326   2.633  21.276  0.00  0.00    +0.000 C 
ATOM     28  C   UNL     1       1.809   3.726  20.497  0.00  0.00    +0.000 C 
ATOM     29  C   UNL     1       1.307   2.976  19.231  0.00  0.00    +0.000 C 
ENDBRANCH   2  14
BRANCH  10  30
ATOM     30  C   UNL     1      -7.145  16.057  20.759  0.00  0.00    +0.000 C 
BRANCH  30  31
ATOM     31  C   UNL     1      -7.051  16.143  19.181  0.00  0.00    +0.000 A 
ATOM     32  C   UNL     1      -7.818  15.244  18.408  0.00  0.00    +0.000 A 
ATOM     33  C   UNL     1      -7.916  15.314  17.053  0.00  0.00    +0.000 A 
ATOM     34  C   UNL     1      -7.291  16.313  16.347  0.00  0.00    +0.000 A 
ATOM     35  C   UNL     1      -6.643  17.293  17.077  0.00  0.00    +0.000 A 
ATOM     36  C   UNL     1      -6.414  17.167  18.439  0.00  0.00    +0.000 A 
ENDBRANCH  30  31
ENDBRANCH  10  30
TORSDOF 3
ENDMDL
MODEL 2
REMARK VINA RESULT:      -8.5      4.221     13.913
REMARK  Name = 
REMARK  3 active torsions:
REMARK  status: ('A' for Active; 'I' for Inactive)
REMARK    1  A    between atoms: C_2  and  C_20
REMARK    2  A    between atoms: N_10  and  C_11
REMARK    3  A    between atoms: C_11  and  C_12
REMARK                            x       y       z     vdW  Elec       q    Type
REMARK                         _______ _______ _______ _____ _____    ______ ____
ROOT
ATOM      1  O   UNL     1      -1.110   8.334  22.408  0.00  0.00    +0.000 OA
ATOM      2  C   UNL     1      -0.326   9.186  21.876  0.00  0.00    +0.000 C 
ATOM      3  N   UNL     1       0.891   8.067  21.067  0.00  0.00    +0.000 N 
ATOM      4  C   UNL     1       2.190   7.361  20.035  0.00  0.00    +0.000 A 
ATOM      5  N   UNL     1       2.969   6.104  20.118  0.00  0.00    +0.000 NA
ATOM      6  C   UNL     1       4.142   5.653  18.979  0.00  0.00    +0.000 A 
ATOM      7  C   UNL     1       4.147   6.486  17.884  0.00  0.00    +0.000 A 
ATOM      8  S   UNL     1       2.799   7.863  18.229  0.00  0.00    +0.000 S 
ATOM      9  C   UNL     1       5.289   6.336  16.609  0.00  0.00    +0.000 C 
ATOM     10  N   UNL     1       6.251   5.111  16.556  0.00  0.00    +0.000 NA
ATOM     11  C   UNL     1       6.607   4.743  17.927  0.00  0.00    +0.000 C 
ATOM     12  C   UNL     1       5.329   4.426  18.883  0.00  0.00    +0.000 C 
ATOM     13  H   UNL     1       0.656   7.146  21.487  0.00  0.00    +0.000 HD
ENDROOT
BRANCH   2  14
ATOM     14  C   UNL     1      -0.929  11.045  22.449  0.00  0.00    +0.000 A 
ATOM     15  C   UNL     1      -0.070  11.735  21.692  0.00  0.00    +0.000 A 
ATOM     16  C   UNL     1      -0.346  13.189  21.786  0.00  0.00    +0.000 A 
ATOM     17  C   UNL     1      -1.408  14.331  22.565  0.00  0.00    +0.000 A 
ATOM     18  C   UNL     1      -2.913  14.761  22.151  0.00  0.00    +0.000 A 
ATOM     19  O   UNL     1      -3.703  13.990  21.596  0.00  0.00    +0.000 OA
ATOM     20  N   UNL     1      -3.152  16.421  22.313  0.00  0.00    +0.000 N 
ATOM     21  C   UNL     1      -3.376  17.738  23.639  0.00  0.00    +0.000 A 
ATOM     22  N   UNL     1      -2.964  16.048  24.153  0.00  0.00    +0.000 NA
ATOM     23  C   UNL     1      -2.097  14.218  23.676  0.00  0.00    +0.000 A 
ATOM     24  C   UNL     1      -1.944  12.403  23.324  0.00  0.00    +0.000 A 
ATOM     25  C   UNL     1      -1.963  18.575  22.814  0.00  0.00    +0.000 C 
ATOM     26  C   UNL     1      -0.572  17.908  22.426  0.00  0.00    +0.000 C 
ATOM     27  C   UNL     1      -0.663  17.599  20.911  0.00  0.00    +0.000 C 
ATOM     28  C   UNL     1      -1.090  16.226  20.890  0.00  0.00    +0.000 C 
ATOM     29  C   UNL     1      -2.635  16.397  20.912  0.00  0.00    +0.000 C 
ENDBRANCH   2  14
BRANCH  10  30
ATOM     30  C   UNL     1       5.911   3.960  15.651  0.00  0.00    +0.000 C 
BRANCH  30  31
ATOM     31  C   UNL     1       6.153   4.014  14.088  0.00  0.00    +0.000 A 
ATOM     32  C   UNL     1       7.231   4.782  13.597  0.00  0.00    +0.000 A 
ATOM     33  C   UNL     1       7.610   4.795  12.291  0.00  0.00    +0.000 A 
ATOM     34  C   UNL     1       6.973   4.011  11.360  0.00  0.00    +0.000 A 
ATOM     35  C   UNL     1       6.002   3.142  11.823  0.00  0.00    +0.000 A 
ATOM     36  C   UNL     1       5.507   3.211  13.117  0.00  0.00    +0.000 A 
ENDBRANCH  30  31
ENDBRANCH  10  30
TORSDOF 3
ENDMDL
MODEL 3
REMARK VINA RESULT:      -8.4      3.086     13.415
REMARK  Name = 
REMARK  3 active torsions:
REMARK  status: ('A' for Active; 'I' for Inactive)
REMARK    1  A    between atoms: C_2  and  C_20
REMARK    2  A    between atoms: N_10  and  C_11
REMARK    3  A    between atoms: C_11  and  C_12
REMARK                            x       y       z     vdW  Elec       q    Type
REMARK                         _______ _______ _______ _____ _____    ______ ____
ROOT
ATOM      1  O   UNL     1       0.468  13.030  18.122  0.00  0.00    +0.000 OA
ATOM      2  C   UNL     1      -0.101  12.326  19.018  0.00  0.00    +0.000 C 
ATOM      3  N   UNL     1       0.701  10.695  18.729  0.00  0.00    +0.000 N 
ATOM      4  C   UNL     1       1.322   9.009  18.875  0.00  0.00    +0.000 A 
ATOM      5  N   UNL     1       1.846   8.040  17.884  0.00  0.00    +0.000 NA
ATOM      6  C   UNL     1       2.402   6.491  18.295  0.00  0.00    +0.000 A 
ATOM      7  C   UNL     1       2.488   6.315  19.657  0.00  0.00    +0.000 A 
ATOM      8  S   UNL     1       1.838   7.973  20.471  0.00  0.00    +0.000 S 
ATOM      9  C   UNL     1       2.929   4.818  20.374  0.00  0.00    +0.000 C 
ATOM     10  N   UNL     1       3.444   3.643  19.487  0.00  0.00    +0.000 NA
ATOM     11  C   UNL     1       2.728   3.681  18.210  0.00  0.00    +0.000 C 
ATOM     12  C   UNL     1       2.858   5.096  17.418  0.00  0.00    +0.000 C 
ATOM     13  H   UNL     1       1.176  10.844  17.816  0.00  0.00    +0.000 HD
ENDROOT
BRANCH   2  14
ATOM     14  C   UNL     1      -1.510  13.481  19.929  0.00  0.00    +0.000 A 
ATOM     15  C   UNL     1      -2.537  12.639  19.770  0.00  0.00    +0.000 A 
ATOM     16  C   UNL     1      -3.741  13.151  20.468  0.00  0.00    +0.000 A 
ATOM     17  C   UNL     1      -4.297  14.496  21.427  0.00  0.00    +0.000 A 
ATOM     18  C   UNL     1      -4.096  14.764  23.011  0.00  0.00    +0.000 A 
ATOM     19  O   UNL     1      -3.105  14.376  23.638  0.00  0.00    +0.000 OA
ATOM     20  N   UNL     1      -5.498  15.370  23.721  0.00  0.00    +0.000 N 
ATOM     21  C   UNL     1      -6.523  16.947  23.808  0.00  0.00    +0.000 A 
ATOM     22  N   UNL     1      -5.123  16.883  22.658  0.00  0.00    +0.000 NA
ATOM     23  C   UNL     1      -3.842  15.726  21.495  0.00  0.00    +0.000 A 
ATOM     24  C   UNL     1      -2.275  14.944  20.883  0.00  0.00    +0.000 A 
ATOM     25  C   UNL     1      -7.915  15.876  23.266  0.00  0.00    +0.000 C 
ATOM     26  C   UNL     1      -7.903  14.872  22.033  0.00  0.00    +0.000 C 
ATOM     27  C   UNL     1      -7.678  13.465  22.641  0.00  0.00    +0.000 C 
ATOM     28  C   UNL     1      -6.254  13.292  22.528  0.00  0.00    +0.000 C 
ATOM     29  C   UNL     1      -5.774  13.911  23.872  0.00  0.00    +0.000 C 
ENDBRANCH   2  14
BRANCH  10  30
ATOM     30  C   UNL     1       4.924   3.405  19.386  0.00  0.00    +0.000 C 
BRANCH  30  31
ATOM     31  C   UNL     1       5.884   4.382  18.592  0.00  0.00    +0.000 A 
ATOM     32  C   UNL     1       6.127   4.127  17.224  0.00  0.00    +0.000 A 
ATOM     33  C   UNL     1       6.825   4.969  16.416  0.00  0.00    +0.000 A 
ATOM     34  C   UNL     1       7.310   6.165  16.888  0.00  0.00    +0.000 A 
ATOM     35  C   UNL     1       6.976   6.516  18.183  0.00  0.00    +0.000 A 
ATOM     36  C   UNL     1       6.388   5.618  19.062  0.00  0.00    +0.000 A 
ENDBRANCH  30  31
ENDBRANCH  10  30
TORSDOF 3
ENDMDL
MODEL 4
REMARK VINA RESULT:      -8.4      4.113     13.961
REMARK  Name = 
REMARK  3 active torsions:
REMARK  status: ('A' for Active; 'I' for Inactive)
REMARK    1  A    between atoms: C_2  and  C_20
REMARK    2  A    between atoms: N_10  and  C_11
REMARK    3  A    between atoms: C_11  and  C_12
REMARK                            x       y       z     vdW  Elec       q    Type
REMARK                         _______ _______ _______ _____ _____    ______ ____
ROOT
ATOM      1  O   UNL     1      -0.988   8.284  22.153  0.00  0.00    +0.000 OA
ATOM      2  C   UNL     1      -0.210   9.140  21.620  0.00  0.00    +0.000 C 
ATOM      3  N   UNL     1       1.039   8.030  20.848  0.00  0.00    +0.000 N 
ATOM      4  C   UNL     1       2.365   7.330  19.848  0.00  0.00    +0.000 A 
ATOM      5  N   UNL     1       3.164   6.087  19.963  0.00  0.00    +0.000 NA
ATOM      6  C   UNL     1       4.363   5.639  18.850  0.00  0.00    +0.000 A 
ATOM      7  C   UNL     1       4.371   6.455  17.742  0.00  0.00    +0.000 A 
ATOM      8  S   UNL     1       2.995   7.814  18.044  0.00  0.00    +0.000 S 
ATOM      9  C   UNL     1       5.536   6.305  16.488  0.00  0.00    +0.000 C 
ATOM     10  N   UNL     1       6.519   5.096  16.469  0.00  0.00    +0.000 NA
ATOM     11  C   UNL     1       6.859   4.755  17.852  0.00  0.00    +0.000 C 
ATOM     12  C   UNL     1       5.571   4.431  18.791  0.00  0.00    +0.000 C 
ATOM     13  H   UNL     1       0.812   7.112  21.279  0.00  0.00    +0.000 HD
ENDROOT
BRANCH   2  14
ATOM     14  C   UNL     1      -0.853  10.998  22.154  0.00  0.00    +0.000 A 
ATOM     15  C   UNL     1      -1.291  11.370  20.947  0.00  0.00    +0.000 A 
ATOM     16  C   UNL     1      -1.966  12.689  21.024  0.00  0.00    +0.000 A 
ATOM     17  C   UNL     1      -2.381  13.948  22.156  0.00  0.00    +0.000 A 
ATOM     18  C   UNL     1      -3.624  14.011  23.193  0.00  0.00    +0.000 A 
ATOM     19  O   UNL     1      -4.115  13.005  23.715  0.00  0.00    +0.000 OA
ATOM     20  N   UNL     1      -4.315  15.546  23.241  0.00  0.00    +0.000 N 
ATOM     21  C   UNL     1      -3.971  17.279  23.891  0.00  0.00    +0.000 A 
ATOM     22  N   UNL     1      -2.668  16.025  24.025  0.00  0.00    +0.000 NA
ATOM     23  C   UNL     1      -1.832  14.261  23.306  0.00  0.00    +0.000 A 
ATOM     24  C   UNL     1      -1.262  12.496  23.261  0.00  0.00    +0.000 A 
ATOM     25  C   UNL     1      -4.247  17.808  22.153  0.00  0.00    +0.000 C 
ATOM     26  C   UNL     1      -3.572  17.175  20.859  0.00  0.00    +0.000 C 
ATOM     27  C   UNL     1      -4.639  16.234  20.246  0.00  0.00    +0.000 C 
ATOM     28  C   UNL     1      -4.291  14.953  20.800  0.00  0.00    +0.000 C 
ATOM     29  C   UNL     1      -5.113  14.968  22.119  0.00  0.00    +0.000 C 
ENDBRANCH   2  14
BRANCH  10  30
ATOM     30  C   UNL     1       6.213   3.925  15.578  0.00  0.00    +0.000 C 
BRANCH  30  31
ATOM     31  C   UNL     1       6.290   4.022  14.000  0.00  0.00    +0.000 A 
ATOM     32  C   UNL     1       7.322   4.792  13.419  0.00  0.00    +0.000 A 
ATOM     33  C   UNL     1       7.562   4.838  12.082  0.00  0.00    +0.000 A 
ATOM     34  C   UNL     1       6.821   4.088  11.202  0.00  0.00    +0.000 A 
ATOM     35  C   UNL     1       5.891   3.217  11.740  0.00  0.00    +0.000 A 
ATOM     36  C   UNL     1       5.536   3.254  13.080  0.00  0.00    +0.000 A 
ENDBRANCH  30  31
ENDBRANCH  10  30
TORSDOF 3
ENDMDL
MODEL 5
REMARK VINA RESULT:      -8.3      1.226      1.754
REMARK  Name = 
REMARK  3 active torsions:
REMARK  status: ('A' for Active; 'I' for Inactive)
REMARK    1  A    between atoms: C_2  and  C_20
REMARK    2  A    between atoms: N_10  and  C_11
REMARK    3  A    between atoms: C_11  and  C_12
REMARK                            x       y       z     vdW  Elec       q    Type
REMARK                         _______ _______ _______ _____ _____    ______ ____
ROOT
ATOM      1  O   UNL     1       1.917  11.564  17.973  0.00  0.00    +0.000 OA
ATOM      2  C   UNL     1       1.298  10.864  18.840  0.00  0.00    +0.000 C 
ATOM      3  N   UNL     1       0.290  12.163  19.666  0.00  0.00    +0.000 N 
ATOM      4  C   UNL     1      -0.940  13.064  20.628  0.00  0.00    +0.000 A 
ATOM      5  N   UNL     1      -1.006  14.458  21.125  0.00  0.00    +0.000 NA
ATOM      6  C   UNL     1      -2.317  15.076  22.006  0.00  0.00    +0.000 A 
ATOM      7  C   UNL     1      -3.379  14.202  22.037  0.00  0.00    +0.000 A 
ATOM      8  S   UNL     1      -2.803  12.597  21.075  0.00  0.00    +0.000 S 
ATOM      9  C   UNL     1      -4.811  14.512  22.934  0.00  0.00    +0.000 C 
ATOM     10  N   UNL     1      -5.038  15.905  23.595  0.00  0.00    +0.000 NA
ATOM     11  C   UNL     1      -3.744  16.417  24.050  0.00  0.00    +0.000 C 
ATOM     12  C   UNL     1      -2.620  16.516  22.878  0.00  0.00    +0.000 C 
ATOM     13  H   UNL     1       0.715  13.038  19.299  0.00  0.00    +0.000 HD
ENDROOT
BRANCH   2  14
ATOM     14  C   UNL     1       2.003   8.956  18.733  0.00  0.00    +0.000 A 
ATOM     15  C   UNL     1       1.539   8.546  19.918  0.00  0.00    +0.000 A 
ATOM     16  C   UNL     1       1.786   7.094  20.098  0.00  0.00    +0.000 A 
ATOM     17  C   UNL     1       2.495   5.719  19.296  0.00  0.00    +0.000 A 
ATOM     18  C   UNL     1       1.858   4.778  18.142  0.00  0.00    +0.000 A 
ATOM     19  O   UNL     1       1.052   5.194  17.304  0.00  0.00    +0.000 OA
ATOM     20  N   UNL     1       2.207   3.151  18.405  0.00  0.00    +0.000 N 
ATOM     21  C   UNL     1       3.639   1.933  18.300  0.00  0.00    +0.000 A 
ATOM     22  N   UNL     1       3.974   3.694  18.029  0.00  0.00    +0.000 NA
ATOM     23  C   UNL     1       3.420   5.671  18.364  0.00  0.00    +0.000 A 
ATOM     24  C   UNL     1       2.846   7.401  18.020  0.00  0.00    +0.000 A 
ATOM     25  C   UNL     1       3.240   1.566  20.056  0.00  0.00    +0.000 C 
ATOM     26  C   UNL     1       3.044   2.634  21.218  0.00  0.00    +0.000 C 
ATOM     27  C   UNL     1       1.512   2.786  21.393  0.00  0.00    +0.000 C 
ATOM     28  C   UNL     1       1.209   3.929  20.575  0.00  0.00    +0.000 C 
ATOM     29  C   UNL     1       0.948   3.248  19.201  0.00  0.00    +0.000 C 
ENDBRANCH   2  14
BRANCH  10  30
ATOM     30  C   UNL     1      -5.913  16.907  22.895  0.00  0.00    +0.000 C 
BRANCH  30  31
ATOM     31  C   UNL     1      -6.199  16.838  21.340  0.00  0.00    +0.000 A 
ATOM     32  C   UNL     1      -5.226  17.344  20.451  0.00  0.00    +0.000 A 
ATOM     33  C   UNL     1      -5.307  17.217  19.099  0.00  0.00    +0.000 A 
ATOM     34  C   UNL     1      -6.346  16.538  18.511  0.00  0.00    +0.000 A 
ATOM     35  C   UNL     1      -7.248  15.910  19.352  0.00  0.00    +0.000 A 
ATOM     36  C   UNL     1      -7.263  16.140  20.720  0.00  0.00    +0.000 A 
ENDBRANCH  30  31
ENDBRANCH  10  30
TORSDOF 3
ENDMDL
MODEL 6
REMARK VINA RESULT:      -8.3      2.346      3.032
REMARK  Name = 
REMARK  3 active torsions:
REMARK  status: ('A' for Active; 'I' for Inactive)
REMARK    1  A    between atoms: C_2  and  C_20
REMARK    2  A    between atoms: N_10  and  C_11
REMARK    3  A    between atoms: C_11  and  C_12
REMARK                            x       y       z     vdW  Elec       q    Type
REMARK                         _______ _______ _______ _____ _____    ______ ____
ROOT
ATOM      1  O   UNL     1       1.222  11.274  17.926  0.00  0.00    +0.000 OA
ATOM      2  C   UNL     1       1.078  10.666  19.036  0.00  0.00    +0.000 C 
ATOM      3  N   UNL     1       0.364  12.011  20.070  0.00  0.00    +0.000 N 
ATOM      4  C   UNL     1      -0.457  12.968  21.358  0.00  0.00    +0.000 A 
ATOM      5  N   UNL     1      -0.454  14.411  21.695  0.00  0.00    +0.000 NA
ATOM      6  C   UNL     1      -1.354  15.075  22.971  0.00  0.00    +0.000 A 
ATOM      7  C   UNL     1      -2.220  14.160  23.524  0.00  0.00    +0.000 A 
ATOM      8  S   UNL     1      -1.925  12.474  22.576  0.00  0.00    +0.000 S 
ATOM      9  C   UNL     1      -3.193  14.515  24.895  0.00  0.00    +0.000 C 
ATOM     10  N   UNL     1      -3.271  15.971  25.448  0.00  0.00    +0.000 NA
ATOM     11  C   UNL     1      -1.961  16.601  25.276  0.00  0.00    +0.000 C 
ATOM     12  C   UNL     1      -1.420  16.600  23.742  0.00  0.00    +0.000 C 
ATOM     13  H   UNL     1       0.517  12.849  19.475  0.00  0.00    +0.000 HD
ENDROOT
BRANCH   2  14
ATOM     14  C   UNL     1       1.865   8.797  18.840  0.00  0.00    +0.000 A 
ATOM     15  C   UNL     1       1.482   8.334  20.034  0.00  0.00    +0.000 A 
ATOM     16  C   UNL     1       1.805   6.892  20.160  0.00  0.00    +0.000 A 
ATOM     17  C   UNL     1       2.536   5.574  19.285  0.00  0.00    +0.000 A 
ATOM     18  C   UNL     1       1.885   4.633  18.138  0.00  0.00    +0.000 A 
ATOM     19  O   UNL     1       1.019   5.032  17.354  0.00  0.00    +0.000 OA
ATOM     20  N   UNL     1       2.323   3.019  18.337  0.00  0.00    +0.000 N 
ATOM     21  C   UNL     1       3.803   1.874  18.126  0.00  0.00    +0.000 A 
ATOM     22  N   UNL     1       4.041   3.656  17.888  0.00  0.00    +0.000 NA
ATOM     23  C   UNL     1       3.413   5.595  18.308  0.00  0.00    +0.000 A 
ATOM     24  C   UNL     1       2.742   7.304  18.041  0.00  0.00    +0.000 A 
ATOM     25  C   UNL     1       3.513   1.443  19.889  0.00  0.00    +0.000 C 
ATOM     26  C   UNL     1       3.327   2.470  21.089  0.00  0.00    +0.000 C 
ATOM     27  C   UNL     1       1.801   2.543  21.345  0.00  0.00    +0.000 C 
ATOM     28  C   UNL     1       1.402   3.692  20.576  0.00  0.00    +0.000 C 
ATOM     29  C   UNL     1       1.104   3.035  19.198  0.00  0.00    +0.000 C 
ENDBRANCH   2  14
BRANCH  10  30
ATOM     30  C   UNL     1      -4.448  16.828  25.074  0.00  0.00    +0.000 C 
BRANCH  30  31
ATOM     31  C   UNL     1      -5.329  16.539  23.791  0.00  0.00    +0.000 A 
ATOM     32  C   UNL     1      -6.515  15.786  23.941  0.00  0.00    +0.000 A 
ATOM     33  C   UNL     1      -7.411  15.591  22.937  0.00  0.00    +0.000 A 
ATOM     34  C   UNL     1      -7.229  16.163  21.702  0.00  0.00    +0.000 A 
ATOM     35  C   UNL     1      -6.152  17.018  21.554  0.00  0.00    +0.000 A 
ATOM     36  C   UNL     1      -5.156  17.122  22.514  0.00  0.00    +0.000 A 
ENDBRANCH  30  31
ENDBRANCH  10  30
TORSDOF 3
ENDMDL
MODEL 7
REMARK VINA RESULT:      -8.1      3.261     13.577
REMARK  Name = 
REMARK  3 active torsions:
REMARK  status: ('A' for Active; 'I' for Inactive)
REMARK    1  A    between atoms: C_2  and  C_20
REMARK    2  A    between atoms: N_10  and  C_11
REMARK    3  A    between atoms: C_11  and  C_12
REMARK                            x       y       z     vdW  Elec       q    Type
REMARK                         _______ _______ _______ _____ _____    ______ ____
ROOT
ATOM      1  O   UNL     1       0.996  13.492  18.066  0.00  0.00    +0.000 OA
ATOM      2  C   UNL     1       0.334  12.867  18.959  0.00  0.00    +0.000 C 
ATOM      3  N   UNL     1       0.950  11.152  18.700  0.00  0.00    +0.000 N 
ATOM      4  C   UNL     1       1.371   9.408  18.874  0.00  0.00    +0.000 A 
ATOM      5  N   UNL     1       1.799   8.374  17.902  0.00  0.00    +0.000 NA
ATOM      6  C   UNL     1       2.167   6.777  18.338  0.00  0.00    +0.000 A 
ATOM      7  C   UNL     1       2.208   6.608  19.703  0.00  0.00    +0.000 A 
ATOM      8  S   UNL     1       1.738   8.339  20.489  0.00  0.00    +0.000 S 
ATOM      9  C   UNL     1       2.462   5.079  20.442  0.00  0.00    +0.000 C 
ATOM     10  N   UNL     1       2.855   3.843  19.577  0.00  0.00    +0.000 NA
ATOM     11  C   UNL     1       2.172   3.947  18.286  0.00  0.00    +0.000 C 
ATOM     12  C   UNL     1       2.476   5.328  17.483  0.00  0.00    +0.000 C 
ATOM     13  H   UNL     1       1.455  11.235  17.795  0.00  0.00    +0.000 HD
ENDROOT
BRANCH   2  14
ATOM     14  C   UNL     1      -0.950  14.185  19.832  0.00  0.00    +0.000 A 
ATOM     15  C   UNL     1      -1.942  13.318  20.059  0.00  0.00    +0.000 A 
ATOM     16  C   UNL     1      -3.028  13.964  20.835  0.00  0.00    +0.000 A 
ATOM     17  C   UNL     1      -3.476  15.489  21.553  0.00  0.00    +0.000 A 
ATOM     18  C   UNL     1      -3.010  16.118  22.971  0.00  0.00    +0.000 A 
ATOM     19  O   UNL     1      -1.904  15.895  23.474  0.00  0.00    +0.000 OA
ATOM     20  N   UNL     1      -4.294  16.855  23.774  0.00  0.00    +0.000 N 
ATOM     21  C   UNL     1      -5.370  18.398  23.693  0.00  0.00    +0.000 A 
ATOM     22  N   UNL     1      -4.196  18.085  22.347  0.00  0.00    +0.000 NA
ATOM     23  C   UNL     1      -3.083  16.706  21.257  0.00  0.00    +0.000 A 
ATOM     24  C   UNL     1      -1.610  15.821  20.557  0.00  0.00    +0.000 A 
ATOM     25  C   UNL     1      -6.777  17.216  23.673  0.00  0.00    +0.000 C 
ATOM     26  C   UNL     1      -6.931  15.954  22.717  0.00  0.00    +0.000 C 
ATOM     27  C   UNL     1      -6.526  14.728  23.573  0.00  0.00    +0.000 C 
ATOM     28  C   UNL     1      -5.138  14.550  23.240  0.00  0.00    +0.000 C 
ATOM     29  C   UNL     1      -4.461  15.467  24.297  0.00  0.00    +0.000 C 
ENDBRANCH   2  14
BRANCH  10  30
ATOM     30  C   UNL     1       4.301   3.437  19.506  0.00  0.00    +0.000 C 
BRANCH  30  31
ATOM     31  C   UNL     1       5.370   4.263  18.681  0.00  0.00    +0.000 A 
ATOM     32  C   UNL     1       6.063   5.308  19.330  0.00  0.00    +0.000 A 
ATOM     33  C   UNL     1       7.091   5.993  18.762  0.00  0.00    +0.000 A 
ATOM     34  C   UNL     1       7.551   5.671  17.508  0.00  0.00    +0.000 A 
ATOM     35  C   UNL     1       6.991   4.565  16.894  0.00  0.00    +0.000 A 
ATOM     36  C   UNL     1       5.856   3.942  17.391  0.00  0.00    +0.000 A 
ENDBRANCH  30  31
ENDBRANCH  10  30
TORSDOF 3
ENDMDL
MODEL 8
REMARK VINA RESULT:      -7.7      7.348      8.388
REMARK  Name = 
REMARK  3 active torsions:
REMARK  status: ('A' for Active; 'I' for Inactive)
REMARK    1  A    between atoms: C_2  and  C_20
REMARK    2  A    between atoms: N_10  and  C_11
REMARK    3  A    between atoms: C_11  and  C_12
REMARK                            x       y       z     vdW  Elec       q    Type
REMARK                         _______ _______ _______ _____ _____    ______ ____
ROOT
ATOM      1  O   UNL     1       3.690  17.883  20.431  0.00  0.00    +0.000 OA
ATOM      2  C   UNL     1       3.723  16.611  20.360  0.00  0.00    +0.000 C 
ATOM      3  N   UNL     1       2.098  16.187  21.112  0.00  0.00    +0.000 N 
ATOM      4  C   UNL     1       0.586  15.359  21.641  0.00  0.00    +0.000 A 
ATOM      5  N   UNL     1      -0.421  15.670  22.682  0.00  0.00    +0.000 NA
ATOM      6  C   UNL     1      -1.797  14.720  22.966  0.00  0.00    +0.000 A 
ATOM      7  C   UNL     1      -1.965  13.751  22.004  0.00  0.00    +0.000 A 
ATOM      8  S   UNL     1      -0.443  13.913  20.783  0.00  0.00    +0.000 S 
ATOM      9  C   UNL     1      -3.217  12.577  22.078  0.00  0.00    +0.000 C 
ATOM     10  N   UNL     1      -4.341  12.693  23.152  0.00  0.00    +0.000 NA
ATOM     11  C   UNL     1      -3.754  13.240  24.377  0.00  0.00    +0.000 C 
ATOM     12  C   UNL     1      -3.007  14.671  24.173  0.00  0.00    +0.000 C 
ATOM     13  H   UNL     1       1.804  17.094  21.526  0.00  0.00    +0.000 HD
ENDROOT
BRANCH   2  14
ATOM     14  C   UNL     1       5.548  16.065  19.638  0.00  0.00    +0.000 A 
ATOM     15  C   UNL     1       5.917  15.314  20.681  0.00  0.00    +0.000 A 
ATOM     16  C   UNL     1       7.207  14.638  20.403  0.00  0.00    +0.000 A 
ATOM     17  C   UNL     1       8.436  14.489  19.176  0.00  0.00    +0.000 A 
ATOM     18  C   UNL     1       8.439  13.560  17.850  0.00  0.00    +0.000 A 
ATOM     19  O   UNL     1       7.409  13.257  17.239  0.00  0.00    +0.000 OA
ATOM     20  N   UNL     1       9.945  12.852  17.590  0.00  0.00    +0.000 N 
ATOM     21  C   UNL     1      11.683  13.294  17.017  0.00  0.00    +0.000 A 
ATOM     22  N   UNL     1      10.480  14.630  17.253  0.00  0.00    +0.000 NA
ATOM     23  C   UNL     1       8.758  15.310  18.202  0.00  0.00    +0.000 A 
ATOM     24  C   UNL     1       7.017  15.908  18.431  0.00  0.00    +0.000 A 
ATOM     25  C   UNL     1      12.220  12.555  18.611  0.00  0.00    +0.000 C 
ATOM     26  C   UNL     1      11.629  12.891  20.049  0.00  0.00    +0.000 C 
ATOM     27  C   UNL     1      10.654  11.734  20.383  0.00  0.00    +0.000 C 
ATOM     28  C   UNL     1       9.382  12.259  19.966  0.00  0.00    +0.000 C 
ATOM     29  C   UNL     1       9.350  11.809  18.478  0.00  0.00    +0.000 C 
ENDBRANCH   2  14
BRANCH  10  30
ATOM     30  C   UNL     1      -5.665  13.283  22.758  0.00  0.00    +0.000 C 
BRANCH  30  31
ATOM     31  C   UNL     1      -5.786  14.707  22.077  0.00  0.00    +0.000 A 
ATOM     32  C   UNL     1      -6.486  15.725  22.761  0.00  0.00    +0.000 A 
ATOM     33  C   UNL     1      -6.539  17.015  22.334  0.00  0.00    +0.000 A 
ATOM     34  C   UNL     1      -5.865  17.418  21.208  0.00  0.00    +0.000 A 
ATOM     35  C   UNL     1      -5.057  16.484  20.586  0.00  0.00    +0.000 A 
ATOM     36  C   UNL     1      -5.095  15.138  20.919  0.00  0.00    +0.000 A 
ENDBRANCH  30  31
ENDBRANCH  10  30
TORSDOF 3
ENDMDL
MODEL 9
REMARK VINA RESULT:      -7.6      1.524      2.042
REMARK  Name = 
REMARK  3 active torsions:
REMARK  status: ('A' for Active; 'I' for Inactive)
REMARK    1  A    between atoms: C_2  and  C_20
REMARK    2  A    between atoms: N_10  and  C_11
REMARK    3  A    between atoms: C_11  and  C_12
REMARK                            x       y       z     vdW  Elec       q    Type
REMARK                         _______ _______ _______ _____ _____    ______ ____
ROOT
ATOM      1  O   UNL     1       1.681  11.544  21.141  0.00  0.00    +0.000 OA
ATOM      2  C   UNL     1       0.774  10.810  20.628  0.00  0.00    +0.000 C 
ATOM      3  N   UNL     1      -0.729  11.786  21.047  0.00  0.00    +0.000 N 
ATOM      4  C   UNL     1      -2.394  12.473  21.125  0.00  0.00    +0.000 A 
ATOM      5  N   UNL     1      -3.088  13.320  22.123  0.00  0.00    +0.000 NA
ATOM      6  C   UNL     1      -4.685  13.863  21.940  0.00  0.00    +0.000 A 
ATOM      7  C   UNL     1      -5.185  13.590  20.688  0.00  0.00    +0.000 A 
ATOM      8  S   UNL     1      -3.781  12.617  19.731  0.00  0.00    +0.000 S 
ATOM      9  C   UNL     1      -6.807  13.935  20.241  0.00  0.00    +0.000 C 
ATOM     10  N   UNL     1      -7.725  14.761  21.192  0.00  0.00    +0.000 NA
ATOM     11  C   UNL     1      -7.386  14.418  22.574  0.00  0.00    +0.000 C 
ATOM     12  C   UNL     1      -5.820  14.647  22.950  0.00  0.00    +0.000 C 
ATOM     13  H   UNL     1      -0.359  12.477  21.729  0.00  0.00    +0.000 HD
ENDROOT
BRANCH   2  14
ATOM     14  C   UNL     1       1.658   9.121  19.911  0.00  0.00    +0.000 A 
ATOM     15  C   UNL     1       1.348   8.326  20.941  0.00  0.00    +0.000 A 
ATOM     16  C   UNL     1       1.758   6.929  20.660  0.00  0.00    +0.000 A 
ATOM     17  C   UNL     1       2.528   5.949  19.442  0.00  0.00    +0.000 A 
ATOM     18  C   UNL     1       1.889   5.315  18.096  0.00  0.00    +0.000 A 
ATOM     19  O   UNL     1       0.972   5.855  17.469  0.00  0.00    +0.000 OA
ATOM     20  N   UNL     1       2.426   3.740  17.835  0.00  0.00    +0.000 N 
ATOM     21  C   UNL     1       3.959   2.795  17.288  0.00  0.00    +0.000 A 
ATOM     22  N   UNL     1       4.086   4.586  17.542  0.00  0.00    +0.000 NA
ATOM     23  C   UNL     1       3.365   6.292  18.489  0.00  0.00    +0.000 A 
ATOM     24  C   UNL     1       2.588   7.961  18.716  0.00  0.00    +0.000 A 
ATOM     25  C   UNL     1       3.762   1.883  18.871  0.00  0.00    +0.000 C 
ATOM     26  C   UNL     1       3.563   2.530  20.310  0.00  0.00    +0.000 C 
ATOM     27  C   UNL     1       2.046   2.431  20.609  0.00  0.00    +0.000 C 
ATOM     28  C   UNL     1       1.554   3.717  20.192  0.00  0.00    +0.000 C 
ATOM     29  C   UNL     1       1.241   3.441  18.694  0.00  0.00    +0.000 C 
ENDBRANCH   2  14
BRANCH  10  30
ATOM     30  C   UNL     1      -7.916  16.228  20.924  0.00  0.00    +0.000 C 
BRANCH  30  31
ATOM     31  C   UNL     1      -6.744  17.149  20.392  0.00  0.00    +0.000 A 
ATOM     32  C   UNL     1      -5.899  17.778  21.332  0.00  0.00    +0.000 A 
ATOM     33  C   UNL     1      -4.786  18.480  20.988  0.00  0.00    +0.000 A 
ATOM     34  C   UNL     1      -4.391  18.586  19.677  0.00  0.00    +0.000 A 
ATOM     35  C   UNL     1      -5.113  17.871  18.739  0.00  0.00    +0.000 A 
ATOM     36  C   UNL     1      -6.323  17.265  19.045  0.00  0.00    +0.000 A 
ENDBRANCH  30  31
ENDBRANCH  10  30
TORSDOF 3
ENDMDL
