MODEL 1
REMARK VINA RESULT:      -9.4      0.000      0.000
REMARK  Name = 
REMARK  4 active torsions:
REMARK  status: ('A' for Active; 'I' for Inactive)
REMARK    1  A    between atoms: C_2  and  C_17
REMARK    2  A    between atoms: C_7  and  C_8
REMARK    3  A    between atoms: C_8  and  C_9
REMARK    4  A    between atoms: C_19  and  C_20
REMARK                            x       y       z     vdW  Elec       q    Type
REMARK                         _______ _______ _______ _____ _____    ______ ____
ROOT
ATOM      1  O   UNL     1       6.936   8.652  17.215  0.00  0.00    +0.000 OA
ATOM      2  C   UNL     1       7.898   8.561  17.979  0.00  0.00    +0.000 C 
ATOM      3  N   UNL     1       8.302   7.427  18.635  0.00  0.00    +0.000 N 
ATOM      4  C   UNL     1       7.633   6.245  18.506  0.00  0.00    +0.000 A 
ATOM      5  N   UNL     1       7.751   5.256  19.392  0.00  0.00    +0.000 NA
ATOM      6  N   UNL     1       6.853   4.370  18.926  0.00  0.00    +0.000 N 
ATOM      7  C   UNL     1       6.341   4.767  17.726  0.00  0.00    +0.000 A 
ATOM      8  N   UNL     1       6.797   5.971  17.464  0.00  0.00    +0.000 NA
ATOM      9  H   UNL     1       8.972   7.494  19.388  0.00  0.00    +0.000 HD
ATOM     10  H   UNL     1       6.654   3.530  19.459  0.00  0.00    +0.000 HD
ENDROOT
BRANCH   2  11
ATOM     11  C   UNL     1       8.653   9.761  18.312  0.00  0.00    +0.000 A 
ATOM     12  C   UNL     1       8.627  10.954  17.549  0.00  0.00    +0.000 A 
ATOM     13  C   UNL     1       9.467  11.815  18.204  0.00  0.00    +0.000 A 
ATOM     14  O   UNL     1       9.983  11.180  19.294  0.00  0.00    +0.000 OA
ATOM     15  N   UNL     1       9.454   9.893  19.382  0.00  0.00    +0.000 NA
BRANCH  13  16
ATOM     16  C   UNL     1       9.882  13.181  17.931  0.00  0.00    +0.000 A 
ATOM     17  C   UNL     1      11.091  13.406  17.251  0.00  0.00    +0.000 A 
ATOM     18  C   UNL     1      11.576  14.698  17.049  0.00  0.00    +0.000 A 
ATOM     19  C   UNL     1      10.845  15.782  17.523  0.00  0.00    +0.000 A 
ATOM     20 CL   UNL     1      11.468  17.373  17.332  0.00  0.00    +0.000 Cl
ATOM     21  C   UNL     1       9.624  15.584  18.166  0.00  0.00    +0.000 A 
ATOM     22  C   UNL     1       9.139  14.288  18.364  0.00  0.00    +0.000 A 
ENDBRANCH  13  16
ENDBRANCH   2  11
BRANCH   7  23
ATOM     23  C   UNL     1       5.449   3.925  16.879  0.00  0.00    +0.000 C 
BRANCH  23  24
ATOM     24  C   UNL     1       4.038   3.825  17.412  0.00  0.00    +0.000 A 
ATOM     25  C   UNL     1       3.200   4.953  17.424  0.00  0.00    +0.000 A 
ATOM     26  C   UNL     1       1.913   4.882  17.964  0.00  0.00    +0.000 A 
ATOM     27  C   UNL     1       1.441   3.677  18.477  0.00  0.00    +0.000 A 
ATOM     28  C   UNL     1       2.253   2.552  18.436  0.00  0.00    +0.000 A 
ATOM     29  F   UNL     1       1.802   1.392  18.929  0.00  0.00    +0.000 F 
ATOM     30  C   UNL     1       3.542   2.612  17.907  0.00  0.00    +0.000 A 
ENDBRANCH  23  24
ENDBRANCH   7  23
TORSDOF 4
ENDMDL
MODEL 2
REMARK VINA RESULT:      -9.4      1.046      1.378
REMARK  Name = 
REMARK  4 active torsions:
REMARK  status: ('A' for Active; 'I' for Inactive)
REMARK    1  A    between atoms: C_2  and  C_17
REMARK    2  A    between atoms: C_7  and  C_8
REMARK    3  A    between atoms: C_8  and  C_9
REMARK    4  A    between atoms: C_19  and  C_20
REMARK                            x       y       z     vdW  Elec       q    Type
REMARK                         _______ _______ _______ _____ _____    ______ ____
ROOT
ATOM      1  O   UNL     1       7.307   8.921  17.261  0.00  0.00    +0.000 OA
ATOM      2  C   UNL     1       8.182   8.828  18.123  0.00  0.00    +0.000 C 
ATOM      3  N   UNL     1       8.510   7.693  18.818  0.00  0.00    +0.000 N 
ATOM      4  C   UNL     1       7.854   6.514  18.620  0.00  0.00    +0.000 A 
ATOM      5  N   UNL     1       7.874   5.525  19.514  0.00  0.00    +0.000 NA
ATOM      6  N   UNL     1       7.028   4.641  18.956  0.00  0.00    +0.000 N 
ATOM      7  C   UNL     1       6.648   5.039  17.708  0.00  0.00    +0.000 A 
ATOM      8  N   UNL     1       7.133   6.241  17.495  0.00  0.00    +0.000 NA
ATOM      9  H   UNL     1       9.096   7.759  19.638  0.00  0.00    +0.000 HD
ATOM     10  H   UNL     1       6.771   3.803  19.465  0.00  0.00    +0.000 HD
ENDROOT
BRANCH   2  11
ATOM     11  C   UNL     1       8.901  10.026  18.533  0.00  0.00    +0.000 A 
ATOM     12  C   UNL     1       8.965  11.217  17.768  0.00  0.00    +0.000 A 
ATOM     13  C   UNL     1       9.731  12.076  18.510  0.00  0.00    +0.000 A 
ATOM     14  O   UNL     1      10.121  11.443  19.652  0.00  0.00    +0.000 OA
ATOM     15  N   UNL     1       9.579  10.158  19.685  0.00  0.00    +0.000 NA
BRANCH  13  16
ATOM     16  C   UNL     1      10.180  13.440  18.280  0.00  0.00    +0.000 A 
ATOM     17  C   UNL     1      10.992  13.714  17.165  0.00  0.00    +0.000 A 
ATOM     18  C   UNL     1      11.523  14.986  16.957  0.00  0.00    +0.000 A 
ATOM     19  C   UNL     1      11.237  16.002  17.862  0.00  0.00    +0.000 A 
ATOM     20 CL   UNL     1      11.940  17.556  17.643  0.00  0.00    +0.000 Cl
ATOM     21  C   UNL     1      10.403  15.761  18.952  0.00  0.00    +0.000 A 
ATOM     22  C   UNL     1       9.870  14.486  19.159  0.00  0.00    +0.000 A 
ENDBRANCH  13  16
ENDBRANCH   2  11
BRANCH   7  23
ATOM     23  C   UNL     1       5.848   4.199  16.771  0.00  0.00    +0.000 C 
BRANCH  23  24
ATOM     24  C   UNL     1       4.409   4.028  17.201  0.00  0.00    +0.000 A 
ATOM     25  C   UNL     1       3.859   2.744  17.355  0.00  0.00    +0.000 A 
ATOM     26  C   UNL     1       2.515   2.578  17.700  0.00  0.00    +0.000 A 
ATOM     27  C   UNL     1       1.711   3.693  17.917  0.00  0.00    +0.000 A 
ATOM     28  C   UNL     1       2.259   4.963  17.798  0.00  0.00    +0.000 A 
ATOM     29  F   UNL     1       1.488   6.037  18.006  0.00  0.00    +0.000 F 
ATOM     30  C   UNL     1       3.596   5.143  17.448  0.00  0.00    +0.000 A 
ENDBRANCH  23  24
ENDBRANCH   7  23
TORSDOF 4
ENDMDL
MODEL 3
REMARK VINA RESULT:      -9.0      0.962      1.543
REMARK  Name = 
REMARK  4 active torsions:
REMARK  status: ('A' for Active; 'I' for Inactive)
REMARK    1  A    between atoms: C_2  and  C_17
REMARK    2  A    between atoms: C_7  and  C_8
REMARK    3  A    between atoms: C_8  and  C_9
REMARK    4  A    between atoms: C_19  and  C_20
REMARK                            x       y       z     vdW  Elec       q    Type
REMARK                         _______ _______ _______ _____ _____    ______ ____
ROOT
ATOM      1  O   UNL     1       6.570   8.692  17.459  0.00  0.00    +0.000 OA
ATOM      2  C   UNL     1       7.669   8.469  17.968  0.00  0.00    +0.000 C 
ATOM      3  N   UNL     1       8.150   7.240  18.339  0.00  0.00    +0.000 N 
ATOM      4  C   UNL     1       7.413   6.103  18.186  0.00  0.00    +0.000 A 
ATOM      5  N   UNL     1       7.673   4.985  18.864  0.00  0.00    +0.000 NA
ATOM      6  N   UNL     1       6.653   4.195  18.481  0.00  0.00    +0.000 N 
ATOM      7  C   UNL     1       5.913   4.784  17.498  0.00  0.00    +0.000 A 
ATOM      8  N   UNL     1       6.359   6.007  17.326  0.00  0.00    +0.000 NA
ATOM      9  H   UNL     1       8.970   7.179  18.926  0.00  0.00    +0.000 HD
ATOM     10  H   UNL     1       6.535   3.285  18.912  0.00  0.00    +0.000 HD
ENDROOT
BRANCH   2  11
ATOM     11  C   UNL     1       8.535   9.591  18.302  0.00  0.00    +0.000 A 
ATOM     12  C   UNL     1       8.550  10.821  17.599  0.00  0.00    +0.000 A 
ATOM     13  C   UNL     1       9.495  11.582  18.233  0.00  0.00    +0.000 A 
ATOM     14  O   UNL     1      10.033  10.855  19.252  0.00  0.00    +0.000 OA
ATOM     15  N   UNL     1       9.414   9.607  19.317  0.00  0.00    +0.000 NA
BRANCH  13  16
ATOM     16  C   UNL     1       9.995  12.927  17.995  0.00  0.00    +0.000 A 
ATOM     17  C   UNL     1       9.375  14.011  18.641  0.00  0.00    +0.000 A 
ATOM     18  C   UNL     1       9.759  15.325  18.372  0.00  0.00    +0.000 A 
ATOM     19  C   UNL     1      10.776  15.564  17.456  0.00  0.00    +0.000 A 
ATOM     20 CL   UNL     1      11.210  17.184  17.075  0.00  0.00    +0.000 Cl
ATOM     21  C   UNL     1      11.430  14.502  16.833  0.00  0.00    +0.000 A 
ATOM     22  C   UNL     1      11.046  13.186  17.106  0.00  0.00    +0.000 A 
ENDBRANCH  13  16
ENDBRANCH   2  11
BRANCH   7  23
ATOM     23  C   UNL     1       4.819   4.098  16.753  0.00  0.00    +0.000 C 
BRANCH  23  24
ATOM     24  C   UNL     1       3.598   3.824  17.601  0.00  0.00    +0.000 A 
ATOM     25  C   UNL     1       2.909   2.605  17.485  0.00  0.00    +0.000 A 
ATOM     26  C   UNL     1       1.748   2.366  18.226  0.00  0.00    +0.000 A 
ATOM     27  C   UNL     1       1.276   3.334  19.107  0.00  0.00    +0.000 A 
ATOM     28  C   UNL     1       1.972   4.527  19.249  0.00  0.00    +0.000 A 
ATOM     29  F   UNL     1       1.520   5.459  20.096  0.00  0.00    +0.000 F 
ATOM     30  C   UNL     1       3.127   4.780  18.511  0.00  0.00    +0.000 A 
ENDBRANCH  23  24
ENDBRANCH   7  23
TORSDOF 4
ENDMDL
MODEL 4
REMARK VINA RESULT:      -9.0      2.715      3.682
REMARK  Name = 
REMARK  4 active torsions:
REMARK  status: ('A' for Active; 'I' for Inactive)
REMARK    1  A    between atoms: C_2  and  C_17
REMARK    2  A    between atoms: C_7  and  C_8
REMARK    3  A    between atoms: C_8  and  C_9
REMARK    4  A    between atoms: C_19  and  C_20
REMARK                            x       y       z     vdW  Elec       q    Type
REMARK                         _______ _______ _______ _____ _____    ______ ____
ROOT
ATOM      1  O   UNL     1       7.107   8.792  17.191  0.00  0.00    +0.000 OA
ATOM      2  C   UNL     1       8.016   8.586  17.997  0.00  0.00    +0.000 C 
ATOM      3  N   UNL     1       8.356   7.372  18.535  0.00  0.00    +0.000 N 
ATOM      4  C   UNL     1       7.674   6.232  18.226  0.00  0.00    +0.000 A 
ATOM      5  N   UNL     1       7.717   5.142  18.993  0.00  0.00    +0.000 NA
ATOM      6  N   UNL     1       6.834   4.341  18.369  0.00  0.00    +0.000 N 
ATOM      7  C   UNL     1       6.409   4.890  17.196  0.00  0.00    +0.000 A 
ATOM      8  N   UNL     1       6.902   6.104  17.108  0.00  0.00    +0.000 NA
ATOM      9  H   UNL     1       8.977   7.333  19.331  0.00  0.00    +0.000 HD
ATOM     10  H   UNL     1       6.586   3.450  18.784  0.00  0.00    +0.000 HD
ENDROOT
BRANCH   2  11
ATOM     11  C   UNL     1       8.770   9.719  18.516  0.00  0.00    +0.000 A 
ATOM     12  C   UNL     1       9.067  10.886  17.771  0.00  0.00    +0.000 A 
ATOM     13  C   UNL     1       9.782  11.682  18.625  0.00  0.00    +0.000 A 
ATOM     14  O   UNL     1       9.923  11.033  19.816  0.00  0.00    +0.000 OA
ATOM     15  N   UNL     1       9.265   9.805  19.762  0.00  0.00    +0.000 NA
BRANCH  13  16
ATOM     16  C   UNL     1      10.388  12.995  18.470  0.00  0.00    +0.000 A 
ATOM     17  C   UNL     1      10.458  13.851  19.582  0.00  0.00    +0.000 A 
ATOM     18  C   UNL     1      10.945  15.153  19.460  0.00  0.00    +0.000 A 
ATOM     19  C   UNL     1      11.374  15.606  18.218  0.00  0.00    +0.000 A 
ATOM     20 CL   UNL     1      11.917  17.229  18.049  0.00  0.00    +0.000 Cl
ATOM     21  C   UNL     1      11.349  14.761  17.110  0.00  0.00    +0.000 A 
ATOM     22  C   UNL     1      10.864  13.456  17.236  0.00  0.00    +0.000 A 
ENDBRANCH  13  16
ENDBRANCH   2  11
BRANCH   7  23
ATOM     23  C   UNL     1       5.558   4.178  16.200  0.00  0.00    +0.000 C 
BRANCH  23  24
ATOM     24  C   UNL     1       6.098   4.249  14.791  0.00  0.00    +0.000 A 
ATOM     25  C   UNL     1       5.483   3.525  13.755  0.00  0.00    +0.000 A 
ATOM     26  C   UNL     1       6.008   3.544  12.460  0.00  0.00    +0.000 A 
ATOM     27  C   UNL     1       7.141   4.302  12.181  0.00  0.00    +0.000 A 
ATOM     28  C   UNL     1       7.733   5.045  13.194  0.00  0.00    +0.000 A 
ATOM     29  F   UNL     1       8.822   5.775  12.928  0.00  0.00    +0.000 F 
ATOM     30  C   UNL     1       7.222   5.029  14.492  0.00  0.00    +0.000 A 
ENDBRANCH  23  24
ENDBRANCH   7  23
TORSDOF 4
ENDMDL
MODEL 5
REMARK VINA RESULT:      -8.9      1.406      1.725
REMARK  Name = 
REMARK  4 active torsions:
REMARK  status: ('A' for Active; 'I' for Inactive)
REMARK    1  A    between atoms: C_2  and  C_17
REMARK    2  A    between atoms: C_7  and  C_8
REMARK    3  A    between atoms: C_8  and  C_9
REMARK    4  A    between atoms: C_19  and  C_20
REMARK                            x       y       z     vdW  Elec       q    Type
REMARK                         _______ _______ _______ _____ _____    ______ ____
ROOT
ATOM      1  O   UNL     1       8.186   6.852  18.757  0.00  0.00    +0.000 OA
ATOM      2  C   UNL     1       7.831   7.876  18.169  0.00  0.00    +0.000 C 
ATOM      3  N   UNL     1       6.871   7.952  17.193  0.00  0.00    +0.000 N 
ATOM      4  C   UNL     1       6.203   6.847  16.754  0.00  0.00    +0.000 A 
ATOM      5  N   UNL     1       5.568   6.814  15.582  0.00  0.00    +0.000 NA
ATOM      6  N   UNL     1       5.167   5.531  15.530  0.00  0.00    +0.000 N 
ATOM      7  C   UNL     1       5.430   4.882  16.700  0.00  0.00    +0.000 A 
ATOM      8  N   UNL     1       6.120   5.690  17.472  0.00  0.00    +0.000 NA
ATOM      9  H   UNL     1       6.791   8.789  16.634  0.00  0.00    +0.000 HD
ATOM     10  H   UNL     1       4.720   5.179  14.691  0.00  0.00    +0.000 HD
ENDROOT
BRANCH   2  11
ATOM     11  C   UNL     1       8.526   9.125  18.443  0.00  0.00    +0.000 A 
ATOM     12  C   UNL     1       8.514  10.248  17.580  0.00  0.00    +0.000 A 
ATOM     13  C   UNL     1       9.282  11.190  18.209  0.00  0.00    +0.000 A 
ATOM     14  O   UNL     1       9.746  10.668  19.380  0.00  0.00    +0.000 OA
ATOM     15  N   UNL     1       9.252   9.375  19.545  0.00  0.00    +0.000 NA
BRANCH  13  16
ATOM     16  C   UNL     1       9.673  12.543  17.846  0.00  0.00    +0.000 A 
ATOM     17  C   UNL     1      10.894  12.747  17.181  0.00  0.00    +0.000 A 
ATOM     18  C   UNL     1      11.353  14.033  16.896  0.00  0.00    +0.000 A 
ATOM     19  C   UNL     1      10.585  15.130  17.269  0.00  0.00    +0.000 A 
ATOM     20 CL   UNL     1      11.176  16.718  16.976  0.00  0.00    +0.000 Cl
ATOM     21  C   UNL     1       9.353  14.949  17.895  0.00  0.00    +0.000 A 
ATOM     22  C   UNL     1       8.893  13.659  18.177  0.00  0.00    +0.000 A 
ENDBRANCH  13  16
ENDBRANCH   2  11
BRANCH   7  23
ATOM     23  C   UNL     1       4.961   3.501  17.013  0.00  0.00    +0.000 C 
BRANCH  23  24
ATOM     24  C   UNL     1       3.761   3.471  17.931  0.00  0.00    +0.000 A 
ATOM     25  C   UNL     1       2.492   3.847  17.458  0.00  0.00    +0.000 A 
ATOM     26  C   UNL     1       1.388   3.873  18.314  0.00  0.00    +0.000 A 
ATOM     27  C   UNL     1       1.535   3.502  19.648  0.00  0.00    +0.000 A 
ATOM     28  C   UNL     1       2.780   3.098  20.111  0.00  0.00    +0.000 A 
ATOM     29  F   UNL     1       2.924   2.741  21.393  0.00  0.00    +0.000 F 
ATOM     30  C   UNL     1       3.891   3.075  19.269  0.00  0.00    +0.000 A 
ENDBRANCH  23  24
ENDBRANCH   7  23
TORSDOF 4
ENDMDL
MODEL 6
REMARK VINA RESULT:      -8.9      7.660      9.517
REMARK  Name = 
REMARK  4 active torsions:
REMARK  status: ('A' for Active; 'I' for Inactive)
REMARK    1  A    between atoms: C_2  and  C_17
REMARK    2  A    between atoms: C_7  and  C_8
REMARK    3  A    between atoms: C_8  and  C_9
REMARK    4  A    between atoms: C_19  and  C_20
REMARK                            x       y       z     vdW  Elec       q    Type
REMARK                         _______ _______ _______ _____ _____    ______ ____
ROOT
ATOM      1  O   UNL     1       1.627   9.269  19.729  0.00  0.00    +0.000 OA
ATOM      2  C   UNL     1       1.258   8.752  20.785  0.00  0.00    +0.000 C 
ATOM      3  N   UNL     1       1.380   7.428  21.118  0.00  0.00    +0.000 N 
ATOM      4  C   UNL     1       1.929   6.518  20.262  0.00  0.00    +0.000 A 
ATOM      5  N   UNL     1       1.719   5.207  20.380  0.00  0.00    +0.000 NA
ATOM      6  N   UNL     1       2.348   4.735  19.289  0.00  0.00    +0.000 N 
ATOM      7  C   UNL     1       3.028   5.725  18.641  0.00  0.00    +0.000 A 
ATOM      8  N   UNL     1       2.742   6.867  19.224  0.00  0.00    +0.000 NA
ATOM      9  H   UNL     1       0.874   7.062  21.912  0.00  0.00    +0.000 HD
ATOM     10  H   UNL     1       2.284   3.750  19.060  0.00  0.00    +0.000 HD
ENDROOT
BRANCH   2  11
ATOM     11  C   UNL     1       0.550   9.566  21.762  0.00  0.00    +0.000 A 
ATOM     12  C   UNL     1      -0.273  10.671  21.431  0.00  0.00    +0.000 A 
ATOM     13  C   UNL     1      -0.735  11.143  22.630  0.00  0.00    +0.000 A 
ATOM     14  O   UNL     1      -0.215  10.380  23.632  0.00  0.00    +0.000 OA
ATOM     15  N   UNL     1       0.576   9.368  23.090  0.00  0.00    +0.000 NA
BRANCH  13  16
ATOM     16  C   UNL     1      -1.604  12.256  22.978  0.00  0.00    +0.000 A 
ATOM     17  C   UNL     1      -1.069  13.555  23.016  0.00  0.00    +0.000 A 
ATOM     18  C   UNL     1      -1.839  14.640  23.436  0.00  0.00    +0.000 A 
ATOM     19  C   UNL     1      -3.161  14.432  23.815  0.00  0.00    +0.000 A 
ATOM     20 CL   UNL     1      -4.095  15.755  24.391  0.00  0.00    +0.000 Cl
ATOM     21  C   UNL     1      -3.722  13.158  23.748  0.00  0.00    +0.000 A 
ATOM     22  C   UNL     1      -2.949  12.073  23.325  0.00  0.00    +0.000 A 
ENDBRANCH  13  16
ENDBRANCH   2  11
BRANCH   7  23
ATOM     23  C   UNL     1       3.952   5.491  17.495  0.00  0.00    +0.000 C 
BRANCH  23  24
ATOM     24  C   UNL     1       5.376   5.913  17.779  0.00  0.00    +0.000 A 
ATOM     25  C   UNL     1       6.205   5.118  18.588  0.00  0.00    +0.000 A 
ATOM     26  C   UNL     1       7.505   5.527  18.899  0.00  0.00    +0.000 A 
ATOM     27  C   UNL     1       7.997   6.724  18.387  0.00  0.00    +0.000 A 
ATOM     28  C   UNL     1       7.192   7.496  17.560  0.00  0.00    +0.000 A 
ATOM     29  F   UNL     1       7.663   8.647  17.066  0.00  0.00    +0.000 F 
ATOM     30  C   UNL     1       5.891   7.102  17.248  0.00  0.00    +0.000 A 
ENDBRANCH  23  24
ENDBRANCH   7  23
TORSDOF 4
ENDMDL
MODEL 7
REMARK VINA RESULT:      -8.9      6.962      9.132
REMARK  Name = 
REMARK  4 active torsions:
REMARK  status: ('A' for Active; 'I' for Inactive)
REMARK    1  A    between atoms: C_2  and  C_17
REMARK    2  A    between atoms: C_7  and  C_8
REMARK    3  A    between atoms: C_8  and  C_9
REMARK    4  A    between atoms: C_19  and  C_20
REMARK                            x       y       z     vdW  Elec       q    Type
REMARK                         _______ _______ _______ _____ _____    ______ ____
ROOT
ATOM      1  O   UNL     1       2.171   7.946  19.478  0.00  0.00    +0.000 OA
ATOM      2  C   UNL     1       1.661   7.719  20.576  0.00  0.00    +0.000 C 
ATOM      3  N   UNL     1       1.548   6.490  21.173  0.00  0.00    +0.000 N 
ATOM      4  C   UNL     1       1.996   5.352  20.568  0.00  0.00    +0.000 A 
ATOM      5  N   UNL     1       1.572   4.139  20.922  0.00  0.00    +0.000 NA
ATOM      6  N   UNL     1       2.182   3.364  20.007  0.00  0.00    +0.000 N 
ATOM      7  C   UNL     1       3.050   4.089  19.243  0.00  0.00    +0.000 A 
ATOM      8  N   UNL     1       2.916   5.356  19.561  0.00  0.00    +0.000 NA
ATOM      9  H   UNL     1       0.943   6.375  21.973  0.00  0.00    +0.000 HD
ATOM     10  H   UNL     1       1.975   2.373  19.971  0.00  0.00    +0.000 HD
ENDROOT
BRANCH   2  11
ATOM     11  C   UNL     1       1.033   8.812  21.304  0.00  0.00    +0.000 A 
ATOM     12  C   UNL     1      -0.116   9.509  20.858  0.00  0.00    +0.000 A 
ATOM     13  C   UNL     1      -0.365  10.444  21.827  0.00  0.00    +0.000 A 
ATOM     14  O   UNL     1       0.584  10.332  22.799  0.00  0.00    +0.000 OA
ATOM     15  N   UNL     1       1.454   9.288  22.488  0.00  0.00    +0.000 NA
BRANCH  13  16
ATOM     16  C   UNL     1      -1.384  11.473  21.961  0.00  0.00    +0.000 A 
ATOM     17  C   UNL     1      -1.995  11.671  23.212  0.00  0.00    +0.000 A 
ATOM     18  C   UNL     1      -3.041  12.580  23.367  0.00  0.00    +0.000 A 
ATOM     19  C   UNL     1      -3.482  13.307  22.267  0.00  0.00    +0.000 A 
ATOM     20 CL   UNL     1      -4.812  14.382  22.439  0.00  0.00    +0.000 Cl
ATOM     21  C   UNL     1      -2.865  13.154  21.026  0.00  0.00    +0.000 A 
ATOM     22  C   UNL     1      -1.814  12.244  20.874  0.00  0.00    +0.000 A 
ENDBRANCH  13  16
ENDBRANCH   2  11
BRANCH   7  23
ATOM     23  C   UNL     1       3.993   3.490  18.256  0.00  0.00    +0.000 C 
BRANCH  23  24
ATOM     24  C   UNL     1       5.059   4.454  17.785  0.00  0.00    +0.000 A 
ATOM     25  C   UNL     1       4.977   5.038  16.510  0.00  0.00    +0.000 A 
ATOM     26  C   UNL     1       5.985   5.888  16.047  0.00  0.00    +0.000 A 
ATOM     27  C   UNL     1       7.075   6.181  16.862  0.00  0.00    +0.000 A 
ATOM     28  C   UNL     1       7.143   5.632  18.135  0.00  0.00    +0.000 A 
ATOM     29  F   UNL     1       8.190   5.912  18.920  0.00  0.00    +0.000 F 
ATOM     30  C   UNL     1       6.147   4.777  18.606  0.00  0.00    +0.000 A 
ENDBRANCH  23  24
ENDBRANCH   7  23
TORSDOF 4
ENDMDL
MODEL 8
REMARK VINA RESULT:      -8.8      7.232      9.236
REMARK  Name = 
REMARK  4 active torsions:
REMARK  status: ('A' for Active; 'I' for Inactive)
REMARK    1  A    between atoms: C_2  and  C_17
REMARK    2  A    between atoms: C_7  and  C_8
REMARK    3  A    between atoms: C_8  and  C_9
REMARK    4  A    between atoms: C_19  and  C_20
REMARK                            x       y       z     vdW  Elec       q    Type
REMARK                         _______ _______ _______ _____ _____    ______ ____
ROOT
ATOM      1  O   UNL     1       1.854   8.519  19.574  0.00  0.00    +0.000 OA
ATOM      2  C   UNL     1       1.409   8.183  20.673  0.00  0.00    +0.000 C 
ATOM      3  N   UNL     1       1.418   6.914  21.192  0.00  0.00    +0.000 N 
ATOM      4  C   UNL     1       1.929   5.857  20.498  0.00  0.00    +0.000 A 
ATOM      5  N   UNL     1       1.617   4.593  20.787  0.00  0.00    +0.000 NA
ATOM      6  N   UNL     1       2.247   3.929  19.802  0.00  0.00    +0.000 N 
ATOM      7  C   UNL     1       3.023   4.768  19.056  0.00  0.00    +0.000 A 
ATOM      8  N   UNL     1       2.803   5.998  19.460  0.00  0.00    +0.000 NA
ATOM      9  H   UNL     1       0.857   6.701  22.004  0.00  0.00    +0.000 HD
ATOM     10  H   UNL     1       2.118   2.928  19.709  0.00  0.00    +0.000 HD
ENDROOT
BRANCH   2  11
ATOM     11  C   UNL     1       0.727   9.175  21.493  0.00  0.00    +0.000 A 
ATOM     12  C   UNL     1      -0.303  10.025  21.022  0.00  0.00    +0.000 A 
ATOM     13  C   UNL     1      -0.656  10.789  22.102  0.00  0.00    +0.000 A 
ATOM     14  O   UNL     1       0.122  10.435  23.163  0.00  0.00    +0.000 OA
ATOM     15  N   UNL     1       0.979   9.400  22.793  0.00  0.00    +0.000 NA
BRANCH  13  16
ATOM     16  C   UNL     1      -1.633  11.852  22.276  0.00  0.00    +0.000 A 
ATOM     17  C   UNL     1      -1.657  12.917  21.359  0.00  0.00    +0.000 A 
ATOM     18  C   UNL     1      -2.513  14.004  21.539  0.00  0.00    +0.000 A 
ATOM     19  C   UNL     1      -3.362  14.029  22.639  0.00  0.00    +0.000 A 
ATOM     20 CL   UNL     1      -4.373  15.394  22.899  0.00  0.00    +0.000 Cl
ATOM     21  C   UNL     1      -3.382  12.965  23.540  0.00  0.00    +0.000 A 
ATOM     22  C   UNL     1      -2.525  11.875  23.356  0.00  0.00    +0.000 A 
ENDBRANCH  13  16
ENDBRANCH   2  11
BRANCH   7  23
ATOM     23  C   UNL     1       3.969   4.310  17.998  0.00  0.00    +0.000 C 
BRANCH  23  24
ATOM     24  C   UNL     1       5.211   5.166  17.895  0.00  0.00    +0.000 A 
ATOM     25  C   UNL     1       5.334   6.122  16.873  0.00  0.00    +0.000 A 
ATOM     26  C   UNL     1       6.501   6.879  16.738  0.00  0.00    +0.000 A 
ATOM     27  C   UNL     1       7.549   6.705  17.638  0.00  0.00    +0.000 A 
ATOM     28  C   UNL     1       7.418   5.785  18.669  0.00  0.00    +0.000 A 
ATOM     29  F   UNL     1       8.424   5.616  19.535  0.00  0.00    +0.000 F 
ATOM     30  C   UNL     1       6.262   5.018  18.810  0.00  0.00    +0.000 A 
ENDBRANCH  23  24
ENDBRANCH   7  23
TORSDOF 4
ENDMDL
MODEL 9
REMARK VINA RESULT:      -8.7      7.362      9.176
REMARK  Name = 
REMARK  4 active torsions:
REMARK  status: ('A' for Active; 'I' for Inactive)
REMARK    1  A    between atoms: C_2  and  C_17
REMARK    2  A    between atoms: C_7  and  C_8
REMARK    3  A    between atoms: C_8  and  C_9
REMARK    4  A    between atoms: C_19  and  C_20
REMARK                            x       y       z     vdW  Elec       q    Type
REMARK                         _______ _______ _______ _____ _____    ______ ____
ROOT
ATOM      1  O   UNL     1       1.281   8.612  19.485  0.00  0.00    +0.000 OA
ATOM      2  C   UNL     1       1.197   8.283  20.669  0.00  0.00    +0.000 C 
ATOM      3  N   UNL     1       1.471   7.042  21.181  0.00  0.00    +0.000 N 
ATOM      4  C   UNL     1       1.863   6.006  20.386  0.00  0.00    +0.000 A 
ATOM      5  N   UNL     1       1.766   4.732  20.769  0.00  0.00    +0.000 NA
ATOM      6  N   UNL     1       2.153   4.086  19.655  0.00  0.00    +0.000 N 
ATOM      7  C   UNL     1       2.605   4.958  18.708  0.00  0.00    +0.000 A 
ATOM      8  N   UNL     1       2.393   6.180  19.141  0.00  0.00    +0.000 NA
ATOM      9  H   UNL     1       1.184   6.813  22.123  0.00  0.00    +0.000 HD
ATOM     10  H   UNL     1       2.098   3.075  19.616  0.00  0.00    +0.000 HD
ENDROOT
BRANCH   2  11
ATOM     11  C   UNL     1       0.684   9.244  21.635  0.00  0.00    +0.000 A 
ATOM     12  C   UNL     1      -0.292  10.227  21.338  0.00  0.00    +0.000 A 
ATOM     13  C   UNL     1      -0.481  10.907  22.511  0.00  0.00    +0.000 A 
ATOM     14  O   UNL     1       0.341  10.379  23.462  0.00  0.00    +0.000 OA
ATOM     15  N   UNL     1       1.060   9.313  22.923  0.00  0.00    +0.000 NA
BRANCH  13  16
ATOM     16  C   UNL     1      -1.332  12.030  22.870  0.00  0.00    +0.000 A 
ATOM     17  C   UNL     1      -0.812  13.334  22.795  0.00  0.00    +0.000 A 
ATOM     18  C   UNL     1      -1.559  14.434  23.217  0.00  0.00    +0.000 A 
ATOM     19  C   UNL     1      -2.843  14.236  23.713  0.00  0.00    +0.000 A 
ATOM     20 CL   UNL     1      -3.744  15.580  24.293  0.00  0.00    +0.000 Cl
ATOM     21  C   UNL     1      -3.392  12.956  23.760  0.00  0.00    +0.000 A 
ATOM     22  C   UNL     1      -2.642  11.856  23.334  0.00  0.00    +0.000 A 
ENDBRANCH  13  16
ENDBRANCH   2  11
BRANCH   7  23
ATOM     23  C   UNL     1       3.254   4.542  17.431  0.00  0.00    +0.000 C 
BRANCH  23  24
ATOM     24  C   UNL     1       4.762   4.636  17.468  0.00  0.00    +0.000 A 
ATOM     25  C   UNL     1       5.431   4.865  18.682  0.00  0.00    +0.000 A 
ATOM     26  C   UNL     1       6.822   5.006  18.716  0.00  0.00    +0.000 A 
ATOM     27  C   UNL     1       7.560   4.898  17.541  0.00  0.00    +0.000 A 
ATOM     28  C   UNL     1       6.905   4.639  16.345  0.00  0.00    +0.000 A 
ATOM     29  F   UNL     1       7.612   4.535  15.213  0.00  0.00    +0.000 F 
ATOM     30  C   UNL     1       5.518   4.503  16.296  0.00  0.00    +0.000 A 
ENDBRANCH  23  24
ENDBRANCH   7  23
TORSDOF 4
ENDMDL
