MODEL 1
REMARK VINA RESULT:      -9.4      0.000      0.000
REMARK  Name = 
REMARK  4 active torsions:
REMARK  status: ('A' for Active; 'I' for Inactive)
REMARK    1  A    between atoms: C_1  and  C_2
REMARK    2  A    between atoms: N_6  and  C_7
REMARK    3  A    between atoms: C_11  and  N_12
REMARK    4  A    between atoms: C_13  and  C_15
REMARK                            x       y       z     vdW  Elec       q    Type
REMARK                         _______ _______ _______ _____ _____    ______ ____
ROOT
ATOM      1  N   UNL     1       1.793   6.603  20.659  0.00  0.00    +0.000 N 
ATOM      2  C   UNL     1       1.678   7.865  20.089  0.00  0.00    +0.000 C 
ATOM      3  O   UNL     1       2.152   8.192  19.004  0.00  0.00    +0.000 OA
ATOM      4  H   UNL     1       1.312   6.440  21.533  0.00  0.00    +0.000 HD
ENDROOT
BRANCH   2   5
ATOM      5  C   UNL     1       0.861   8.906  20.808  0.00  0.00    +0.000 A 
ATOM      6  C   UNL     1       0.904   8.794  22.214  0.00  0.00    +0.000 A 
ATOM      7  C   UNL     1       0.181   9.657  23.026  0.00  0.00    +0.000 A 
ATOM      8  C   UNL     1      -0.579  10.660  22.441  0.00  0.00    +0.000 A 
ATOM      9  C   UNL     1      -0.654  10.810  21.068  0.00  0.00    +0.000 A 
ATOM     10  N   UNL     1      -1.425  11.817  20.633  0.00  0.00    +0.000 NA
ATOM     11  C   UNL     1      -1.584  11.980  19.309  0.00  0.00    +0.000 A 
ATOM     12  C   UNL     1      -1.009  11.146  18.372  0.00  0.00    +0.000 A 
ATOM     13  C   UNL     1      -0.206  10.099  18.826  0.00  0.00    +0.000 A 
ATOM     14  C   UNL     1       0.039   9.913  20.210  0.00  0.00    +0.000 A 
ENDBRANCH   2   5
BRANCH   1  19
ATOM     15  C   UNL     1       4.524   4.545  19.135  0.00  0.00    +0.000 A 
ATOM     16  C   UNL     1       3.915   3.297  19.016  0.00  0.00    +0.000 A 
ATOM     17  C   UNL     1       2.595   3.136  19.435  0.00  0.00    +0.000 A 
ATOM     18  C   UNL     1       1.874   4.215  19.956  0.00  0.00    +0.000 A 
ATOM     19  C   UNL     1       2.461   5.476  20.099  0.00  0.00    +0.000 A 
ATOM     20  C   UNL     1       3.798   5.627  19.690  0.00  0.00    +0.000 A 
BRANCH  15  26
ATOM     21  C   UNL     1       6.027   4.258  16.251  0.00  0.00    +0.000 C 
ATOM     22  C   UNL     1       6.593   4.463  17.606  0.00  0.00    +0.000 A 
ATOM     23  N   UNL     1       7.881   4.587  17.861  0.00  0.00    +0.000 NA
ATOM     24  N   UNL     1       7.981   5.021  19.150  0.00  0.00    +0.000 NA
ATOM     25  N   UNL     1       6.785   5.181  19.692  0.00  0.00    +0.000 NA
ATOM     26  N   UNL     1       5.889   4.722  18.778  0.00  0.00    +0.000 N 
ENDBRANCH  15  26
ENDBRANCH   1  19
TORSDOF 3
ENDMDL
MODEL 2
REMARK VINA RESULT:      -9.4      1.602      2.455
REMARK  Name = 
REMARK  4 active torsions:
REMARK  status: ('A' for Active; 'I' for Inactive)
REMARK    1  A    between atoms: C_1  and  C_2
REMARK    2  A    between atoms: N_6  and  C_7
REMARK    3  A    between atoms: C_11  and  N_12
REMARK    4  A    between atoms: C_13  and  C_15
REMARK                            x       y       z     vdW  Elec       q    Type
REMARK                         _______ _______ _______ _____ _____    ______ ____
ROOT
ATOM      1  N   UNL     1       2.192   7.639  19.084  0.00  0.00    +0.000 N 
ATOM      2  C   UNL     1       1.917   8.823  18.410  0.00  0.00    +0.000 C 
ATOM      3  O   UNL     1       2.019   8.980  17.195  0.00  0.00    +0.000 OA
ATOM      4  H   UNL     1       2.018   7.618  20.080  0.00  0.00    +0.000 HD
ENDROOT
BRANCH   2   5
ATOM      5  C   UNL     1       1.395   9.995  19.199  0.00  0.00    +0.000 A 
ATOM      6  C   UNL     1       1.627  11.244  18.585  0.00  0.00    +0.000 A 
ATOM      7  C   UNL     1       1.237  12.428  19.196  0.00  0.00    +0.000 A 
ATOM      8  C   UNL     1       0.587  12.375  20.422  0.00  0.00    +0.000 A 
ATOM      9  C   UNL     1       0.338  11.175  21.063  0.00  0.00    +0.000 A 
ATOM     10  N   UNL     1      -0.294  11.265  22.242  0.00  0.00    +0.000 NA
ATOM     11  C   UNL     1      -0.515  10.139  22.940  0.00  0.00    +0.000 A 
ATOM     12  C   UNL     1      -0.102   8.893  22.514  0.00  0.00    +0.000 A 
ATOM     13  C   UNL     1       0.555   8.801  21.286  0.00  0.00    +0.000 A 
ATOM     14  C   UNL     1       0.768   9.950  20.483  0.00  0.00    +0.000 A 
ENDBRANCH   2   5
BRANCH   1  19
ATOM     15  C   UNL     1       4.498   5.026  17.716  0.00  0.00    +0.000 A 
ATOM     16  C   UNL     1       3.615   3.995  17.402  0.00  0.00    +0.000 A 
ATOM     17  C   UNL     1       2.252   4.166  17.636  0.00  0.00    +0.000 A 
ATOM     18  C   UNL     1       1.762   5.364  18.167  0.00  0.00    +0.000 A 
ATOM     19  C   UNL     1       2.624   6.411  18.504  0.00  0.00    +0.000 A 
ATOM     20  C   UNL     1       4.000   6.226  18.280  0.00  0.00    +0.000 A 
BRANCH  15  26
ATOM     21  C   UNL     1       6.313   4.807  15.011  0.00  0.00    +0.000 C 
ATOM     22  C   UNL     1       6.688   4.605  16.431  0.00  0.00    +0.000 A 
ATOM     23  N   UNL     1       7.905   4.303  16.840  0.00  0.00    +0.000 NA
ATOM     24  N   UNL     1       7.909   4.463  18.195  0.00  0.00    +0.000 NA
ATOM     25  N   UNL     1       6.728   4.871  18.628  0.00  0.00    +0.000 NA
ATOM     26  N   UNL     1       5.900   4.856  17.550  0.00  0.00    +0.000 N 
ENDBRANCH  15  26
ENDBRANCH   1  19
TORSDOF 3
ENDMDL
MODEL 3
REMARK VINA RESULT:      -9.3      1.449      2.385
REMARK  Name = 
REMARK  4 active torsions:
REMARK  status: ('A' for Active; 'I' for Inactive)
REMARK    1  A    between atoms: C_1  and  C_2
REMARK    2  A    between atoms: N_6  and  C_7
REMARK    3  A    between atoms: C_11  and  N_12
REMARK    4  A    between atoms: C_13  and  C_15
REMARK                            x       y       z     vdW  Elec       q    Type
REMARK                         _______ _______ _______ _____ _____    ______ ____
ROOT
ATOM      1  N   UNL     1       1.916   7.284  18.378  0.00  0.00    +0.000 N 
ATOM      2  C   UNL     1       1.762   7.810  19.655  0.00  0.00    +0.000 C 
ATOM      3  O   UNL     1       2.110   7.252  20.692  0.00  0.00    +0.000 OA
ATOM      4  H   UNL     1       1.638   7.864  17.597  0.00  0.00    +0.000 HD
ENDROOT
BRANCH   2   5
ATOM      5  C   UNL     1       1.184   9.194  19.797  0.00  0.00    +0.000 A 
ATOM      6  C   UNL     1       1.432  10.033  18.689  0.00  0.00    +0.000 A 
ATOM      7  C   UNL     1       0.996  11.351  18.673  0.00  0.00    +0.000 A 
ATOM      8  C   UNL     1       0.284  11.841  19.759  0.00  0.00    +0.000 A 
ATOM      9  C   UNL     1       0.016  11.059  20.868  0.00  0.00    +0.000 A 
ATOM     10  N   UNL     1      -0.678  11.655  21.847  0.00  0.00    +0.000 NA
ATOM     11  C   UNL     1      -0.921  10.966  22.974  0.00  0.00    +0.000 A 
ATOM     12  C   UNL     1      -0.472   9.679  23.183  0.00  0.00    +0.000 A 
ATOM     13  C   UNL     1       0.250   9.059  22.163  0.00  0.00    +0.000 A 
ATOM     14  C   UNL     1       0.491   9.720  20.932  0.00  0.00    +0.000 A 
ENDBRANCH   2   5
BRANCH   1  19
ATOM     15  C   UNL     1       4.549   4.737  17.606  0.00  0.00    +0.000 A 
ATOM     16  C   UNL     1       3.791   3.582  17.425  0.00  0.00    +0.000 A 
ATOM     17  C   UNL     1       2.404   3.646  17.551  0.00  0.00    +0.000 A 
ATOM     18  C   UNL     1       1.767   4.857  17.842  0.00  0.00    +0.000 A 
ATOM     19  C   UNL     1       2.502   6.030  18.041  0.00  0.00    +0.000 A 
ATOM     20  C   UNL     1       3.901   5.955  17.928  0.00  0.00    +0.000 A 
BRANCH  15  26
ATOM     21  C   UNL     1       6.574   4.557  15.051  0.00  0.00    +0.000 C 
ATOM     22  C   UNL     1       6.857   4.459  16.502  0.00  0.00    +0.000 A 
ATOM     23  N   UNL     1       8.062   4.291  17.013  0.00  0.00    +0.000 NA
ATOM     24  N   UNL     1       7.951   4.516  18.354  0.00  0.00    +0.000 NA
ATOM     25  N   UNL     1       6.708   4.833  18.680  0.00  0.00    +0.000 NA
ATOM     26  N   UNL     1       5.969   4.689  17.548  0.00  0.00    +0.000 N 
ENDBRANCH  15  26
ENDBRANCH   1  19
TORSDOF 3
ENDMDL
MODEL 4
REMARK VINA RESULT:      -9.1      2.085      2.919
REMARK  Name = 
REMARK  4 active torsions:
REMARK  status: ('A' for Active; 'I' for Inactive)
REMARK    1  A    between atoms: C_1  and  C_2
REMARK    2  A    between atoms: N_6  and  C_7
REMARK    3  A    between atoms: C_11  and  N_12
REMARK    4  A    between atoms: C_13  and  C_15
REMARK                            x       y       z     vdW  Elec       q    Type
REMARK                         _______ _______ _______ _____ _____    ______ ____
ROOT
ATOM      1  N   UNL     1       2.332   7.906  19.111  0.00  0.00    +0.000 N 
ATOM      2  C   UNL     1       1.649   8.945  18.490  0.00  0.00    +0.000 C 
ATOM      3  O   UNL     1       1.281   8.943  17.318  0.00  0.00    +0.000 OA
ATOM      4  H   UNL     1       2.533   8.003  20.097  0.00  0.00    +0.000 HD
ENDROOT
BRANCH   2   5
ATOM      5  C   UNL     1       1.266  10.147  19.313  0.00  0.00    +0.000 A 
ATOM      6  C   UNL     1       1.656  11.377  18.743  0.00  0.00    +0.000 A 
ATOM      7  C   UNL     1       1.408  12.580  19.390  0.00  0.00    +0.000 A 
ATOM      8  C   UNL     1       0.743  12.569  20.608  0.00  0.00    +0.000 A 
ATOM      9  C   UNL     1       0.342  11.389  21.208  0.00  0.00    +0.000 A 
ATOM     10  N   UNL     1      -0.288  11.518  22.385  0.00  0.00    +0.000 NA
ATOM     11  C   UNL     1      -0.652  10.406  23.044  0.00  0.00    +0.000 A 
ATOM     12  C   UNL     1      -0.391   9.133  22.580  0.00  0.00    +0.000 A 
ATOM     13  C   UNL     1       0.263   9.000  21.355  0.00  0.00    +0.000 A 
ATOM     14  C   UNL     1       0.624  10.139  20.591  0.00  0.00    +0.000 A 
ENDBRANCH   2   5
BRANCH   1  19
ATOM     15  C   UNL     1       4.328   5.436  17.128  0.00  0.00    +0.000 A 
ATOM     16  C   UNL     1       3.613   4.257  17.328  0.00  0.00    +0.000 A 
ATOM     17  C   UNL     1       2.463   4.280  18.116  0.00  0.00    +0.000 A 
ATOM     18  C   UNL     1       2.013   5.472  18.692  0.00  0.00    +0.000 A 
ATOM     19  C   UNL     1       2.716   6.668  18.519  0.00  0.00    +0.000 A 
ATOM     20  C   UNL     1       3.884   6.636  17.737  0.00  0.00    +0.000 A 
BRANCH  15  26
ATOM     21  C   UNL     1       7.431   5.684  18.111  0.00  0.00    +0.000 C 
ATOM     22  C   UNL     1       6.860   5.687  16.743  0.00  0.00    +0.000 A 
ATOM     23  N   UNL     1       7.579   5.778  15.640  0.00  0.00    +0.000 NA
ATOM     24  N   UNL     1       6.741   5.480  14.606  0.00  0.00    +0.000 NA
ATOM     25  N   UNL     1       5.526   5.194  15.046  0.00  0.00    +0.000 NA
ATOM     26  N   UNL     1       5.540   5.432  16.385  0.00  0.00    +0.000 N 
ENDBRANCH  15  26
ENDBRANCH   1  19
TORSDOF 3
ENDMDL
MODEL 5
REMARK VINA RESULT:      -9.1      2.038      2.815
REMARK  Name = 
REMARK  4 active torsions:
REMARK  status: ('A' for Active; 'I' for Inactive)
REMARK    1  A    between atoms: C_1  and  C_2
REMARK    2  A    between atoms: N_6  and  C_7
REMARK    3  A    between atoms: C_11  and  N_12
REMARK    4  A    between atoms: C_13  and  C_15
REMARK                            x       y       z     vdW  Elec       q    Type
REMARK                         _______ _______ _______ _____ _____    ______ ____
ROOT
ATOM      1  N   UNL     1       2.331   8.019  19.036  0.00  0.00    +0.000 N 
ATOM      2  C   UNL     1       1.503   8.990  18.487  0.00  0.00    +0.000 C 
ATOM      3  O   UNL     1       1.021   8.947  17.358  0.00  0.00    +0.000 OA
ATOM      4  H   UNL     1       2.621   8.141  19.996  0.00  0.00    +0.000 HD
ENDROOT
BRANCH   2   5
ATOM      5  C   UNL     1       1.102  10.162  19.345  0.00  0.00    +0.000 A 
ATOM      6  C   UNL     1       1.447  11.415  18.797  0.00  0.00    +0.000 A 
ATOM      7  C   UNL     1       1.179  12.595  19.476  0.00  0.00    +0.000 A 
ATOM      8  C   UNL     1       0.538  12.538  20.706  0.00  0.00    +0.000 A 
ATOM      9  C   UNL     1       0.180  11.333  21.285  0.00  0.00    +0.000 A 
ATOM     10  N   UNL     1      -0.430  11.418  22.476  0.00  0.00    +0.000 NA
ATOM     11  C   UNL     1      -0.752  10.281  23.115  0.00  0.00    +0.000 A 
ATOM     12  C   UNL     1      -0.465   9.028  22.617  0.00  0.00    +0.000 A 
ATOM     13  C   UNL     1       0.170   8.941  21.377  0.00  0.00    +0.000 A 
ATOM     14  C   UNL     1       0.485  10.106  20.634  0.00  0.00    +0.000 A 
ENDBRANCH   2   5
BRANCH   1  19
ATOM     15  C   UNL     1       4.435   5.672  17.016  0.00  0.00    +0.000 A 
ATOM     16  C   UNL     1       3.742   4.470  17.150  0.00  0.00    +0.000 A 
ATOM     17  C   UNL     1       2.570   4.438  17.905  0.00  0.00    +0.000 A 
ATOM     18  C   UNL     1       2.078   5.597  18.514  0.00  0.00    +0.000 A 
ATOM     19  C   UNL     1       2.759   6.813  18.407  0.00  0.00    +0.000 A 
ATOM     20  C   UNL     1       3.949   6.836  17.658  0.00  0.00    +0.000 A 
BRANCH  15  26
ATOM     21  C   UNL     1       5.371   4.195  14.259  0.00  0.00    +0.000 C 
ATOM     22  C   UNL     1       6.157   4.997  15.226  0.00  0.00    +0.000 A 
ATOM     23  N   UNL     1       7.442   5.266  15.094  0.00  0.00    +0.000 NA
ATOM     24  N   UNL     1       7.733   6.227  16.017  0.00  0.00    +0.000 NA
ATOM     25  N   UNL     1       6.655   6.567  16.705  0.00  0.00    +0.000 NA
ATOM     26  N   UNL     1       5.668   5.721  16.308  0.00  0.00    +0.000 N 
ENDBRANCH  15  26
ENDBRANCH   1  19
TORSDOF 3
ENDMDL
MODEL 6
REMARK VINA RESULT:      -9.0      2.011      2.133
REMARK  Name = 
REMARK  4 active torsions:
REMARK  status: ('A' for Active; 'I' for Inactive)
REMARK    1  A    between atoms: C_1  and  C_2
REMARK    2  A    between atoms: N_6  and  C_7
REMARK    3  A    between atoms: C_11  and  N_12
REMARK    4  A    between atoms: C_13  and  C_15
REMARK                            x       y       z     vdW  Elec       q    Type
REMARK                         _______ _______ _______ _____ _____    ______ ____
ROOT
ATOM      1  N   UNL     1       2.154   7.475  19.135  0.00  0.00    +0.000 N 
ATOM      2  C   UNL     1       1.830   8.672  18.508  0.00  0.00    +0.000 C 
ATOM      3  O   UNL     1       1.909   8.877  17.299  0.00  0.00    +0.000 OA
ATOM      4  H   UNL     1       1.995   7.412  20.132  0.00  0.00    +0.000 HD
ENDROOT
BRANCH   2   5
ATOM      5  C   UNL     1       1.280   9.796  19.346  0.00  0.00    +0.000 A 
ATOM      6  C   UNL     1       0.398   9.371  20.362  0.00  0.00    +0.000 A 
ATOM      7  C   UNL     1      -0.222  10.284  21.204  0.00  0.00    +0.000 A 
ATOM      8  C   UNL     1       0.051  11.637  21.054  0.00  0.00    +0.000 A 
ATOM      9  C   UNL     1       0.907  12.103  20.073  0.00  0.00    +0.000 A 
ATOM     10  N   UNL     1       1.082  13.432  20.035  0.00  0.00    +0.000 NA
ATOM     11  C   UNL     1       1.858  13.950  19.069  0.00  0.00    +0.000 A 
ATOM     12  C   UNL     1       2.468  13.184  18.098  0.00  0.00    +0.000 A 
ATOM     13  C   UNL     1       2.286  11.801  18.139  0.00  0.00    +0.000 A 
ATOM     14  C   UNL     1       1.521  11.195  19.167  0.00  0.00    +0.000 A 
ENDBRANCH   2   5
BRANCH   1  19
ATOM     15  C   UNL     1       4.533   4.967  17.698  0.00  0.00    +0.000 A 
ATOM     16  C   UNL     1       3.674   3.942  17.307  0.00  0.00    +0.000 A 
ATOM     17  C   UNL     1       2.302   4.083  17.513  0.00  0.00    +0.000 A 
ATOM     18  C   UNL     1       1.781   5.245  18.091  0.00  0.00    +0.000 A 
ATOM     19  C   UNL     1       2.619   6.285  18.505  0.00  0.00    +0.000 A 
ATOM     20  C   UNL     1       4.003   6.129  18.309  0.00  0.00    +0.000 A 
BRANCH  15  26
ATOM     21  C   UNL     1       6.425   4.939  15.038  0.00  0.00    +0.000 C 
ATOM     22  C   UNL     1       6.763   4.653  16.452  0.00  0.00    +0.000 A 
ATOM     23  N   UNL     1       7.973   4.339  16.877  0.00  0.00    +0.000 NA
ATOM     24  N   UNL     1       7.937   4.414  18.238  0.00  0.00    +0.000 NA
ATOM     25  N   UNL     1       6.738   4.780  18.662  0.00  0.00    +0.000 NA
ATOM     26  N   UNL     1       5.942   4.823  17.562  0.00  0.00    +0.000 N 
ENDBRANCH  15  26
ENDBRANCH   1  19
TORSDOF 3
ENDMDL
MODEL 7
REMARK VINA RESULT:      -9.0      1.502      1.635
REMARK  Name = 
REMARK  4 active torsions:
REMARK  status: ('A' for Active; 'I' for Inactive)
REMARK    1  A    between atoms: C_1  and  C_2
REMARK    2  A    between atoms: N_6  and  C_7
REMARK    3  A    between atoms: C_11  and  N_12
REMARK    4  A    between atoms: C_13  and  C_15
REMARK                            x       y       z     vdW  Elec       q    Type
REMARK                         _______ _______ _______ _____ _____    ______ ____
ROOT
ATOM      1  N   UNL     1       1.779   7.214  18.957  0.00  0.00    +0.000 N 
ATOM      2  C   UNL     1       1.712   8.481  18.388  0.00  0.00    +0.000 C 
ATOM      3  O   UNL     1       2.196   8.791  17.303  0.00  0.00    +0.000 OA
ATOM      4  H   UNL     1       1.294   7.068  19.832  0.00  0.00    +0.000 HD
ENDROOT
BRANCH   2   5
ATOM      5  C   UNL     1       0.938   9.552  19.111  0.00  0.00    +0.000 A 
ATOM      6  C   UNL     1       1.486   9.907  20.362  0.00  0.00    +0.000 A 
ATOM      7  C   UNL     1       0.876  10.856  21.171  0.00  0.00    +0.000 A 
ATOM      8  C   UNL     1      -0.281  11.481  20.727  0.00  0.00    +0.000 A 
ATOM      9  C   UNL     1      -0.857  11.167  19.509  0.00  0.00    +0.000 A 
ATOM     10  N   UNL     1      -1.974  11.842  19.201  0.00  0.00    +0.000 NA
ATOM     11  C   UNL     1      -2.611  11.542  18.057  0.00  0.00    +0.000 A 
ATOM     12  C   UNL     1      -2.185  10.557  17.191  0.00  0.00    +0.000 A 
ATOM     13  C   UNL     1      -1.022   9.855  17.512  0.00  0.00    +0.000 A 
ATOM     14  C   UNL     1      -0.280  10.166  18.680  0.00  0.00    +0.000 A 
ENDBRANCH   2   5
BRANCH   1  19
ATOM     15  C   UNL     1       4.490   4.902  17.807  0.00  0.00    +0.000 A 
ATOM     16  C   UNL     1       3.762   3.808  17.343  0.00  0.00    +0.000 A 
ATOM     17  C   UNL     1       2.369   3.838  17.404  0.00  0.00    +0.000 A 
ATOM     18  C   UNL     1       1.698   4.956  17.910  0.00  0.00    +0.000 A 
ATOM     19  C   UNL     1       2.402   6.063  18.394  0.00  0.00    +0.000 A 
ATOM     20  C   UNL     1       3.807   6.020  18.344  0.00  0.00    +0.000 A 
BRANCH  15  26
ATOM     21  C   UNL     1       6.639   4.722  15.356  0.00  0.00    +0.000 C 
ATOM     22  C   UNL     1       6.853   4.644  16.820  0.00  0.00    +0.000 A 
ATOM     23  N   UNL     1       8.034   4.498  17.390  0.00  0.00    +0.000 NA
ATOM     24  N   UNL     1       7.854   4.736  18.721  0.00  0.00    +0.000 NA
ATOM     25  N   UNL     1       6.593   5.039  18.983  0.00  0.00    +0.000 NA
ATOM     26  N   UNL     1       5.912   4.873  17.819  0.00  0.00    +0.000 N 
ENDBRANCH  15  26
ENDBRANCH   1  19
TORSDOF 3
ENDMDL
MODEL 8
REMARK VINA RESULT:      -8.9      0.926      2.268
REMARK  Name = 
REMARK  4 active torsions:
REMARK  status: ('A' for Active; 'I' for Inactive)
REMARK    1  A    between atoms: C_1  and  C_2
REMARK    2  A    between atoms: N_6  and  C_7
REMARK    3  A    between atoms: C_11  and  N_12
REMARK    4  A    between atoms: C_13  and  C_15
REMARK                            x       y       z     vdW  Elec       q    Type
REMARK                         _______ _______ _______ _____ _____    ______ ____
ROOT
ATOM      1  N   UNL     1       2.054   6.600  19.809  0.00  0.00    +0.000 N 
ATOM      2  C   UNL     1       2.206   7.780  19.090  0.00  0.00    +0.000 C 
ATOM      3  O   UNL     1       3.057   7.972  18.226  0.00  0.00    +0.000 OA
ATOM      4  H   UNL     1       1.280   6.544  20.457  0.00  0.00    +0.000 HD
ENDROOT
BRANCH   2   5
ATOM      5  C   UNL     1       1.225   8.898  19.330  0.00  0.00    +0.000 A 
ATOM      6  C   UNL     1       0.858   9.594  18.159  0.00  0.00    +0.000 A 
ATOM      7  C   UNL     1      -0.014  10.674  18.208  0.00  0.00    +0.000 A 
ATOM      8  C   UNL     1      -0.548  11.056  19.431  0.00  0.00    +0.000 A 
ATOM      9  C   UNL     1      -0.218  10.406  20.606  0.00  0.00    +0.000 A 
ATOM     10  N   UNL     1      -0.803  10.877  21.717  0.00  0.00    +0.000 NA
ATOM     11  C   UNL     1      -0.480  10.323  22.897  0.00  0.00    +0.000 A 
ATOM     12  C   UNL     1       0.443   9.306  23.026  0.00  0.00    +0.000 A 
ATOM     13  C   UNL     1       1.049   8.815  21.869  0.00  0.00    +0.000 A 
ATOM     14  C   UNL     1       0.707   9.326  20.592  0.00  0.00    +0.000 A 
ENDBRANCH   2   5
BRANCH   1  19
ATOM     15  C   UNL     1       4.851   4.345  18.755  0.00  0.00    +0.000 A 
ATOM     16  C   UNL     1       4.502   3.143  19.367  0.00  0.00    +0.000 A 
ATOM     17  C   UNL     1       3.334   3.075  20.125  0.00  0.00    +0.000 A 
ATOM     18  C   UNL     1       2.505   4.193  20.264  0.00  0.00    +0.000 A 
ATOM     19  C   UNL     1       2.835   5.416  19.672  0.00  0.00    +0.000 A 
ATOM     20  C   UNL     1       4.023   5.482  18.922  0.00  0.00    +0.000 A 
BRANCH  15  26
ATOM     21  C   UNL     1       5.405   4.692  15.557  0.00  0.00    +0.000 C 
ATOM     22  C   UNL     1       6.355   4.457  16.669  0.00  0.00    +0.000 A 
ATOM     23  N   UNL     1       7.663   4.365  16.521  0.00  0.00    +0.000 NA
ATOM     24  N   UNL     1       8.200   4.417  17.774  0.00  0.00    +0.000 NA
ATOM     25  N   UNL     1       7.255   4.553  18.690  0.00  0.00    +0.000 NA
ATOM     26  N   UNL     1       6.070   4.462  18.031  0.00  0.00    +0.000 N 
ENDBRANCH  15  26
ENDBRANCH   1  19
TORSDOF 3
ENDMDL
MODEL 9
REMARK VINA RESULT:      -8.9      1.128      1.172
REMARK  Name = 
REMARK  4 active torsions:
REMARK  status: ('A' for Active; 'I' for Inactive)
REMARK    1  A    between atoms: C_1  and  C_2
REMARK    2  A    between atoms: N_6  and  C_7
REMARK    3  A    between atoms: C_11  and  N_12
REMARK    4  A    between atoms: C_13  and  C_15
REMARK                            x       y       z     vdW  Elec       q    Type
REMARK                         _______ _______ _______ _____ _____    ______ ____
ROOT
ATOM      1  N   UNL     1       2.173   6.720  20.184  0.00  0.00    +0.000 N 
ATOM      2  C   UNL     1       1.774   7.907  19.582  0.00  0.00    +0.000 C 
ATOM      3  O   UNL     1       1.835   8.139  18.377  0.00  0.00    +0.000 OA
ATOM      4  H   UNL     1       2.023   6.628  21.180  0.00  0.00    +0.000 HD
ENDROOT
BRANCH   2   5
ATOM      5  C   UNL     1       1.160   8.979  20.444  0.00  0.00    +0.000 A 
ATOM      6  C   UNL     1       0.681   8.508  21.685  0.00  0.00    +0.000 A 
ATOM      7  C   UNL     1       0.057   9.361  22.586  0.00  0.00    +0.000 A 
ATOM      8  C   UNL     1      -0.075  10.704  22.264  0.00  0.00    +0.000 A 
ATOM      9  C   UNL     1       0.377  11.214  21.060  0.00  0.00    +0.000 A 
ATOM     10  N   UNL     1       0.185  12.527  20.874  0.00  0.00    +0.000 NA
ATOM     11  C   UNL     1       0.551  13.071  19.702  0.00  0.00    +0.000 A 
ATOM     12  C   UNL     1       1.097  12.338  18.668  0.00  0.00    +0.000 A 
ATOM     13  C   UNL     1       1.298  10.971  18.864  0.00  0.00    +0.000 A 
ATOM     14  C   UNL     1       0.978  10.355  20.099  0.00  0.00    +0.000 A 
ENDBRANCH   2   5
BRANCH   1  19
ATOM     15  C   UNL     1       4.601   4.547  18.340  0.00  0.00    +0.000 A 
ATOM     16  C   UNL     1       3.901   3.345  18.245  0.00  0.00    +0.000 A 
ATOM     17  C   UNL     1       2.620   3.255  18.786  0.00  0.00    +0.000 A 
ATOM     18  C   UNL     1       2.026   4.358  19.407  0.00  0.00    +0.000 A 
ATOM     19  C   UNL     1       2.708   5.573  19.529  0.00  0.00    +0.000 A 
ATOM     20  C   UNL     1       4.006   5.653  18.995  0.00  0.00    +0.000 A 
BRANCH  15  26
ATOM     21  C   UNL     1       5.741   5.286  15.372  0.00  0.00    +0.000 C 
ATOM     22  C   UNL     1       6.458   4.808  16.577  0.00  0.00    +0.000 A 
ATOM     23  N   UNL     1       7.762   4.615  16.637  0.00  0.00    +0.000 NA
ATOM     24  N   UNL     1       8.068   4.439  17.954  0.00  0.00    +0.000 NA
ATOM     25  N   UNL     1       6.986   4.534  18.710  0.00  0.00    +0.000 NA
ATOM     26  N   UNL     1       5.934   4.649  17.857  0.00  0.00    +0.000 N 
ENDBRANCH  15  26
ENDBRANCH   1  19
TORSDOF 3
ENDMDL
