MODEL 1
REMARK VINA RESULT:      -8.6      0.000      0.000
REMARK  Name = 
REMARK  8 active torsions:
REMARK  status: ('A' for Active; 'I' for Inactive)
REMARK    1  A    between atoms: C_1  and  C_2
REMARK    2  A    between atoms: C_7  and  N_8
REMARK    3  A    between atoms: C_12  and  S_13
REMARK    4  A    between atoms: S_13  and  C_14
REMARK    5  A    between atoms: C_14  and  C_15
REMARK    6  A    between atoms: N_17  and  C_18
REMARK    7  A    between atoms: C_23  and  O_24
REMARK    8  A    between atoms: O_24  and  C_25
REMARK                            x       y       z     vdW  Elec       q    Type
REMARK                         _______ _______ _______ _____ _____    ______ ____
ROOT
ATOM      1  C   UNL     1       1.770   7.330  20.352  0.00  0.00    +0.000 C 
ATOM      2  O   UNL     1       1.815   7.565  19.141  0.00  0.00    +0.000 OA
ATOM      3  N   UNL     1       1.792   6.073  20.942  0.00  0.00    +0.000 N 
ATOM      4  H   UNL     1       1.456   5.989  21.902  0.00  0.00    +0.000 HD
ENDROOT
BRANCH   3   5
ATOM      5  C   UNL     1       1.986   4.841  20.257  0.00  0.00    +0.000 A 
ATOM      6  C   UNL     1       0.926   3.943  20.068  0.00  0.00    +0.000 A 
ATOM      7  C   UNL     1       1.112   2.716  19.431  0.00  0.00    +0.000 A 
ATOM      8  C   UNL     1       2.376   2.345  19.003  0.00  0.00    +0.000 A 
ATOM      9  C   UNL     1       3.447   3.219  19.184  0.00  0.00    +0.000 A 
ATOM     10  C   UNL     1       3.254   4.499  19.735  0.00  0.00    +0.000 A 
BRANCH  10  11
ATOM     11  O   UNL     1       4.288   5.428  19.810  0.00  0.00    +0.000 OA
BRANCH  11  12
ATOM     12  C   UNL     1       5.092   5.600  18.693  0.00  0.00    +0.000 A 
ATOM     13  C   UNL     1       4.603   6.094  17.476  0.00  0.00    +0.000 A 
ATOM     14  C   UNL     1       5.424   6.122  16.346  0.00  0.00    +0.000 A 
ATOM     15  C   UNL     1       6.757   5.727  16.443  0.00  0.00    +0.000 A 
ATOM     16  C   UNL     1       7.272   5.319  17.674  0.00  0.00    +0.000 A 
ATOM     17  C   UNL     1       6.441   5.255  18.801  0.00  0.00    +0.000 A 
ENDBRANCH  11  12
ENDBRANCH  10  11
ENDBRANCH   3   5
BRANCH   1  18
ATOM     18  C   UNL     1       1.648   8.494  21.326  0.00  0.00    +0.000 C 
BRANCH  18  19
ATOM     19  S   UNL     1      -0.033   9.183  21.288  0.00  0.00    +0.000 S 
BRANCH  19  24
ATOM     20  N   UNL     1      -0.247  11.433  19.636  0.00  0.00    +0.000 N 
ATOM     21  N   UNL     1       0.461  12.585  19.481  0.00  0.00    +0.000 NA
ATOM     22  N   UNL     1       1.308  12.660  20.493  0.00  0.00    +0.000 NA
ATOM     23  N   UNL     1       1.220  11.558  21.287  0.00  0.00    +0.000 NA
ATOM     24  C   UNL     1       0.290  10.796  20.753  0.00  0.00    +0.000 A 
BRANCH  20  31
ATOM     25  C   UNL     1      -2.978  12.655  20.068  0.00  0.00    +0.000 C 
ATOM     26  C   UNL     1      -2.636  11.662  18.986  0.00  0.00    +0.000 A 
ATOM     27  C   UNL     1      -3.679  11.288  18.115  0.00  0.00    +0.000 A 
ATOM     28  C   UNL     1      -3.467  10.391  17.072  0.00  0.00    +0.000 A 
ATOM     29  C   UNL     1      -2.208   9.840  16.882  0.00  0.00    +0.000 A 
ATOM     30  C   UNL     1      -1.156  10.195  17.731  0.00  0.00    +0.000 A 
ATOM     31  C   UNL     1      -1.343  11.114  18.781  0.00  0.00    +0.000 A 
ENDBRANCH  20  31
ENDBRANCH  19  24
ENDBRANCH  18  19
ENDBRANCH   1  18
TORSDOF 7
ENDMDL
MODEL 2
REMARK VINA RESULT:      -8.3      2.304      8.759
REMARK  Name = 
REMARK  8 active torsions:
REMARK  status: ('A' for Active; 'I' for Inactive)
REMARK    1  A    between atoms: C_1  and  C_2
REMARK    2  A    between atoms: C_7  and  N_8
REMARK    3  A    between atoms: C_12  and  S_13
REMARK    4  A    between atoms: S_13  and  C_14
REMARK    5  A    between atoms: C_14  and  C_15
REMARK    6  A    between atoms: N_17  and  C_18
REMARK    7  A    between atoms: C_23  and  O_24
REMARK    8  A    between atoms: O_24  and  C_25
REMARK                            x       y       z     vdW  Elec       q    Type
REMARK                         _______ _______ _______ _____ _____    ______ ____
ROOT
ATOM      1  C   UNL     1       1.896   7.259  20.035  0.00  0.00    +0.000 C 
ATOM      2  O   UNL     1       1.465   6.432  20.843  0.00  0.00    +0.000 OA
ATOM      3  N   UNL     1       1.589   8.612  20.007  0.00  0.00    +0.000 N 
ATOM      4  H   UNL     1       1.759   9.125  19.141  0.00  0.00    +0.000 HD
ENDROOT
BRANCH   3   5
ATOM      5  C   UNL     1       0.813   9.304  20.979  0.00  0.00    +0.000 A 
ATOM      6  C   UNL     1       0.838   8.924  22.329  0.00  0.00    +0.000 A 
ATOM      7  C   UNL     1       0.053   9.570  23.284  0.00  0.00    +0.000 A 
ATOM      8  C   UNL     1      -0.805  10.588  22.900  0.00  0.00    +0.000 A 
ATOM      9  C   UNL     1      -0.851  10.979  21.563  0.00  0.00    +0.000 A 
ATOM     10  C   UNL     1       0.007  10.403  20.608  0.00  0.00    +0.000 A 
BRANCH  10  11
ATOM     11  O   UNL     1       0.060  10.867  19.296  0.00  0.00    +0.000 OA
BRANCH  11  12
ATOM     12  C   UNL     1      -1.107  10.837  18.548  0.00  0.00    +0.000 A 
ATOM     13  C   UNL     1      -2.182  11.706  18.784  0.00  0.00    +0.000 A 
ATOM     14  C   UNL     1      -3.383  11.546  18.089  0.00  0.00    +0.000 A 
ATOM     15  C   UNL     1      -3.493  10.567  17.103  0.00  0.00    +0.000 A 
ATOM     16  C   UNL     1      -2.396   9.759  16.802  0.00  0.00    +0.000 A 
ATOM     17  C   UNL     1      -1.202   9.893  17.523  0.00  0.00    +0.000 A 
ENDBRANCH  11  12
ENDBRANCH  10  11
ENDBRANCH   3   5
BRANCH   1  18
ATOM     18  C   UNL     1       2.831   6.790  18.926  0.00  0.00    +0.000 C 
BRANCH  18  19
ATOM     19  S   UNL     1       2.270   5.200  18.249  0.00  0.00    +0.000 S 
BRANCH  19  24
ATOM     20  N   UNL     1       4.675   3.973  18.991  0.00  0.00    +0.000 N 
ATOM     21  N   UNL     1       5.009   2.845  19.676  0.00  0.00    +0.000 NA
ATOM     22  N   UNL     1       3.902   2.386  20.233  0.00  0.00    +0.000 NA
ATOM     23  N   UNL     1       2.829   3.149  19.889  0.00  0.00    +0.000 NA
ATOM     24  C   UNL     1       3.293   4.102  19.111  0.00  0.00    +0.000 A 
BRANCH  20  31
ATOM     25  C   UNL     1       4.973   4.099  15.985  0.00  0.00    +0.000 C 
ATOM     26  C   UNL     1       5.835   4.846  16.972  0.00  0.00    +0.000 A 
ATOM     27  C   UNL     1       6.850   5.664  16.437  0.00  0.00    +0.000 A 
ATOM     28  C   UNL     1       7.691   6.410  17.259  0.00  0.00    +0.000 A 
ATOM     29  C   UNL     1       7.540   6.345  18.637  0.00  0.00    +0.000 A 
ATOM     30  C   UNL     1       6.542   5.542  19.193  0.00  0.00    +0.000 A 
ATOM     31  C   UNL     1       5.668   4.794  18.381  0.00  0.00    +0.000 A 
ENDBRANCH  20  31
ENDBRANCH  19  24
ENDBRANCH  18  19
ENDBRANCH   1  18
TORSDOF 7
ENDMDL
MODEL 3
REMARK VINA RESULT:      -8.3      0.557      1.367
REMARK  Name = 
REMARK  8 active torsions:
REMARK  status: ('A' for Active; 'I' for Inactive)
REMARK    1  A    between atoms: C_1  and  C_2
REMARK    2  A    between atoms: C_7  and  N_8
REMARK    3  A    between atoms: C_12  and  S_13
REMARK    4  A    between atoms: S_13  and  C_14
REMARK    5  A    between atoms: C_14  and  C_15
REMARK    6  A    between atoms: N_17  and  C_18
REMARK    7  A    between atoms: C_23  and  O_24
REMARK    8  A    between atoms: O_24  and  C_25
REMARK                            x       y       z     vdW  Elec       q    Type
REMARK                         _______ _______ _______ _____ _____    ______ ____
ROOT
ATOM      1  C   UNL     1       1.893   7.064  20.214  0.00  0.00    +0.000 C 
ATOM      2  O   UNL     1       2.040   7.377  19.030  0.00  0.00    +0.000 OA
ATOM      3  N   UNL     1       1.876   5.773  20.723  0.00  0.00    +0.000 N 
ATOM      4  H   UNL     1       1.460   5.626  21.643  0.00  0.00    +0.000 HD
ENDROOT
BRANCH   3   5
ATOM      5  C   UNL     1       2.139   4.587  19.980  0.00  0.00    +0.000 A 
ATOM      6  C   UNL     1       1.093   3.780  19.511  0.00  0.00    +0.000 A 
ATOM      7  C   UNL     1       1.340   2.597  18.815  0.00  0.00    +0.000 A 
ATOM      8  C   UNL     1       2.643   2.177  18.606  0.00  0.00    +0.000 A 
ATOM      9  C   UNL     1       3.699   2.960  19.067  0.00  0.00    +0.000 A 
ATOM     10  C   UNL     1       3.466   4.204  19.684  0.00  0.00    +0.000 A 
BRANCH  10  11
ATOM     11  O   UNL     1       4.511   5.052  20.040  0.00  0.00    +0.000 OA
BRANCH  11  12
ATOM     12  C   UNL     1       5.345   5.515  19.034  0.00  0.00    +0.000 A 
ATOM     13  C   UNL     1       4.866   5.954  17.792  0.00  0.00    +0.000 A 
ATOM     14  C   UNL     1       5.758   6.284  16.769  0.00  0.00    +0.000 A 
ATOM     15  C   UNL     1       7.132   6.248  17.003  0.00  0.00    +0.000 A 
ATOM     16  C   UNL     1       7.611   5.898  18.266  0.00  0.00    +0.000 A 
ATOM     17  C   UNL     1       6.720   5.531  19.283  0.00  0.00    +0.000 A 
ENDBRANCH  11  12
ENDBRANCH  10  11
ENDBRANCH   3   5
BRANCH   1  18
ATOM     18  C   UNL     1       1.677   8.164  21.247  0.00  0.00    +0.000 C 
BRANCH  18  19
ATOM     19  S   UNL     1      -0.043   8.747  21.207  0.00  0.00    +0.000 S 
BRANCH  19  24
ATOM     20  N   UNL     1      -0.342  11.261  20.012  0.00  0.00    +0.000 N 
ATOM     21  N   UNL     1       0.298  12.458  20.113  0.00  0.00    +0.000 NA
ATOM     22  N   UNL     1       1.106  12.380  21.156  0.00  0.00    +0.000 NA
ATOM     23  N   UNL     1       1.061  11.141  21.718  0.00  0.00    +0.000 NA
ATOM     24  C   UNL     1       0.197  10.449  21.007  0.00  0.00    +0.000 A 
BRANCH  20  31
ATOM     25  C   UNL     1       0.061   9.502  17.587  0.00  0.00    +0.000 C 
ATOM     26  C   UNL     1      -1.207  10.251  17.910  0.00  0.00    +0.000 A 
ATOM     27  C   UNL     1      -2.278  10.107  17.006  0.00  0.00    +0.000 A 
ATOM     28  C   UNL     1      -3.499  10.742  17.219  0.00  0.00    +0.000 A 
ATOM     29  C   UNL     1      -3.672  11.544  18.338  0.00  0.00    +0.000 A 
ATOM     30  C   UNL     1      -2.626  11.703  19.251  0.00  0.00    +0.000 A 
ATOM     31  C   UNL     1      -1.389  11.056  19.065  0.00  0.00    +0.000 A 
ENDBRANCH  20  31
ENDBRANCH  19  24
ENDBRANCH  18  19
ENDBRANCH   1  18
TORSDOF 7
ENDMDL
MODEL 4
REMARK VINA RESULT:      -8.3      2.573      8.547
REMARK  Name = 
REMARK  8 active torsions:
REMARK  status: ('A' for Active; 'I' for Inactive)
REMARK    1  A    between atoms: C_1  and  C_2
REMARK    2  A    between atoms: C_7  and  N_8
REMARK    3  A    between atoms: C_12  and  S_13
REMARK    4  A    between atoms: S_13  and  C_14
REMARK    5  A    between atoms: C_14  and  C_15
REMARK    6  A    between atoms: N_17  and  C_18
REMARK    7  A    between atoms: C_23  and  O_24
REMARK    8  A    between atoms: O_24  and  C_25
REMARK                            x       y       z     vdW  Elec       q    Type
REMARK                         _______ _______ _______ _____ _____    ______ ____
ROOT
ATOM      1  C   UNL     1       1.910   9.361  17.757  0.00  0.00    +0.000 C 
ATOM      2  O   UNL     1       2.338  10.445  17.354  0.00  0.00    +0.000 OA
ATOM      3  N   UNL     1       0.606   9.092  18.149  0.00  0.00    +0.000 N 
ATOM      4  H   UNL     1       0.440   8.270  18.731  0.00  0.00    +0.000 HD
ENDROOT
BRANCH   3   5
ATOM      5  C   UNL     1      -0.492   9.993  18.045  0.00  0.00    +0.000 A 
ATOM      6  C   UNL     1      -1.557   9.737  17.169  0.00  0.00    +0.000 A 
ATOM      7  C   UNL     1      -2.619  10.630  17.031  0.00  0.00    +0.000 A 
ATOM      8  C   UNL     1      -2.618  11.820  17.741  0.00  0.00    +0.000 A 
ATOM      9  C   UNL     1      -1.569  12.098  18.614  0.00  0.00    +0.000 A 
ATOM     10  C   UNL     1      -0.542  11.162  18.836  0.00  0.00    +0.000 A 
BRANCH  10  11
ATOM     11  O   UNL     1       0.447  11.372  19.794  0.00  0.00    +0.000 OA
BRANCH  11  12
ATOM     12  C   UNL     1       0.279  10.792  21.042  0.00  0.00    +0.000 A 
ATOM     13  C   UNL     1       1.088   9.746  21.508  0.00  0.00    +0.000 A 
ATOM     14  C   UNL     1       0.792   9.110  22.716  0.00  0.00    +0.000 A 
ATOM     15  C   UNL     1      -0.269   9.562  23.500  0.00  0.00    +0.000 A 
ATOM     16  C   UNL     1      -1.022  10.660  23.082  0.00  0.00    +0.000 A 
ATOM     17  C   UNL     1      -0.749  11.277  21.853  0.00  0.00    +0.000 A 
ENDBRANCH  11  12
ENDBRANCH  10  11
ENDBRANCH   3   5
BRANCH   1  18
ATOM     18  C   UNL     1       2.873   8.187  17.882  0.00  0.00    +0.000 C 
BRANCH  18  19
ATOM     19  S   UNL     1       2.299   7.025  19.156  0.00  0.00    +0.000 S 
BRANCH  19  24
ATOM     20  N   UNL     1       3.782   5.043  17.848  0.00  0.00    +0.000 N 
ATOM     21  N   UNL     1       3.478   3.934  17.120  0.00  0.00    +0.000 NA
ATOM     22  N   UNL     1       2.182   3.718  17.264  0.00  0.00    +0.000 NA
ATOM     23  N   UNL     1       1.606   4.689  18.025  0.00  0.00    +0.000 NA
ATOM     24  C   UNL     1       2.576   5.512  18.361  0.00  0.00    +0.000 A 
BRANCH  20  31
ATOM     25  C   UNL     1       5.239   6.523  15.651  0.00  0.00    +0.000 C 
ATOM     26  C   UNL     1       5.835   6.150  16.984  0.00  0.00    +0.000 A 
ATOM     27  C   UNL     1       7.173   6.531  17.211  0.00  0.00    +0.000 A 
ATOM     28  C   UNL     1       7.814   6.251  18.414  0.00  0.00    +0.000 A 
ATOM     29  C   UNL     1       7.133   5.573  19.416  0.00  0.00    +0.000 A 
ATOM     30  C   UNL     1       5.806   5.186  19.218  0.00  0.00    +0.000 A 
ATOM     31  C   UNL     1       5.132   5.474  18.016  0.00  0.00    +0.000 A 
ENDBRANCH  20  31
ENDBRANCH  19  24
ENDBRANCH  18  19
ENDBRANCH   1  18
TORSDOF 7
ENDMDL
MODEL 5
REMARK VINA RESULT:      -8.3      2.328      8.765
REMARK  Name = 
REMARK  8 active torsions:
REMARK  status: ('A' for Active; 'I' for Inactive)
REMARK    1  A    between atoms: C_1  and  C_2
REMARK    2  A    between atoms: C_7  and  N_8
REMARK    3  A    between atoms: C_12  and  S_13
REMARK    4  A    between atoms: S_13  and  C_14
REMARK    5  A    between atoms: C_14  and  C_15
REMARK    6  A    between atoms: N_17  and  C_18
REMARK    7  A    between atoms: C_23  and  O_24
REMARK    8  A    between atoms: O_24  and  C_25
REMARK                            x       y       z     vdW  Elec       q    Type
REMARK                         _______ _______ _______ _____ _____    ______ ____
ROOT
ATOM      1  C   UNL     1       1.850   7.327  20.020  0.00  0.00    +0.000 C 
ATOM      2  O   UNL     1       1.500   6.504  20.869  0.00  0.00    +0.000 OA
ATOM      3  N   UNL     1       1.490   8.668  19.983  0.00  0.00    +0.000 N 
ATOM      4  H   UNL     1       1.589   9.166  19.098  0.00  0.00    +0.000 HD
ENDROOT
BRANCH   3   5
ATOM      5  C   UNL     1       0.747   9.352  20.986  0.00  0.00    +0.000 A 
ATOM      6  C   UNL     1       0.789   8.939  22.326  0.00  0.00    +0.000 A 
ATOM      7  C   UNL     1       0.037   9.579  23.310  0.00  0.00    +0.000 A 
ATOM      8  C   UNL     1      -0.805  10.624  22.967  0.00  0.00    +0.000 A 
ATOM      9  C   UNL     1      -0.868  11.048  21.642  0.00  0.00    +0.000 A 
ATOM     10  C   UNL     1      -0.041  10.477  20.656  0.00  0.00    +0.000 A 
BRANCH  10  11
ATOM     11  O   UNL     1      -0.003  10.971  19.355  0.00  0.00    +0.000 OA
BRANCH  11  12
ATOM     12  C   UNL     1      -1.128  10.804  18.562  0.00  0.00    +0.000 A 
ATOM     13  C   UNL     1      -1.214   9.824  17.563  0.00  0.00    +0.000 A 
ATOM     14  C   UNL     1      -2.317   9.786  16.707  0.00  0.00    +0.000 A 
ATOM     15  C   UNL     1      -3.372  10.678  16.889  0.00  0.00    +0.000 A 
ATOM     16  C   UNL     1      -3.331  11.597  17.938  0.00  0.00    +0.000 A 
ATOM     17  C   UNL     1      -2.210  11.661  18.776  0.00  0.00    +0.000 A 
ENDBRANCH  11  12
ENDBRANCH  10  11
ENDBRANCH   3   5
BRANCH   1  18
ATOM     18  C   UNL     1       2.735   6.869  18.867  0.00  0.00    +0.000 C 
BRANCH  18  19
ATOM     19  S   UNL     1       2.163   5.268  18.223  0.00  0.00    +0.000 S 
BRANCH  19  24
ATOM     20  N   UNL     1       4.467   3.734  18.646  0.00  0.00    +0.000 N 
ATOM     21  N   UNL     1       4.815   2.736  19.503  0.00  0.00    +0.000 NA
ATOM     22  N   UNL     1       3.866   2.661  20.419  0.00  0.00    +0.000 NA
ATOM     23  N   UNL     1       2.865   3.547  20.161  0.00  0.00    +0.000 NA
ATOM     24  C   UNL     1       3.217   4.186  19.066  0.00  0.00    +0.000 A 
BRANCH  20  31
ATOM     25  C   UNL     1       6.824   5.530  19.244  0.00  0.00    +0.000 C 
ATOM     26  C   UNL     1       6.444   5.029  17.874  0.00  0.00    +0.000 A 
ATOM     27  C   UNL     1       7.264   5.433  16.801  0.00  0.00    +0.000 A 
ATOM     28  C   UNL     1       7.013   5.013  15.497  0.00  0.00    +0.000 A 
ATOM     29  C   UNL     1       5.930   4.186  15.237  0.00  0.00    +0.000 A 
ATOM     30  C   UNL     1       5.103   3.769  16.283  0.00  0.00    +0.000 A 
ATOM     31  C   UNL     1       5.348   4.167  17.611  0.00  0.00    +0.000 A 
ENDBRANCH  20  31
ENDBRANCH  19  24
ENDBRANCH  18  19
ENDBRANCH   1  18
TORSDOF 7
ENDMDL
MODEL 6
REMARK VINA RESULT:      -8.3      2.547      9.052
REMARK  Name = 
REMARK  8 active torsions:
REMARK  status: ('A' for Active; 'I' for Inactive)
REMARK    1  A    between atoms: C_1  and  C_2
REMARK    2  A    between atoms: C_7  and  N_8
REMARK    3  A    between atoms: C_12  and  S_13
REMARK    4  A    between atoms: S_13  and  C_14
REMARK    5  A    between atoms: C_14  and  C_15
REMARK    6  A    between atoms: N_17  and  C_18
REMARK    7  A    between atoms: C_23  and  O_24
REMARK    8  A    between atoms: O_24  and  C_25
REMARK                            x       y       z     vdW  Elec       q    Type
REMARK                         _______ _______ _______ _____ _____    ______ ____
ROOT
ATOM      1  C   UNL     1       1.788   8.660  19.031  0.00  0.00    +0.000 C 
ATOM      2  O   UNL     1       1.674   8.707  20.259  0.00  0.00    +0.000 OA
ATOM      3  N   UNL     1       1.546   9.703  18.148  0.00  0.00    +0.000 N 
ATOM      4  H   UNL     1       1.387   9.472  17.166  0.00  0.00    +0.000 HD
ENDROOT
BRANCH   3   5
ATOM      5  C   UNL     1       1.234  11.042  18.514  0.00  0.00    +0.000 A 
ATOM      6  C   UNL     1       2.207  12.051  18.465  0.00  0.00    +0.000 A 
ATOM      7  C   UNL     1       1.923  13.359  18.856  0.00  0.00    +0.000 A 
ATOM      8  C   UNL     1       0.666  13.677  19.344  0.00  0.00    +0.000 A 
ATOM      9  C   UNL     1      -0.315  12.690  19.407  0.00  0.00    +0.000 A 
ATOM     10  C   UNL     1      -0.072  11.391  18.923  0.00  0.00    +0.000 A 
BRANCH  10  11
ATOM     11  O   UNL     1      -1.077  10.430  18.867  0.00  0.00    +0.000 OA
BRANCH  11  12
ATOM     12  C   UNL     1      -2.060  10.571  17.899  0.00  0.00    +0.000 A 
ATOM     13  C   UNL     1      -3.229  11.316  18.107  0.00  0.00    +0.000 A 
ATOM     14  C   UNL     1      -4.245  11.317  17.149  0.00  0.00    +0.000 A 
ATOM     15  C   UNL     1      -4.069  10.633  15.947  0.00  0.00    +0.000 A 
ATOM     16  C   UNL     1      -2.871   9.963  15.698  0.00  0.00    +0.000 A 
ATOM     17  C   UNL     1      -1.864   9.931  16.673  0.00  0.00    +0.000 A 
ENDBRANCH  11  12
ENDBRANCH  10  11
ENDBRANCH   3   5
BRANCH   1  18
ATOM     18  C   UNL     1       2.202   7.347  18.378  0.00  0.00    +0.000 C 
BRANCH  18  19
ATOM     19  S   UNL     1       2.472   6.066  19.637  0.00  0.00    +0.000 S 
BRANCH  19  24
ATOM     20  N   UNL     1       4.234   4.640  17.993  0.00  0.00    +0.000 N 
ATOM     21  N   UNL     1       4.122   3.567  17.164  0.00  0.00    +0.000 NA
ATOM     22  N   UNL     1       2.934   3.031  17.380  0.00  0.00    +0.000 NA
ATOM     23  N   UNL     1       2.229   3.754  18.292  0.00  0.00    +0.000 NA
ATOM     24  C   UNL     1       3.010   4.751  18.650  0.00  0.00    +0.000 A 
BRANCH  20  31
ATOM     25  C   UNL     1       5.031   6.702  15.931  0.00  0.00    +0.000 C 
ATOM     26  C   UNL     1       5.853   6.321  17.135  0.00  0.00    +0.000 A 
ATOM     27  C   UNL     1       7.084   6.989  17.301  0.00  0.00    +0.000 A 
ATOM     28  C   UNL     1       7.912   6.726  18.388  0.00  0.00    +0.000 A 
ATOM     29  C   UNL     1       7.533   5.779  19.329  0.00  0.00    +0.000 A 
ATOM     30  C   UNL     1       6.319   5.104  19.189  0.00  0.00    +0.000 A 
ATOM     31  C   UNL     1       5.456   5.367  18.108  0.00  0.00    +0.000 A 
ENDBRANCH  20  31
ENDBRANCH  19  24
ENDBRANCH  18  19
ENDBRANCH   1  18
TORSDOF 7
ENDMDL
MODEL 7
REMARK VINA RESULT:      -8.2      2.349      8.974
REMARK  Name = 
REMARK  8 active torsions:
REMARK  status: ('A' for Active; 'I' for Inactive)
REMARK    1  A    between atoms: C_1  and  C_2
REMARK    2  A    between atoms: C_7  and  N_8
REMARK    3  A    between atoms: C_12  and  S_13
REMARK    4  A    between atoms: S_13  and  C_14
REMARK    5  A    between atoms: C_14  and  C_15
REMARK    6  A    between atoms: N_17  and  C_18
REMARK    7  A    between atoms: C_23  and  O_24
REMARK    8  A    between atoms: O_24  and  C_25
REMARK                            x       y       z     vdW  Elec       q    Type
REMARK                         _______ _______ _______ _____ _____    ______ ____
ROOT
ATOM      1  C   UNL     1       1.415   8.631  20.511  0.00  0.00    +0.000 C 
ATOM      2  O   UNL     1       1.397   8.926  21.709  0.00  0.00    +0.000 OA
ATOM      3  N   UNL     1       0.974   9.429  19.465  0.00  0.00    +0.000 N 
ATOM      4  H   UNL     1       0.764   8.979  18.574  0.00  0.00    +0.000 HD
ENDROOT
BRANCH   3   5
ATOM      5  C   UNL     1       0.531  10.777  19.584  0.00  0.00    +0.000 A 
ATOM      6  C   UNL     1       1.437  11.817  19.838  0.00  0.00    +0.000 A 
ATOM      7  C   UNL     1       1.009  13.135  19.992  0.00  0.00    +0.000 A 
ATOM      8  C   UNL     1      -0.342  13.436  19.934  0.00  0.00    +0.000 A 
ATOM      9  C   UNL     1      -1.261  12.418  19.687  0.00  0.00    +0.000 A 
ATOM     10  C   UNL     1      -0.835  11.101  19.431  0.00  0.00    +0.000 A 
BRANCH  10  11
ATOM     11  O   UNL     1      -1.731  10.100  19.064  0.00  0.00    +0.000 OA
BRANCH  11  12
ATOM     12  C   UNL     1      -2.455  10.272  17.894  0.00  0.00    +0.000 A 
ATOM     13  C   UNL     1      -1.973   9.877  16.638  0.00  0.00    +0.000 A 
ATOM     14  C   UNL     1      -2.686  10.193  15.479  0.00  0.00    +0.000 A 
ATOM     15  C   UNL     1      -3.917  10.839  15.572  0.00  0.00    +0.000 A 
ATOM     16  C   UNL     1      -4.443  11.154  16.825  0.00  0.00    +0.000 A 
ATOM     17  C   UNL     1      -3.713  10.871  17.988  0.00  0.00    +0.000 A 
ENDBRANCH  11  12
ENDBRANCH  10  11
ENDBRANCH   3   5
BRANCH   1  18
ATOM     18  C   UNL     1       1.932   7.258  20.098  0.00  0.00    +0.000 C 
BRANCH  18  19
ATOM     19  S   UNL     1       2.336   7.237  18.326  0.00  0.00    +0.000 S 
BRANCH  19  24
ATOM     20  N   UNL     1       3.945   4.988  17.887  0.00  0.00    +0.000 N 
ATOM     21  N   UNL     1       3.716   3.695  17.530  0.00  0.00    +0.000 NA
ATOM     22  N   UNL     1       2.412   3.496  17.603  0.00  0.00    +0.000 NA
ATOM     23  N   UNL     1       1.761   4.642  17.946  0.00  0.00    +0.000 NA
ATOM     24  C   UNL     1       2.692   5.559  18.096  0.00  0.00    +0.000 A 
BRANCH  20  31
ATOM     25  C   UNL     1       5.276   6.597  15.701  0.00  0.00    +0.000 C 
ATOM     26  C   UNL     1       5.915   6.230  17.016  0.00  0.00    +0.000 A 
ATOM     27  C   UNL     1       7.233   6.683  17.229  0.00  0.00    +0.000 A 
ATOM     28  C   UNL     1       7.910   6.414  18.416  0.00  0.00    +0.000 A 
ATOM     29  C   UNL     1       7.286   5.677  19.413  0.00  0.00    +0.000 A 
ATOM     30  C   UNL     1       5.980   5.218  19.228  0.00  0.00    +0.000 A 
ATOM     31  C   UNL     1       5.270   5.493  18.043  0.00  0.00    +0.000 A 
ENDBRANCH  20  31
ENDBRANCH  19  24
ENDBRANCH  18  19
ENDBRANCH   1  18
TORSDOF 7
ENDMDL
MODEL 8
REMARK VINA RESULT:      -8.2      2.229      8.989
REMARK  Name = 
REMARK  8 active torsions:
REMARK  status: ('A' for Active; 'I' for Inactive)
REMARK    1  A    between atoms: C_1  and  C_2
REMARK    2  A    between atoms: C_7  and  N_8
REMARK    3  A    between atoms: C_12  and  S_13
REMARK    4  A    between atoms: S_13  and  C_14
REMARK    5  A    between atoms: C_14  and  C_15
REMARK    6  A    between atoms: N_17  and  C_18
REMARK    7  A    between atoms: C_23  and  O_24
REMARK    8  A    between atoms: O_24  and  C_25
REMARK                            x       y       z     vdW  Elec       q    Type
REMARK                         _______ _______ _______ _____ _____    ______ ____
ROOT
ATOM      1  C   UNL     1       1.138   9.221  20.722  0.00  0.00    +0.000 C 
ATOM      2  O   UNL     1       1.193   9.899  21.751  0.00  0.00    +0.000 OA
ATOM      3  N   UNL     1       0.930   9.701  19.436  0.00  0.00    +0.000 N 
ATOM      4  H   UNL     1       0.613   9.042  18.724  0.00  0.00    +0.000 HD
ENDROOT
BRANCH   3   5
ATOM      5  C   UNL     1       0.858  11.074  19.067  0.00  0.00    +0.000 A 
ATOM      6  C   UNL     1       2.020  11.815  18.808  0.00  0.00    +0.000 A 
ATOM      7  C   UNL     1       1.964  13.170  18.482  0.00  0.00    +0.000 A 
ATOM      8  C   UNL     1       0.742  13.823  18.447  0.00  0.00    +0.000 A 
ATOM      9  C   UNL     1      -0.425  13.108  18.706  0.00  0.00    +0.000 A 
ATOM     10  C   UNL     1      -0.391  11.720  18.938  0.00  0.00    +0.000 A 
BRANCH  10  11
ATOM     11  O   UNL     1      -1.557  10.972  19.078  0.00  0.00    +0.000 OA
BRANCH  11  12
ATOM     12  C   UNL     1      -2.343  10.775  17.953  0.00  0.00    +0.000 A 
ATOM     13  C   UNL     1      -2.003   9.869  16.938  0.00  0.00    +0.000 A 
ATOM     14  C   UNL     1      -2.761   9.807  15.766  0.00  0.00    +0.000 A 
ATOM     15  C   UNL     1      -3.902  10.595  15.631  0.00  0.00    +0.000 A 
ATOM     16  C   UNL     1      -4.294  11.434  16.675  0.00  0.00    +0.000 A 
ATOM     17  C   UNL     1      -3.516  11.525  17.837  0.00  0.00    +0.000 A 
ENDBRANCH  11  12
ENDBRANCH  10  11
ENDBRANCH   3   5
BRANCH   1  18
ATOM     18  C   UNL     1       1.276   7.707  20.827  0.00  0.00    +0.000 C 
BRANCH  18  19
ATOM     19  S   UNL     1       2.390   7.077  19.537  0.00  0.00    +0.000 S 
BRANCH  19  24
ATOM     20  N   UNL     1       3.663   4.586  19.667  0.00  0.00    +0.000 N 
ATOM     21  N   UNL     1       3.385   3.393  20.258  0.00  0.00    +0.000 NA
ATOM     22  N   UNL     1       2.369   3.593  21.080  0.00  0.00    +0.000 NA
ATOM     23  N   UNL     1       1.927   4.878  21.007  0.00  0.00    +0.000 NA
ATOM     24  C   UNL     1       2.698   5.480  20.128  0.00  0.00    +0.000 A 
BRANCH  20  31
ATOM     25  C   UNL     1       3.584   3.744  16.765  0.00  0.00    +0.000 C 
ATOM     26  C   UNL     1       4.783   4.337  17.461  0.00  0.00    +0.000 A 
ATOM     27  C   UNL     1       5.946   4.510  16.684  0.00  0.00    +0.000 A 
ATOM     28  C   UNL     1       7.103   5.065  17.224  0.00  0.00    +0.000 A 
ATOM     29  C   UNL     1       7.125   5.451  18.557  0.00  0.00    +0.000 A 
ATOM     30  C   UNL     1       5.985   5.292  19.348  0.00  0.00    +0.000 A 
ATOM     31  C   UNL     1       4.798   4.750  18.819  0.00  0.00    +0.000 A 
ENDBRANCH  20  31
ENDBRANCH  19  24
ENDBRANCH  18  19
ENDBRANCH   1  18
TORSDOF 7
ENDMDL
MODEL 9
REMARK VINA RESULT:      -8.2      2.311      9.007
REMARK  Name = 
REMARK  8 active torsions:
REMARK  status: ('A' for Active; 'I' for Inactive)
REMARK    1  A    between atoms: C_1  and  C_2
REMARK    2  A    between atoms: C_7  and  N_8
REMARK    3  A    between atoms: C_12  and  S_13
REMARK    4  A    between atoms: S_13  and  C_14
REMARK    5  A    between atoms: C_14  and  C_15
REMARK    6  A    between atoms: N_17  and  C_18
REMARK    7  A    between atoms: C_23  and  O_24
REMARK    8  A    between atoms: O_24  and  C_25
REMARK                            x       y       z     vdW  Elec       q    Type
REMARK                         _______ _______ _______ _____ _____    ______ ____
ROOT
ATOM      1  C   UNL     1       1.361   8.736  20.347  0.00  0.00    +0.000 C 
ATOM      2  O   UNL     1       1.263   9.331  21.424  0.00  0.00    +0.000 OA
ATOM      3  N   UNL     1       1.267   9.307  19.086  0.00  0.00    +0.000 N 
ATOM      4  H   UNL     1       1.069   8.693  18.295  0.00  0.00    +0.000 HD
ENDROOT
BRANCH   3   5
ATOM      5  C   UNL     1       1.156  10.700  18.815  0.00  0.00    +0.000 A 
ATOM      6  C   UNL     1       2.287  11.470  18.509  0.00  0.00    +0.000 A 
ATOM      7  C   UNL     1       2.195  12.842  18.278  0.00  0.00    +0.000 A 
ATOM      8  C   UNL     1       0.971  13.481  18.387  0.00  0.00    +0.000 A 
ATOM      9  C   UNL     1      -0.167  12.738  18.695  0.00  0.00    +0.000 A 
ATOM     10  C   UNL     1      -0.104  11.338  18.832  0.00  0.00    +0.000 A 
BRANCH  10  11
ATOM     11  O   UNL     1      -1.249  10.569  19.019  0.00  0.00    +0.000 OA
BRANCH  11  12
ATOM     12  C   UNL     1      -2.197  10.555  18.007  0.00  0.00    +0.000 A 
ATOM     13  C   UNL     1      -2.011   9.860  16.803  0.00  0.00    +0.000 A 
ATOM     14  C   UNL     1      -2.938   9.988  15.765  0.00  0.00    +0.000 A 
ATOM     15  C   UNL     1      -4.090  10.750  15.950  0.00  0.00    +0.000 A 
ATOM     16  C   UNL     1      -4.323  11.370  17.178  0.00  0.00    +0.000 A 
ATOM     17  C   UNL     1      -3.377  11.273  18.208  0.00  0.00    +0.000 A 
ENDBRANCH  11  12
ENDBRANCH  10  11
ENDBRANCH   3   5
BRANCH   1  18
ATOM     18  C   UNL     1       1.575   7.227  20.354  0.00  0.00    +0.000 C 
BRANCH  18  19
ATOM     19  S   UNL     1       2.700   6.736  19.015  0.00  0.00    +0.000 S 
BRANCH  19  24
ATOM     20  N   UNL     1       4.040   4.280  18.907  0.00  0.00    +0.000 N 
ATOM     21  N   UNL     1       3.928   3.093  19.562  0.00  0.00    +0.000 NA
ATOM     22  N   UNL     1       3.105   3.285  20.578  0.00  0.00    +0.000 NA
ATOM     23  N   UNL     1       2.622   4.557  20.582  0.00  0.00    +0.000 NA
ATOM     24  C   UNL     1       3.171   5.160  19.550  0.00  0.00    +0.000 A 
BRANCH  20  31
ATOM     25  C   UNL     1       6.796   5.430  19.382  0.00  0.00    +0.000 C 
ATOM     26  C   UNL     1       6.252   5.014  18.039  0.00  0.00    +0.000 A 
ATOM     27  C   UNL     1       7.108   5.175  16.930  0.00  0.00    +0.000 A 
ATOM     28  C   UNL     1       6.711   4.806  15.648  0.00  0.00    +0.000 A 
ATOM     29  C   UNL     1       5.445   4.276  15.444  0.00  0.00    +0.000 A 
ATOM     30  C   UNL     1       4.578   4.105  16.526  0.00  0.00    +0.000 A 
ATOM     31  C   UNL     1       4.964   4.454  17.834  0.00  0.00    +0.000 A 
ENDBRANCH  20  31
ENDBRANCH  19  24
ENDBRANCH  18  19
ENDBRANCH   1  18
TORSDOF 7
ENDMDL
