MODEL 1
REMARK VINA RESULT:      -8.9      0.000      0.000
REMARK  Name = 
REMARK  7 active torsions:
REMARK  status: ('A' for Active; 'I' for Inactive)
REMARK    1  A    between atoms: C_1  and  C_2
REMARK    2  A    between atoms: C_2  and  C_3
REMARK    3  A    between atoms: C_11  and  C_12
REMARK    4  A    between atoms: C_12  and  C_13
REMARK    5  A    between atoms: N_15  and  C_16
REMARK    6  A    between atoms: C_18  and  N_19
REMARK    7  A    between atoms: C_28  and  C_29
REMARK                            x       y       z     vdW  Elec       q    Type
REMARK                         _______ _______ _______ _____ _____    ______ ____
ROOT
ATOM      1  C   UNL     1       4.249   3.808  17.291  0.00  0.00    +0.000 C 
ATOM      2  O   UNL     1       3.214   3.927  16.639  0.00  0.00    +0.000 OA
ATOM      3  N   UNL     1       4.431   4.258  18.590  0.00  0.00    +0.000 N 
ATOM      4  H   UNL     1       5.366   4.607  18.771  0.00  0.00    +0.000 HD
ENDROOT
BRANCH   3   5
ATOM      5  C   UNL     1       3.389   4.848  19.346  0.00  0.00    +0.000 A 
ATOM      6  C   UNL     1       3.126   6.207  19.095  0.00  0.00    +0.000 A 
ATOM      7  C   UNL     1       2.105   6.905  19.759  0.00  0.00    +0.000 A 
ATOM      8  C   UNL     1       1.368   6.201  20.719  0.00  0.00    +0.000 A 
ATOM      9  C   UNL     1       1.643   4.859  21.004  0.00  0.00    +0.000 A 
ATOM     10  C   UNL     1       2.666   4.168  20.340  0.00  0.00    +0.000 A 
ATOM     11  C   UNL     1       2.970   2.765  20.785  0.00  0.00    +0.000 C 
BRANCH   7  12
ATOM     12  N   UNL     1       1.809   8.271  19.459  0.00  0.00    +0.000 N 
ATOM     13  C   UNL     1       2.019   8.864  18.234  0.00  0.00    +0.000 C 
ATOM     14  O   UNL     1       2.489   8.384  17.210  0.00  0.00    +0.000 OA
ATOM     15  C   UNL     1       1.525  10.277  18.272  0.00  0.00    +0.000 C 
ATOM     16  C   UNL     1       1.084  10.493  19.694  0.00  0.00    +0.000 C 
ATOM     17  C   UNL     1       1.282   9.168  20.363  0.00  0.00    +0.000 C 
ATOM     18  O   UNL     1       1.040   9.014  21.554  0.00  0.00    +0.000 OA
ENDBRANCH   7  12
ENDBRANCH   3   5
BRANCH   1  19
ATOM     19  C   UNL     1       5.484   3.155  16.691  0.00  0.00    +0.000 C 
BRANCH  19  28
ATOM     20  C   UNL     1       7.020   5.206  16.321  0.00  0.00    +0.000 A 
ATOM     21  O   UNL     1       7.625   5.837  15.277  0.00  0.00    +0.000 OA
ATOM     22  C   UNL     1       7.315   5.151  14.151  0.00  0.00    +0.000 A 
ATOM     23  C   UNL     1       7.732   5.494  12.867  0.00  0.00    +0.000 A 
ATOM     24  C   UNL     1       7.282   4.678  11.825  0.00  0.00    +0.000 A 
ATOM     25  C   UNL     1       6.458   3.579  12.079  0.00  0.00    +0.000 A 
ATOM     26  C   UNL     1       6.065   3.254  13.388  0.00  0.00    +0.000 A 
ATOM     27  C   UNL     1       6.507   4.063  14.456  0.00  0.00    +0.000 A 
ATOM     28  C   UNL     1       6.322   4.090  15.879  0.00  0.00    +0.000 A 
BRANCH  20  30
ATOM     29  C   UNL     1       7.469   7.351  17.500  0.00  0.00    +0.000 C 
ATOM     30  C   UNL     1       7.213   5.859  17.643  0.00  0.00    +0.000 C 
ENDBRANCH  20  30
ENDBRANCH  19  28
ENDBRANCH   1  19
TORSDOF 5
ENDMDL
MODEL 2
REMARK VINA RESULT:      -8.8      0.105      1.412
REMARK  Name = 
REMARK  7 active torsions:
REMARK  status: ('A' for Active; 'I' for Inactive)
REMARK    1  A    between atoms: C_1  and  C_2
REMARK    2  A    between atoms: C_2  and  C_3
REMARK    3  A    between atoms: C_11  and  C_12
REMARK    4  A    between atoms: C_12  and  C_13
REMARK    5  A    between atoms: N_15  and  C_16
REMARK    6  A    between atoms: C_18  and  N_19
REMARK    7  A    between atoms: C_28  and  C_29
REMARK                            x       y       z     vdW  Elec       q    Type
REMARK                         _______ _______ _______ _____ _____    ______ ____
ROOT
ATOM      1  C   UNL     1       4.306   3.897  17.336  0.00  0.00    +0.000 C 
ATOM      2  O   UNL     1       3.305   4.075  16.646  0.00  0.00    +0.000 OA
ATOM      3  N   UNL     1       4.446   4.292  18.658  0.00  0.00    +0.000 N 
ATOM      4  H   UNL     1       5.383   4.602  18.891  0.00  0.00    +0.000 HD
ENDROOT
BRANCH   3   5
ATOM      5  C   UNL     1       3.392   4.890  19.390  0.00  0.00    +0.000 A 
ATOM      6  C   UNL     1       3.124   6.243  19.110  0.00  0.00    +0.000 A 
ATOM      7  C   UNL     1       2.091   6.947  19.750  0.00  0.00    +0.000 A 
ATOM      8  C   UNL     1       1.347   6.257  20.714  0.00  0.00    +0.000 A 
ATOM      9  C   UNL     1       1.627   4.923  21.028  0.00  0.00    +0.000 A 
ATOM     10  C   UNL     1       2.661   4.225  20.388  0.00  0.00    +0.000 A 
ATOM     11  C   UNL     1       2.968   2.833  20.864  0.00  0.00    +0.000 C 
BRANCH   7  12
ATOM     12  N   UNL     1       1.791   8.305  19.420  0.00  0.00    +0.000 N 
ATOM     13  C   UNL     1       1.190   9.201  20.275  0.00  0.00    +0.000 C 
ATOM     14  O   UNL     1       0.795   9.034  21.423  0.00  0.00    +0.000 OA
ATOM     15  C   UNL     1       1.102  10.542  19.614  0.00  0.00    +0.000 C 
ATOM     16  C   UNL     1       1.632  10.321  18.222  0.00  0.00    +0.000 C 
ATOM     17  C   UNL     1       2.060   8.885  18.199  0.00  0.00    +0.000 C 
ATOM     18  O   UNL     1       2.516   8.375  17.183  0.00  0.00    +0.000 OA
ENDBRANCH   7  12
ENDBRANCH   3   5
BRANCH   1  19
ATOM     19  C   UNL     1       5.543   3.224  16.765  0.00  0.00    +0.000 C 
BRANCH  19  28
ATOM     20  C   UNL     1       7.130   5.225  16.340  0.00  0.00    +0.000 A 
ATOM     21  O   UNL     1       7.722   5.834  15.276  0.00  0.00    +0.000 OA
ATOM     22  C   UNL     1       7.357   5.154  14.162  0.00  0.00    +0.000 A 
ATOM     23  C   UNL     1       7.746   5.480  12.865  0.00  0.00    +0.000 A 
ATOM     24  C   UNL     1       7.240   4.674  11.841  0.00  0.00    +0.000 A 
ATOM     25  C   UNL     1       6.391   3.602  12.124  0.00  0.00    +0.000 A 
ATOM     26  C   UNL     1       6.028   3.294  13.446  0.00  0.00    +0.000 A 
ATOM     27  C   UNL     1       6.526   4.092  14.496  0.00  0.00    +0.000 A 
ATOM     28  C   UNL     1       6.385   4.129  15.924  0.00  0.00    +0.000 A 
BRANCH  20  30
ATOM     29  C   UNL     1       7.370   7.392  17.539  0.00  0.00    +0.000 C 
ATOM     30  C   UNL     1       7.383   5.877  17.653  0.00  0.00    +0.000 C 
ENDBRANCH  20  30
ENDBRANCH  19  28
ENDBRANCH   1  19
TORSDOF 5
ENDMDL
MODEL 3
REMARK VINA RESULT:      -8.5      3.747      7.201
REMARK  Name = 
REMARK  7 active torsions:
REMARK  status: ('A' for Active; 'I' for Inactive)
REMARK    1  A    between atoms: C_1  and  C_2
REMARK    2  A    between atoms: C_2  and  C_3
REMARK    3  A    between atoms: C_11  and  C_12
REMARK    4  A    between atoms: C_12  and  C_13
REMARK    5  A    between atoms: N_15  and  C_16
REMARK    6  A    between atoms: C_18  and  N_19
REMARK    7  A    between atoms: C_28  and  C_29
REMARK                            x       y       z     vdW  Elec       q    Type
REMARK                         _______ _______ _______ _____ _____    ______ ____
ROOT
ATOM      1  C   UNL     1       0.715   8.305  20.921  0.00  0.00    +0.000 C 
ATOM      2  O   UNL     1      -0.351   7.889  21.368  0.00  0.00    +0.000 OA
ATOM      3  N   UNL     1       0.895   9.526  20.287  0.00  0.00    +0.000 N 
ATOM      4  H   UNL     1       1.570   9.494  19.530  0.00  0.00    +0.000 HD
ENDROOT
BRANCH   3   5
ATOM      5  C   UNL     1      -0.146  10.476  20.154  0.00  0.00    +0.000 A 
ATOM      6  C   UNL     1      -0.462  11.224  21.303  0.00  0.00    +0.000 A 
ATOM      7  C   UNL     1      -1.458  12.214  21.299  0.00  0.00    +0.000 A 
ATOM      8  C   UNL     1      -2.161  12.410  20.104  0.00  0.00    +0.000 A 
ATOM      9  C   UNL     1      -1.881  11.648  18.965  0.00  0.00    +0.000 A 
ATOM     10  C   UNL     1      -0.888  10.659  18.975  0.00  0.00    +0.000 A 
ATOM     11  C   UNL     1      -0.729   9.809  17.746  0.00  0.00    +0.000 C 
BRANCH   7  12
ATOM     12  N   UNL     1      -1.734  13.007  22.456  0.00  0.00    +0.000 N 
ATOM     13  C   UNL     1      -0.860  13.917  23.005  0.00  0.00    +0.000 C 
ATOM     14  O   UNL     1       0.277  14.211  22.654  0.00  0.00    +0.000 OA
ATOM     15  C   UNL     1      -1.517  14.609  24.159  0.00  0.00    +0.000 C 
ATOM     16  C   UNL     1      -2.857  13.936  24.299  0.00  0.00    +0.000 C 
ATOM     17  C   UNL     1      -2.912  12.953  23.169  0.00  0.00    +0.000 C 
ATOM     18  O   UNL     1      -3.876  12.214  23.017  0.00  0.00    +0.000 OA
ENDBRANCH   7  12
ENDBRANCH   3   5
BRANCH   1  19
ATOM     19  C   UNL     1       1.981   7.467  21.004  0.00  0.00    +0.000 C 
BRANCH  19  28
ATOM     20  C   UNL     1       2.526   6.712  18.588  0.00  0.00    +0.000 A 
ATOM     21  O   UNL     1       2.472   5.567  17.854  0.00  0.00    +0.000 OA
ATOM     22  C   UNL     1       2.014   4.583  18.665  0.00  0.00    +0.000 A 
ATOM     23  C   UNL     1       1.803   3.263  18.277  0.00  0.00    +0.000 A 
ATOM     24  C   UNL     1       1.295   2.399  19.252  0.00  0.00    +0.000 A 
ATOM     25  C   UNL     1       1.023   2.856  20.544  0.00  0.00    +0.000 A 
ATOM     26  C   UNL     1       1.259   4.192  20.905  0.00  0.00    +0.000 A 
ATOM     27  C   UNL     1       1.771   5.083  19.939  0.00  0.00    +0.000 A 
ATOM     28  C   UNL     1       2.117   6.475  19.894  0.00  0.00    +0.000 A 
BRANCH  20  30
ATOM     29  C   UNL     1       4.221   7.649  17.026  0.00  0.00    +0.000 C 
ATOM     30  C   UNL     1       2.963   7.918  17.835  0.00  0.00    +0.000 C 
ENDBRANCH  20  30
ENDBRANCH  19  28
ENDBRANCH   1  19
TORSDOF 5
ENDMDL
MODEL 4
REMARK VINA RESULT:      -8.4      3.714      7.214
REMARK  Name = 
REMARK  7 active torsions:
REMARK  status: ('A' for Active; 'I' for Inactive)
REMARK    1  A    between atoms: C_1  and  C_2
REMARK    2  A    between atoms: C_2  and  C_3
REMARK    3  A    between atoms: C_11  and  C_12
REMARK    4  A    between atoms: C_12  and  C_13
REMARK    5  A    between atoms: N_15  and  C_16
REMARK    6  A    between atoms: C_18  and  N_19
REMARK    7  A    between atoms: C_28  and  C_29
REMARK                            x       y       z     vdW  Elec       q    Type
REMARK                         _______ _______ _______ _____ _____    ______ ____
ROOT
ATOM      1  C   UNL     1       0.713   8.277  20.907  0.00  0.00    +0.000 C 
ATOM      2  O   UNL     1      -0.355   7.861  21.349  0.00  0.00    +0.000 OA
ATOM      3  N   UNL     1       0.895   9.496  20.271  0.00  0.00    +0.000 N 
ATOM      4  H   UNL     1       1.573   9.463  19.518  0.00  0.00    +0.000 HD
ENDROOT
BRANCH   3   5
ATOM      5  C   UNL     1      -0.148  10.444  20.129  0.00  0.00    +0.000 A 
ATOM      6  C   UNL     1      -0.473  11.194  21.275  0.00  0.00    +0.000 A 
ATOM      7  C   UNL     1      -1.471  12.181  21.262  0.00  0.00    +0.000 A 
ATOM      8  C   UNL     1      -2.165  12.374  20.062  0.00  0.00    +0.000 A 
ATOM      9  C   UNL     1      -1.877  11.611  18.926  0.00  0.00    +0.000 A 
ATOM     10  C   UNL     1      -0.881  10.625  18.945  0.00  0.00    +0.000 A 
ATOM     11  C   UNL     1      -0.712   9.773  17.718  0.00  0.00    +0.000 C 
BRANCH   7  12
ATOM     12  N   UNL     1      -1.757  12.975  22.416  0.00  0.00    +0.000 N 
ATOM     13  C   UNL     1      -2.950  12.953  23.102  0.00  0.00    +0.000 C 
ATOM     14  O   UNL     1      -3.964  12.302  22.876  0.00  0.00    +0.000 OA
ATOM     15  C   UNL     1      -2.860  13.857  24.292  0.00  0.00    +0.000 C 
ATOM     16  C   UNL     1      -1.503  14.501  24.185  0.00  0.00    +0.000 C 
ATOM     17  C   UNL     1      -0.873  13.869  22.982  0.00  0.00    +0.000 C 
ATOM     18  O   UNL     1       0.242  14.203  22.599  0.00  0.00    +0.000 OA
ENDBRANCH   7  12
ENDBRANCH   3   5
BRANCH   1  19
ATOM     19  C   UNL     1       1.980   7.441  21.000  0.00  0.00    +0.000 C 
BRANCH  19  28
ATOM     20  C   UNL     1       2.573   6.699  18.592  0.00  0.00    +0.000 A 
ATOM     21  O   UNL     1       2.523   5.560  17.847  0.00  0.00    +0.000 OA
ATOM     22  C   UNL     1       2.036   4.575  18.640  0.00  0.00    +0.000 A 
ATOM     23  C   UNL     1       1.819   3.260  18.237  0.00  0.00    +0.000 A 
ATOM     24  C   UNL     1       1.279   2.395  19.193  0.00  0.00    +0.000 A 
ATOM     25  C   UNL     1       0.982   2.845  20.481  0.00  0.00    +0.000 A 
ATOM     26  C   UNL     1       1.224   4.176  20.858  0.00  0.00    +0.000 A 
ATOM     27  C   UNL     1       1.769   5.068  19.911  0.00  0.00    +0.000 A 
ATOM     28  C   UNL     1       2.131   6.456  19.886  0.00  0.00    +0.000 A 
BRANCH  20  30
ATOM     29  C   UNL     1       4.248   7.599  16.987  0.00  0.00    +0.000 C 
ATOM     30  C   UNL     1       3.041   7.905  17.858  0.00  0.00    +0.000 C 
ENDBRANCH  20  30
ENDBRANCH  19  28
ENDBRANCH   1  19
TORSDOF 5
ENDMDL
MODEL 5
REMARK VINA RESULT:      -8.3      3.433      6.598
REMARK  Name = 
REMARK  7 active torsions:
REMARK  status: ('A' for Active; 'I' for Inactive)
REMARK    1  A    between atoms: C_1  and  C_2
REMARK    2  A    between atoms: C_2  and  C_3
REMARK    3  A    between atoms: C_11  and  C_12
REMARK    4  A    between atoms: C_12  and  C_13
REMARK    5  A    between atoms: N_15  and  C_16
REMARK    6  A    between atoms: C_18  and  N_19
REMARK    7  A    between atoms: C_28  and  C_29
REMARK                            x       y       z     vdW  Elec       q    Type
REMARK                         _______ _______ _______ _____ _____    ______ ____
ROOT
ATOM      1  C   UNL     1       1.545   8.610  19.049  0.00  0.00    +0.000 C 
ATOM      2  O   UNL     1       1.450   8.517  17.827  0.00  0.00    +0.000 OA
ATOM      3  N   UNL     1       1.098   9.682  19.806  0.00  0.00    +0.000 N 
ATOM      4  H   UNL     1       1.694   9.896  20.599  0.00  0.00    +0.000 HD
ENDROOT
BRANCH   3   5
ATOM      5  C   UNL     1       0.399  10.776  19.240  0.00  0.00    +0.000 A 
ATOM      6  C   UNL     1      -1.002  10.658  19.175  0.00  0.00    +0.000 A 
ATOM      7  C   UNL     1      -1.814  11.680  18.658  0.00  0.00    +0.000 A 
ATOM      8  C   UNL     1      -1.170  12.824  18.170  0.00  0.00    +0.000 A 
ATOM      9  C   UNL     1       0.223  12.939  18.197  0.00  0.00    +0.000 A 
ATOM     10  C   UNL     1       1.030  11.915  18.712  0.00  0.00    +0.000 A 
ATOM     11  C   UNL     1       2.521  12.069  18.599  0.00  0.00    +0.000 C 
BRANCH   7  12
ATOM     12  N   UNL     1      -3.239  11.574  18.645  0.00  0.00    +0.000 N 
ATOM     13  C   UNL     1      -4.076  12.191  19.546  0.00  0.00    +0.000 C 
ATOM     14  O   UNL     1      -3.796  12.906  20.502  0.00  0.00    +0.000 OA
ATOM     15  C   UNL     1      -5.500  11.913  19.179  0.00  0.00    +0.000 C 
ATOM     16  C   UNL     1      -5.419  10.973  18.006  0.00  0.00    +0.000 C 
ATOM     17  C   UNL     1      -3.954  10.832  17.729  0.00  0.00    +0.000 C 
ATOM     18  O   UNL     1      -3.543  10.098  16.838  0.00  0.00    +0.000 OA
ENDBRANCH   7  12
ENDBRANCH   3   5
BRANCH   1  19
ATOM     19  C   UNL     1       2.217   7.520  19.869  0.00  0.00    +0.000 C 
BRANCH  19  28
ATOM     20  C   UNL     1       2.011   5.012  19.262  0.00  0.00    +0.000 A 
ATOM     21  O   UNL     1       2.581   4.137  18.388  0.00  0.00    +0.000 OA
ATOM     22  C   UNL     1       3.484   4.826  17.650  0.00  0.00    +0.000 A 
ATOM     23  C   UNL     1       4.288   4.276  16.655  0.00  0.00    +0.000 A 
ATOM     24  C   UNL     1       5.184   5.145  16.024  0.00  0.00    +0.000 A 
ATOM     25  C   UNL     1       5.251   6.492  16.386  0.00  0.00    +0.000 A 
ATOM     26  C   UNL     1       4.416   7.017  17.387  0.00  0.00    +0.000 A 
ATOM     27  C   UNL     1       3.504   6.160  18.037  0.00  0.00    +0.000 A 
ATOM     28  C   UNL     1       2.532   6.287  19.085  0.00  0.00    +0.000 A 
BRANCH  20  30
ATOM     29  C   UNL     1       1.681   3.440  21.162  0.00  0.00    +0.000 C 
ATOM     30  C   UNL     1       1.022   4.410  20.195  0.00  0.00    +0.000 C 
ENDBRANCH  20  30
ENDBRANCH  19  28
ENDBRANCH   1  19
TORSDOF 5
ENDMDL
MODEL 6
REMARK VINA RESULT:      -8.3      3.426      6.453
REMARK  Name = 
REMARK  7 active torsions:
REMARK  status: ('A' for Active; 'I' for Inactive)
REMARK    1  A    between atoms: C_1  and  C_2
REMARK    2  A    between atoms: C_2  and  C_3
REMARK    3  A    between atoms: C_11  and  C_12
REMARK    4  A    between atoms: C_12  and  C_13
REMARK    5  A    between atoms: N_15  and  C_16
REMARK    6  A    between atoms: C_18  and  N_19
REMARK    7  A    between atoms: C_28  and  C_29
REMARK                            x       y       z     vdW  Elec       q    Type
REMARK                         _______ _______ _______ _____ _____    ______ ____
ROOT
ATOM      1  C   UNL     1       1.578   8.585  19.034  0.00  0.00    +0.000 C 
ATOM      2  O   UNL     1       1.527   8.517  17.808  0.00  0.00    +0.000 OA
ATOM      3  N   UNL     1       1.092   9.635  19.798  0.00  0.00    +0.000 N 
ATOM      4  H   UNL     1       1.657   9.838  20.615  0.00  0.00    +0.000 HD
ENDROOT
BRANCH   3   5
ATOM      5  C   UNL     1       0.400  10.733  19.230  0.00  0.00    +0.000 A 
ATOM      6  C   UNL     1      -1.003  10.627  19.174  0.00  0.00    +0.000 A 
ATOM      7  C   UNL     1      -1.808  11.655  18.656  0.00  0.00    +0.000 A 
ATOM      8  C   UNL     1      -1.156  12.791  18.160  0.00  0.00    +0.000 A 
ATOM      9  C   UNL     1       0.238  12.893  18.178  0.00  0.00    +0.000 A 
ATOM     10  C   UNL     1       1.038  11.863  18.693  0.00  0.00    +0.000 A 
ATOM     11  C   UNL     1       2.530  12.003  18.571  0.00  0.00    +0.000 C 
BRANCH   7  12
ATOM     12  N   UNL     1      -3.234  11.562  18.652  0.00  0.00    +0.000 N 
ATOM     13  C   UNL     1      -3.965  10.814  17.757  0.00  0.00    +0.000 C 
ATOM     14  O   UNL     1      -3.576  10.125  16.821  0.00  0.00    +0.000 OA
ATOM     15  C   UNL     1      -5.419  10.900  18.103  0.00  0.00    +0.000 C 
ATOM     16  C   UNL     1      -5.485  11.868  19.254  0.00  0.00    +0.000 C 
ATOM     17  C   UNL     1      -4.057  12.217  19.543  0.00  0.00    +0.000 C 
ATOM     18  O   UNL     1      -3.764  13.020  20.420  0.00  0.00    +0.000 OA
ENDBRANCH   7  12
ENDBRANCH   3   5
BRANCH   1  19
ATOM     19  C   UNL     1       2.234   7.485  19.854  0.00  0.00    +0.000 C 
BRANCH  19  28
ATOM     20  C   UNL     1       2.003   4.982  19.234  0.00  0.00    +0.000 A 
ATOM     21  O   UNL     1       2.569   4.104  18.361  0.00  0.00    +0.000 OA
ATOM     22  C   UNL     1       3.487   4.786  17.634  0.00  0.00    +0.000 A 
ATOM     23  C   UNL     1       4.294   4.230  16.644  0.00  0.00    +0.000 A 
ATOM     24  C   UNL     1       5.205   5.090  16.025  0.00  0.00    +0.000 A 
ATOM     25  C   UNL     1       5.286   6.435  16.393  0.00  0.00    +0.000 A 
ATOM     26  C   UNL     1       4.449   6.966  17.388  0.00  0.00    +0.000 A 
ATOM     27  C   UNL     1       3.521   6.118  18.027  0.00  0.00    +0.000 A 
ATOM     28  C   UNL     1       2.541   6.252  19.067  0.00  0.00    +0.000 A 
BRANCH  20  30
ATOM     29  C   UNL     1       1.632   3.383  21.104  0.00  0.00    +0.000 C 
ATOM     30  C   UNL     1       0.998   4.388  20.156  0.00  0.00    +0.000 C 
ENDBRANCH  20  30
ENDBRANCH  19  28
ENDBRANCH   1  19
TORSDOF 5
ENDMDL
MODEL 7
REMARK VINA RESULT:      -8.3      3.134      6.510
REMARK  Name = 
REMARK  7 active torsions:
REMARK  status: ('A' for Active; 'I' for Inactive)
REMARK    1  A    between atoms: C_1  and  C_2
REMARK    2  A    between atoms: C_2  and  C_3
REMARK    3  A    between atoms: C_11  and  C_12
REMARK    4  A    between atoms: C_12  and  C_13
REMARK    5  A    between atoms: N_15  and  C_16
REMARK    6  A    between atoms: C_18  and  N_19
REMARK    7  A    between atoms: C_28  and  C_29
REMARK                            x       y       z     vdW  Elec       q    Type
REMARK                         _______ _______ _______ _____ _____    ______ ____
ROOT
ATOM      1  C   UNL     1       1.656   8.696  18.989  0.00  0.00    +0.000 C 
ATOM      2  O   UNL     1       1.942   8.630  20.182  0.00  0.00    +0.000 OA
ATOM      3  N   UNL     1       1.103   9.801  18.359  0.00  0.00    +0.000 N 
ATOM      4  H   UNL     1       0.440   9.562  17.630  0.00  0.00    +0.000 HD
ENDROOT
BRANCH   3   5
ATOM      5  C   UNL     1       0.876  11.026  19.032  0.00  0.00    +0.000 A 
ATOM      6  C   UNL     1      -0.235  11.069  19.896  0.00  0.00    +0.000 A 
ATOM      7  C   UNL     1      -0.558  12.215  20.639  0.00  0.00    +0.000 A 
ATOM      8  C   UNL     1       0.254  13.343  20.463  0.00  0.00    +0.000 A 
ATOM      9  C   UNL     1       1.339  13.325  19.581  0.00  0.00    +0.000 A 
ATOM     10  C   UNL     1       1.656  12.178  18.839  0.00  0.00    +0.000 A 
ATOM     11  C   UNL     1       2.766  12.278  17.830  0.00  0.00    +0.000 C 
BRANCH   7  12
ATOM     12  N   UNL     1      -1.655  12.233  21.556  0.00  0.00    +0.000 N 
ATOM     13  C   UNL     1      -1.610  11.731  22.837  0.00  0.00    +0.000 C 
ATOM     14  O   UNL     1      -0.684  11.183  23.424  0.00  0.00    +0.000 OA
ATOM     15  C   UNL     1      -2.916  11.989  23.521  0.00  0.00    +0.000 C 
ATOM     16  C   UNL     1      -3.786  12.618  22.466  0.00  0.00    +0.000 C 
ATOM     17  C   UNL     1      -2.900  12.750  21.266  0.00  0.00    +0.000 C 
ATOM     18  O   UNL     1      -3.322  13.206  20.211  0.00  0.00    +0.000 OA
ENDBRANCH   7  12
ENDBRANCH   3   5
BRANCH   1  19
ATOM     19  C   UNL     1       1.867   7.508  18.064  0.00  0.00    +0.000 C 
BRANCH  19  28
ATOM     20  C   UNL     1       2.682   5.597  19.610  0.00  0.00    +0.000 A 
ATOM     21  O   UNL     1       3.830   4.898  19.828  0.00  0.00    +0.000 OA
ATOM     22  C   UNL     1       4.761   5.361  18.960  0.00  0.00    +0.000 A 
ATOM     23  C   UNL     1       6.075   4.907  18.884  0.00  0.00    +0.000 A 
ATOM     24  C   UNL     1       6.898   5.532  17.941  0.00  0.00    +0.000 A 
ATOM     25  C   UNL     1       6.407   6.555  17.127  0.00  0.00    +0.000 A 
ATOM     26  C   UNL     1       5.072   6.980  17.223  0.00  0.00    +0.000 A 
ATOM     27  C   UNL     1       4.223   6.365  18.166  0.00  0.00    +0.000 A 
ATOM     28  C   UNL     1       2.857   6.514  18.581  0.00  0.00    +0.000 A 
BRANCH  20  30
ATOM     29  C   UNL     1       1.269   3.760  20.514  0.00  0.00    +0.000 C 
ATOM     30  C   UNL     1       1.557   5.252  20.519  0.00  0.00    +0.000 C 
ENDBRANCH  20  30
ENDBRANCH  19  28
ENDBRANCH   1  19
TORSDOF 5
ENDMDL
MODEL 8
REMARK VINA RESULT:      -8.3      2.945      6.756
REMARK  Name = 
REMARK  7 active torsions:
REMARK  status: ('A' for Active; 'I' for Inactive)
REMARK    1  A    between atoms: C_1  and  C_2
REMARK    2  A    between atoms: C_2  and  C_3
REMARK    3  A    between atoms: C_11  and  C_12
REMARK    4  A    between atoms: C_12  and  C_13
REMARK    5  A    between atoms: N_15  and  C_16
REMARK    6  A    between atoms: C_18  and  N_19
REMARK    7  A    between atoms: C_28  and  C_29
REMARK                            x       y       z     vdW  Elec       q    Type
REMARK                         _______ _______ _______ _____ _____    ______ ____
ROOT
ATOM      1  C   UNL     1       1.643   8.569  18.853  0.00  0.00    +0.000 C 
ATOM      2  O   UNL     1       1.927   8.458  20.043  0.00  0.00    +0.000 OA
ATOM      3  N   UNL     1       1.130   9.711  18.256  0.00  0.00    +0.000 N 
ATOM      4  H   UNL     1       0.457   9.518  17.522  0.00  0.00    +0.000 HD
ENDROOT
BRANCH   3   5
ATOM      5  C   UNL     1       0.947  10.924  18.964  0.00  0.00    +0.000 A 
ATOM      6  C   UNL     1      -0.153  10.978  19.840  0.00  0.00    +0.000 A 
ATOM      7  C   UNL     1      -0.432  12.113  20.618  0.00  0.00    +0.000 A 
ATOM      8  C   UNL     1       0.413  13.219  20.465  0.00  0.00    +0.000 A 
ATOM      9  C   UNL     1       1.489  13.191  19.571  0.00  0.00    +0.000 A 
ATOM     10  C   UNL     1       1.762  12.056  18.795  0.00  0.00    +0.000 A 
ATOM     11  C   UNL     1       2.865  12.148  17.778  0.00  0.00    +0.000 C 
BRANCH   7  12
ATOM     12  N   UNL     1      -1.520  12.140  21.545  0.00  0.00    +0.000 N 
ATOM     13  C   UNL     1      -1.478  11.607  22.814  0.00  0.00    +0.000 C 
ATOM     14  O   UNL     1      -0.563  11.018  23.378  0.00  0.00    +0.000 OA
ATOM     15  C   UNL     1      -2.770  11.886  23.517  0.00  0.00    +0.000 C 
ATOM     16  C   UNL     1      -3.631  12.564  22.486  0.00  0.00    +0.000 C 
ATOM     17  C   UNL     1      -2.752  12.699  21.280  0.00  0.00    +0.000 C 
ATOM     18  O   UNL     1      -3.171  13.192  20.240  0.00  0.00    +0.000 OA
ENDBRANCH   7  12
ENDBRANCH   3   5
BRANCH   1  19
ATOM     19  C   UNL     1       1.810   7.401  17.894  0.00  0.00    +0.000 C 
BRANCH  19  28
ATOM     20  C   UNL     1       4.050   6.119  18.092  0.00  0.00    +0.000 A 
ATOM     21  O   UNL     1       4.522   5.006  18.719  0.00  0.00    +0.000 OA
ATOM     22  C   UNL     1       3.499   4.474  19.431  0.00  0.00    +0.000 A 
ATOM     23  C   UNL     1       3.579   3.315  20.198  0.00  0.00    +0.000 A 
ATOM     24  C   UNL     1       2.405   2.906  20.836  0.00  0.00    +0.000 A 
ATOM     25  C   UNL     1       1.223   3.637  20.701  0.00  0.00    +0.000 A 
ATOM     26  C   UNL     1       1.180   4.809  19.928  0.00  0.00    +0.000 A 
ATOM     27  C   UNL     1       2.352   5.242  19.275  0.00  0.00    +0.000 A 
ATOM     28  C   UNL     1       2.714   6.327  18.408  0.00  0.00    +0.000 A 
BRANCH  20  30
ATOM     29  C   UNL     1       5.266   6.045  15.923  0.00  0.00    +0.000 C 
ATOM     30  C   UNL     1       5.035   6.809  17.217  0.00  0.00    +0.000 C 
ENDBRANCH  20  30
ENDBRANCH  19  28
ENDBRANCH   1  19
TORSDOF 5
ENDMDL
MODEL 9
REMARK VINA RESULT:      -8.2      3.479      6.740
REMARK  Name = 
REMARK  7 active torsions:
REMARK  status: ('A' for Active; 'I' for Inactive)
REMARK    1  A    between atoms: C_1  and  C_2
REMARK    2  A    between atoms: C_2  and  C_3
REMARK    3  A    between atoms: C_11  and  C_12
REMARK    4  A    between atoms: C_12  and  C_13
REMARK    5  A    between atoms: N_15  and  C_16
REMARK    6  A    between atoms: C_18  and  N_19
REMARK    7  A    between atoms: C_28  and  C_29
REMARK                            x       y       z     vdW  Elec       q    Type
REMARK                         _______ _______ _______ _____ _____    ______ ____
ROOT
ATOM      1  C   UNL     1       1.591   8.608  18.978  0.00  0.00    +0.000 C 
ATOM      2  O   UNL     1       1.465   8.518  17.759  0.00  0.00    +0.000 OA
ATOM      3  N   UNL     1       1.162   9.679  19.748  0.00  0.00    +0.000 N 
ATOM      4  H   UNL     1       1.778   9.892  20.526  0.00  0.00    +0.000 HD
ENDROOT
BRANCH   3   5
ATOM      5  C   UNL     1       0.448  10.773  19.202  0.00  0.00    +0.000 A 
ATOM      6  C   UNL     1      -0.953  10.647  19.156  0.00  0.00    +0.000 A 
ATOM      7  C   UNL     1      -1.778  11.668  18.659  0.00  0.00    +0.000 A 
ATOM      8  C   UNL     1      -1.149  12.821  18.172  0.00  0.00    +0.000 A 
ATOM      9  C   UNL     1       0.244  12.944  18.179  0.00  0.00    +0.000 A 
ATOM     10  C   UNL     1       1.064  11.920  18.674  0.00  0.00    +0.000 A 
ATOM     11  C   UNL     1       2.552  12.084  18.540  0.00  0.00    +0.000 C 
BRANCH   7  12
ATOM     12  N   UNL     1      -3.203  11.554  18.666  0.00  0.00    +0.000 N 
ATOM     13  C   UNL     1      -3.928  10.777  17.791  0.00  0.00    +0.000 C 
ATOM     14  O   UNL     1      -3.534  10.074  16.867  0.00  0.00    +0.000 OA
ATOM     15  C   UNL     1      -5.381  10.847  18.145  0.00  0.00    +0.000 C 
ATOM     16  C   UNL     1      -5.455  11.837  19.276  0.00  0.00    +0.000 C 
ATOM     17  C   UNL     1      -4.030  12.215  19.549  0.00  0.00    +0.000 C 
ATOM     18  O   UNL     1      -3.745  13.040  20.408  0.00  0.00    +0.000 OA
ENDBRANCH   7  12
ENDBRANCH   3   5
BRANCH   1  19
ATOM     19  C   UNL     1       2.283   7.518  19.779  0.00  0.00    +0.000 C 
BRANCH  19  28
ATOM     20  C   UNL     1       3.447   6.182  17.891  0.00  0.00    +0.000 A 
ATOM     21  O   UNL     1       3.429   4.914  17.395  0.00  0.00    +0.000 OA
ATOM     22  C   UNL     1       2.556   4.196  18.143  0.00  0.00    +0.000 A 
ATOM     23  C   UNL     1       2.245   2.854  17.937  0.00  0.00    +0.000 A 
ATOM     24  C   UNL     1       1.294   2.295  18.795  0.00  0.00    +0.000 A 
ATOM     25  C   UNL     1       0.700   3.059  19.802  0.00  0.00    +0.000 A 
ATOM     26  C   UNL     1       1.045   4.407  19.990  0.00  0.00    +0.000 A 
ATOM     27  C   UNL     1       2.002   4.994  19.136  0.00  0.00    +0.000 A 
ATOM     28  C   UNL     1       2.593   6.292  18.981  0.00  0.00    +0.000 A 
BRANCH  20  30
ATOM     29  C   UNL     1       5.275   6.403  16.218  0.00  0.00    +0.000 C 
ATOM     30  C   UNL     1       4.322   7.130  17.152  0.00  0.00    +0.000 C 
ENDBRANCH  20  30
ENDBRANCH  19  28
ENDBRANCH   1  19
TORSDOF 5
ENDMDL
