MODEL 1
REMARK VINA RESULT:      -8.0      0.000      0.000
REMARK  Name = 
REMARK  5 active torsions:
REMARK  status: ('A' for Active; 'I' for Inactive)
REMARK    1  A    between atoms: C_1  and  C_2
REMARK    2  A    between atoms: C_2  and  C_3
REMARK    3  A    between atoms: C_2  and  N_16
REMARK    4  A    between atoms: N_5  and  C_6
REMARK    5  A    between atoms: C_6  and  C_7
REMARK                            x       y       z     vdW  Elec       q    Type
REMARK                         _______ _______ _______ _____ _____    ______ ____
ROOT
ATOM      1  C   UNL     1      -0.161   9.993  21.580  0.00  0.00    +0.000 C 
ATOM      2  C   UNL     1       0.876   9.775  20.506  0.00  0.00    +0.000 C 
ENDROOT
BRANCH   2   3
ATOM      3  N   UNL     1       0.560  10.127  19.137  0.00  0.00    +0.000 N 
ATOM      4  C   UNL     1      -0.629  10.606  18.625  0.00  0.00    +0.000 C 
ATOM      5  O   UNL     1      -1.695  10.029  18.585  0.00  0.00    +0.000 OA
ATOM      6  N   UNL     1      -0.373  11.901  18.039  0.00  0.00    +0.000 N 
ATOM      7  C   UNL     1       0.748  12.430  18.777  0.00  0.00    +0.000 C 
ATOM      8  C   UNL     1       1.859  13.414  18.341  0.00  0.00    +0.000 C 
ATOM      9  C   UNL     1       2.831  13.583  19.569  0.00  0.00    +0.000 C 
ATOM     10  C   UNL     1       2.170  14.361  20.714  0.00  0.00    +0.000 C 
ATOM     11  C   UNL     1       0.786  13.846  20.934  0.00  0.00    +0.000 A 
ATOM     12  S   UNL     1      -0.157  14.426  22.229  0.00  0.00    +0.000 S 
ATOM     13  C   UNL     1      -1.539  13.608  21.663  0.00  0.00    +0.000 A 
ATOM     14  C   UNL     1      -1.267  12.878  20.528  0.00  0.00    +0.000 A 
ATOM     15  C   UNL     1       0.113  12.976  20.090  0.00  0.00    +0.000 A 
ATOM     16  C   UNL     1       1.425  11.070  18.696  0.00  0.00    +0.000 C 
ATOM     17  O   UNL     1       2.373  10.762  17.976  0.00  0.00    +0.000 OA
ATOM     18  H   UNL     1      -0.285  11.859  17.028  0.00  0.00    +0.000 HD
ENDBRANCH   2   3
BRANCH   2  19
ATOM     19  C   UNL     1       1.380   8.310  20.529  0.00  0.00    +0.000 C 
ATOM     20  O   UNL     1       1.213   7.605  21.523  0.00  0.00    +0.000 OA
ATOM     21  N   UNL     1       1.929   7.830  19.362  0.00  0.00    +0.000 N 
ATOM     22  H   UNL     1       2.023   8.438  18.556  0.00  0.00    +0.000 HD
BRANCH  21  23
ATOM     23  C   UNL     1       2.322   6.442  19.243  0.00  0.00    +0.000 C 
BRANCH  23  24
ATOM     24  C   UNL     1       3.660   6.268  18.571  0.00  0.00    +0.000 A 
ATOM     25  C   UNL     1       4.024   7.090  17.476  0.00  0.00    +0.000 A 
ATOM     26  C   UNL     1       5.273   6.958  16.857  0.00  0.00    +0.000 A 
ATOM     27  C   UNL     1       6.134   5.999  17.344  0.00  0.00    +0.000 A 
ATOM     28  C   UNL     1       5.796   5.204  18.411  0.00  0.00    +0.000 A 
ATOM     29  C   UNL     1       4.576   5.316  19.048  0.00  0.00    +0.000 A 
ATOM     30  O   UNL     1       6.784   4.327  18.739  0.00  0.00    +0.000 OA
ATOM     31  C   UNL     1       7.761   4.628  17.721  0.00  0.00    +0.000 C 
ATOM     32  O   UNL     1       7.374   5.721  16.861  0.00  0.00    +0.000 OA
ENDBRANCH  23  24
ENDBRANCH  21  23
ENDBRANCH   2  19
TORSDOF 4
ENDMDL
MODEL 2
REMARK VINA RESULT:      -7.8      2.653      3.276
REMARK  Name = 
REMARK  5 active torsions:
REMARK  status: ('A' for Active; 'I' for Inactive)
REMARK    1  A    between atoms: C_1  and  C_2
REMARK    2  A    between atoms: C_2  and  C_3
REMARK    3  A    between atoms: C_2  and  N_16
REMARK    4  A    between atoms: N_5  and  C_6
REMARK    5  A    between atoms: C_6  and  C_7
REMARK                            x       y       z     vdW  Elec       q    Type
REMARK                         _______ _______ _______ _____ _____    ______ ____
ROOT
ATOM      1  C   UNL     1      -0.423   9.903  20.125  0.00  0.00    +0.000 C 
ATOM      2  C   UNL     1       0.603  10.598  19.263  0.00  0.00    +0.000 C 
ENDROOT
BRANCH   2   3
ATOM      3  N   UNL     1       0.162  11.579  18.292  0.00  0.00    +0.000 N 
ATOM      4  C   UNL     1      -1.124  12.000  18.019  0.00  0.00    +0.000 C 
ATOM      5  O   UNL     1      -2.033  11.336  17.568  0.00  0.00    +0.000 OA
ATOM      6  N   UNL     1      -1.191  13.421  18.271  0.00  0.00    +0.000 N 
ATOM      7  C   UNL     1      -0.190  13.668  19.281  0.00  0.00    +0.000 C 
ATOM      8  C   UNL     1       0.653  14.934  19.566  0.00  0.00    +0.000 C 
ATOM      9  C   UNL     1       1.608  14.589  20.769  0.00  0.00    +0.000 C 
ATOM     10  C   UNL     1       0.835  14.437  22.084  0.00  0.00    +0.000 C 
ATOM     11  C   UNL     1      -0.387  13.612  21.852  0.00  0.00    +0.000 A 
ATOM     12  S   UNL     1      -1.385  13.158  23.157  0.00  0.00    +0.000 S 
ATOM     13  C   UNL     1      -2.568  12.528  22.107  0.00  0.00    +0.000 A 
ATOM     14  C   UNL     1      -2.183  12.631  20.789  0.00  0.00    +0.000 A 
ATOM     15  C   UNL     1      -0.879  13.242  20.610  0.00  0.00    +0.000 A 
ATOM     16  C   UNL     1       0.773  12.763  18.528  0.00  0.00    +0.000 C 
ATOM     17  O   UNL     1       1.737  13.114  17.850  0.00  0.00    +0.000 OA
ATOM     18  H   UNL     1      -1.135  13.969  17.419  0.00  0.00    +0.000 HD
ENDBRANCH   2   3
BRANCH   2  19
ATOM     19  C   UNL     1       1.493   9.560  18.537  0.00  0.00    +0.000 C 
ATOM     20  O   UNL     1       1.934   9.789  17.411  0.00  0.00    +0.000 OA
ATOM     21  N   UNL     1       1.829   8.431  19.249  0.00  0.00    +0.000 N 
ATOM     22  H   UNL     1       1.466   8.294  20.185  0.00  0.00    +0.000 HD
BRANCH  21  23
ATOM     23  C   UNL     1       2.750   7.457  18.704  0.00  0.00    +0.000 C 
BRANCH  23  24
ATOM     24  C   UNL     1       2.390   6.040  19.074  0.00  0.00    +0.000 A 
ATOM     25  C   UNL     1       2.018   5.111  18.072  0.00  0.00    +0.000 A 
ATOM     26  C   UNL     1       1.706   3.784  18.397  0.00  0.00    +0.000 A 
ATOM     27  C   UNL     1       1.767   3.416  19.723  0.00  0.00    +0.000 A 
ATOM     28  C   UNL     1       2.136   4.306  20.702  0.00  0.00    +0.000 A 
ATOM     29  C   UNL     1       2.458   5.616  20.413  0.00  0.00    +0.000 A 
ATOM     30  O   UNL     1       2.138   3.743  21.941  0.00  0.00    +0.000 OA
ATOM     31  C   UNL     1       1.677   2.411  21.634  0.00  0.00    +0.000 C 
ATOM     32  O   UNL     1       1.485   2.182  20.221  0.00  0.00    +0.000 OA
ENDBRANCH  23  24
ENDBRANCH  21  23
ENDBRANCH   2  19
TORSDOF 4
ENDMDL
MODEL 3
REMARK VINA RESULT:      -7.7      1.527      1.730
REMARK  Name = 
REMARK  5 active torsions:
REMARK  status: ('A' for Active; 'I' for Inactive)
REMARK    1  A    between atoms: C_1  and  C_2
REMARK    2  A    between atoms: C_2  and  C_3
REMARK    3  A    between atoms: C_2  and  N_16
REMARK    4  A    between atoms: N_5  and  C_6
REMARK    5  A    between atoms: C_6  and  C_7
REMARK                            x       y       z     vdW  Elec       q    Type
REMARK                         _______ _______ _______ _____ _____    ______ ____
ROOT
ATOM      1  C   UNL     1      -0.939  11.321  21.952  0.00  0.00    +0.000 C 
ATOM      2  C   UNL     1       0.249  11.091  21.050  0.00  0.00    +0.000 C 
ENDROOT
BRANCH   2   3
ATOM      3  N   UNL     1       0.058  11.107  19.613  0.00  0.00    +0.000 N 
ATOM      4  C   UNL     1      -0.982  11.654  18.891  0.00  0.00    +0.000 C 
ATOM      5  O   UNL     1      -2.147  11.316  18.910  0.00  0.00    +0.000 OA
ATOM      6  N   UNL     1      -0.434  12.658  18.008  0.00  0.00    +0.000 N 
ATOM      7  C   UNL     1       0.753  13.134  18.677  0.00  0.00    +0.000 C 
ATOM      8  C   UNL     1       2.065  13.714  18.097  0.00  0.00    +0.000 C 
ATOM      9  C   UNL     1       3.012  14.017  19.318  0.00  0.00    +0.000 C 
ATOM     10  C   UNL     1       2.503  15.197  20.154  0.00  0.00    +0.000 C 
ATOM     11  C   UNL     1       1.034  15.053  20.378  0.00  0.00    +0.000 A 
ATOM     12  S   UNL     1       0.201  16.146  21.386  0.00  0.00    +0.000 S 
ATOM     13  C   UNL     1      -1.308  15.498  20.936  0.00  0.00    +0.000 A 
ATOM     14  C   UNL     1      -1.168  14.444  20.062  0.00  0.00    +0.000 A 
ATOM     15  C   UNL     1       0.213  14.138  19.738  0.00  0.00    +0.000 A 
ATOM     16  C   UNL     1       1.120  11.697  19.018  0.00  0.00    +0.000 C 
ATOM     17  O   UNL     1       1.999  11.017  18.491  0.00  0.00    +0.000 OA
ATOM     18  H   UNL     1      -0.326  12.321  17.057  0.00  0.00    +0.000 HD
ENDBRANCH   2   3
BRANCH   2  19
ATOM     19  C   UNL     1       0.971   9.775  21.430  0.00  0.00    +0.000 C 
ATOM     20  O   UNL     1       1.494   9.644  22.537  0.00  0.00    +0.000 OA
ATOM     21  N   UNL     1       0.913   8.752  20.512  0.00  0.00    +0.000 N 
ATOM     22  H   UNL     1       0.448   8.894  19.622  0.00  0.00    +0.000 HD
BRANCH  21  23
ATOM     23  C   UNL     1       1.455   7.446  20.820  0.00  0.00    +0.000 C 
BRANCH  23  24
ATOM     24  C   UNL     1       2.311   6.891  19.710  0.00  0.00    +0.000 A 
ATOM     25  C   UNL     1       2.578   7.667  18.555  0.00  0.00    +0.000 A 
ATOM     26  C   UNL     1       3.393   7.175  17.527  0.00  0.00    +0.000 A 
ATOM     27  C   UNL     1       3.920   5.911  17.674  0.00  0.00    +0.000 A 
ATOM     28  C   UNL     1       3.676   5.153  18.793  0.00  0.00    +0.000 A 
ATOM     29  C   UNL     1       2.885   5.613  19.827  0.00  0.00    +0.000 A 
ATOM     30  O   UNL     1       4.291   3.941  18.744  0.00  0.00    +0.000 OA
ATOM     31  C   UNL     1       4.908   4.003  17.441  0.00  0.00    +0.000 C 
ATOM     32  O   UNL     1       4.715   5.269  16.776  0.00  0.00    +0.000 OA
ENDBRANCH  23  24
ENDBRANCH  21  23
ENDBRANCH   2  19
TORSDOF 4
ENDMDL
MODEL 4
REMARK VINA RESULT:      -7.7      2.645      3.329
REMARK  Name = 
REMARK  5 active torsions:
REMARK  status: ('A' for Active; 'I' for Inactive)
REMARK    1  A    between atoms: C_1  and  C_2
REMARK    2  A    between atoms: C_2  and  C_3
REMARK    3  A    between atoms: C_2  and  N_16
REMARK    4  A    between atoms: N_5  and  C_6
REMARK    5  A    between atoms: C_6  and  C_7
REMARK                            x       y       z     vdW  Elec       q    Type
REMARK                         _______ _______ _______ _____ _____    ______ ____
ROOT
ATOM      1  C   UNL     1      -0.469  10.064  20.166  0.00  0.00    +0.000 C 
ATOM      2  C   UNL     1       0.586  10.741  19.325  0.00  0.00    +0.000 C 
ENDROOT
BRANCH   2   3
ATOM      3  N   UNL     1       0.181  11.731  18.348  0.00  0.00    +0.000 N 
ATOM      4  C   UNL     1      -1.089  12.186  18.060  0.00  0.00    +0.000 C 
ATOM      5  O   UNL     1      -2.011  11.546  17.599  0.00  0.00    +0.000 OA
ATOM      6  N   UNL     1      -1.122  13.608  18.309  0.00  0.00    +0.000 N 
ATOM      7  C   UNL     1      -0.126  13.831  19.329  0.00  0.00    +0.000 C 
ATOM      8  C   UNL     1       0.747  15.074  19.622  0.00  0.00    +0.000 C 
ATOM      9  C   UNL     1       1.679  14.706  20.837  0.00  0.00    +0.000 C 
ATOM     10  C   UNL     1       0.887  14.577  22.143  0.00  0.00    +0.000 C 
ATOM     11  C   UNL     1      -0.354  13.784  21.899  0.00  0.00    +0.000 A 
ATOM     12  S   UNL     1      -1.378  13.359  23.193  0.00  0.00    +0.000 S 
ATOM     13  C   UNL     1      -2.565  12.758  22.129  0.00  0.00    +0.000 A 
ATOM     14  C   UNL     1      -2.163  12.849  20.816  0.00  0.00    +0.000 A 
ATOM     15  C   UNL     1      -0.842  13.425  20.652  0.00  0.00    +0.000 A 
ATOM     16  C   UNL     1       0.821  12.899  18.589  0.00  0.00    +0.000 C 
ATOM     17  O   UNL     1       1.802  13.224  17.922  0.00  0.00    +0.000 OA
ATOM     18  H   UNL     1      -1.041  14.154  17.456  0.00  0.00    +0.000 HD
ENDBRANCH   2   3
BRANCH   2  19
ATOM     19  C   UNL     1       1.470   9.687  18.614  0.00  0.00    +0.000 C 
ATOM     20  O   UNL     1       1.932   9.908  17.495  0.00  0.00    +0.000 OA
ATOM     21  N   UNL     1       1.776   8.553  19.332  0.00  0.00    +0.000 N 
ATOM     22  H   UNL     1       1.396   8.423  20.263  0.00  0.00    +0.000 HD
BRANCH  21  23
ATOM     23  C   UNL     1       2.688   7.563  18.803  0.00  0.00    +0.000 C 
BRANCH  23  24
ATOM     24  C   UNL     1       2.288   6.152  19.151  0.00  0.00    +0.000 A 
ATOM     25  C   UNL     1       1.910   5.821  20.475  0.00  0.00    +0.000 A 
ATOM     26  C   UNL     1       1.511   4.521  20.809  0.00  0.00    +0.000 A 
ATOM     27  C   UNL     1       1.504   3.574  19.809  0.00  0.00    +0.000 A 
ATOM     28  C   UNL     1       1.859   3.885  18.519  0.00  0.00    +0.000 A 
ATOM     29  C   UNL     1       2.248   5.159  18.157  0.00  0.00    +0.000 A 
ATOM     30  O   UNL     1       1.780   2.813  17.686  0.00  0.00    +0.000 OA
ATOM     31  C   UNL     1       1.384   1.779  18.611  0.00  0.00    +0.000 C 
ATOM     32  O   UNL     1       1.162   2.265  19.952  0.00  0.00    +0.000 OA
ENDBRANCH  23  24
ENDBRANCH  21  23
ENDBRANCH   2  19
TORSDOF 4
ENDMDL
MODEL 5
REMARK VINA RESULT:      -7.4      2.069      2.865
REMARK  Name = 
REMARK  5 active torsions:
REMARK  status: ('A' for Active; 'I' for Inactive)
REMARK    1  A    between atoms: C_1  and  C_2
REMARK    2  A    between atoms: C_2  and  C_3
REMARK    3  A    between atoms: C_2  and  N_16
REMARK    4  A    between atoms: N_5  and  C_6
REMARK    5  A    between atoms: C_6  and  C_7
REMARK                            x       y       z     vdW  Elec       q    Type
REMARK                         _______ _______ _______ _____ _____    ______ ____
ROOT
ATOM      1  C   UNL     1      -0.330   9.857  20.047  0.00  0.00    +0.000 C 
ATOM      2  C   UNL     1       0.662  10.639  19.223  0.00  0.00    +0.000 C 
ENDROOT
BRANCH   2   3
ATOM      3  N   UNL     1       0.175  11.626  18.280  0.00  0.00    +0.000 N 
ATOM      4  C   UNL     1      -1.128  12.004  18.028  0.00  0.00    +0.000 C 
ATOM      5  O   UNL     1      -2.015  11.317  17.567  0.00  0.00    +0.000 OA
ATOM      6  N   UNL     1      -1.247  13.414  18.315  0.00  0.00    +0.000 N 
ATOM      7  C   UNL     1      -0.248  13.675  19.323  0.00  0.00    +0.000 C 
ATOM      8  C   UNL     1       0.548  14.965  19.633  0.00  0.00    +0.000 C 
ATOM      9  C   UNL     1       1.527  14.627  20.819  0.00  0.00    +0.000 C 
ATOM     10  C   UNL     1       0.771  14.414  22.136  0.00  0.00    +0.000 C 
ATOM     11  C   UNL     1      -0.420  13.548  21.893  0.00  0.00    +0.000 A 
ATOM     12  S   UNL     1      -1.388  13.024  23.195  0.00  0.00    +0.000 S 
ATOM     13  C   UNL     1      -2.555  12.374  22.138  0.00  0.00    +0.000 A 
ATOM     14  C   UNL     1      -2.186  12.525  20.820  0.00  0.00    +0.000 A 
ATOM     15  C   UNL     1      -0.909  13.190  20.647  0.00  0.00    +0.000 A 
ATOM     16  C   UNL     1       0.742  12.826  18.540  0.00  0.00    +0.000 C 
ATOM     17  O   UNL     1       1.686  13.232  17.863  0.00  0.00    +0.000 OA
ATOM     18  H   UNL     1      -1.220  13.985  17.476  0.00  0.00    +0.000 HD
ENDBRANCH   2   3
BRANCH   2  19
ATOM     19  C   UNL     1       1.619   9.680  18.472  0.00  0.00    +0.000 C 
ATOM     20  O   UNL     1       2.197  10.043  17.449  0.00  0.00    +0.000 OA
ATOM     21  N   UNL     1       1.848   8.456  19.059  0.00  0.00    +0.000 N 
ATOM     22  H   UNL     1       1.371   8.206  19.917  0.00  0.00    +0.000 HD
BRANCH  21  23
ATOM     23  C   UNL     1       2.814   7.534  18.500  0.00  0.00    +0.000 C 
BRANCH  23  24
ATOM     24  C   UNL     1       2.861   6.218  19.234  0.00  0.00    +0.000 A 
ATOM     25  C   UNL     1       1.851   5.884  20.169  0.00  0.00    +0.000 A 
ATOM     26  C   UNL     1       1.867   4.655  20.841  0.00  0.00    +0.000 A 
ATOM     27  C   UNL     1       2.900   3.786  20.567  0.00  0.00    +0.000 A 
ATOM     28  C   UNL     1       3.879   4.095  19.655  0.00  0.00    +0.000 A 
ATOM     29  C   UNL     1       3.886   5.294  18.971  0.00  0.00    +0.000 A 
ATOM     30  O   UNL     1       4.802   3.104  19.527  0.00  0.00    +0.000 OA
ATOM     31  C   UNL     1       4.318   2.156  20.502  0.00  0.00    +0.000 C 
ATOM     32  O   UNL     1       3.084   2.563  21.132  0.00  0.00    +0.000 OA
ENDBRANCH  23  24
ENDBRANCH  21  23
ENDBRANCH   2  19
TORSDOF 4
ENDMDL
MODEL 6
REMARK VINA RESULT:      -7.4      3.868      9.119
REMARK  Name = 
REMARK  5 active torsions:
REMARK  status: ('A' for Active; 'I' for Inactive)
REMARK    1  A    between atoms: C_1  and  C_2
REMARK    2  A    between atoms: C_2  and  C_3
REMARK    3  A    between atoms: C_2  and  N_16
REMARK    4  A    between atoms: N_5  and  C_6
REMARK    5  A    between atoms: C_6  and  C_7
REMARK                            x       y       z     vdW  Elec       q    Type
REMARK                         _______ _______ _______ _____ _____    ______ ____
ROOT
ATOM      1  C   UNL     1       5.234   5.637  18.755  0.00  0.00    +0.000 C 
ATOM      2  C   UNL     1       3.752   5.639  18.474  0.00  0.00    +0.000 C 
ENDROOT
BRANCH   2   3
ATOM      3  N   UNL     1       3.235   4.806  17.407  0.00  0.00    +0.000 N 
ATOM      4  C   UNL     1       3.794   3.672  16.854  0.00  0.00    +0.000 C 
ATOM      5  O   UNL     1       4.833   3.595  16.233  0.00  0.00    +0.000 OA
ATOM      6  N   UNL     1       2.873   2.577  17.051  0.00  0.00    +0.000 N 
ATOM      7  C   UNL     1       2.140   2.918  18.247  0.00  0.00    +0.000 C 
ATOM      8  C   UNL     1       0.700   2.551  18.678  0.00  0.00    +0.000 C 
ATOM      9  C   UNL     1       0.444   3.247  20.066  0.00  0.00    +0.000 C 
ATOM     10  C   UNL     1       1.269   2.603  21.187  0.00  0.00    +0.000 C 
ATOM     11  C   UNL     1       2.669   2.389  20.716  0.00  0.00    +0.000 A 
ATOM     12  S   UNL     1       3.862   1.807  21.785  0.00  0.00    +0.000 S 
ATOM     13  C   UNL     1       4.985   1.620  20.520  0.00  0.00    +0.000 A 
ATOM     14  C   UNL     1       4.465   2.032  19.314  0.00  0.00    +0.000 A 
ATOM     15  C   UNL     1       3.102   2.523  19.407  0.00  0.00    +0.000 A 
ATOM     16  C   UNL     1       2.006   4.346  17.741  0.00  0.00    +0.000 C 
ATOM     17  O   UNL     1       0.995   4.872  17.279  0.00  0.00    +0.000 OA
ATOM     18  H   UNL     1       2.331   2.371  16.218  0.00  0.00    +0.000 HD
ENDBRANCH   2   3
BRANCH   2  19
ATOM     19  C   UNL     1       3.245   7.086  18.251  0.00  0.00    +0.000 C 
ATOM     20  O   UNL     1       3.676   7.765  17.320  0.00  0.00    +0.000 OA
ATOM     21  N   UNL     1       2.238   7.520  19.082  0.00  0.00    +0.000 N 
ATOM     22  H   UNL     1       1.892   6.918  19.820  0.00  0.00    +0.000 HD
BRANCH  21  23
ATOM     23  C   UNL     1       1.616   8.811  18.881  0.00  0.00    +0.000 C 
BRANCH  23  24
ATOM     24  C   UNL     1       0.935   9.332  20.122  0.00  0.00    +0.000 A 
ATOM     25  C   UNL     1       1.159   8.712  21.376  0.00  0.00    +0.000 A 
ATOM     26  C   UNL     1       0.554   9.200  22.541  0.00  0.00    +0.000 A 
ATOM     27  C   UNL     1      -0.270  10.298  22.427  0.00  0.00    +0.000 A 
ATOM     28  C   UNL     1      -0.487  10.913  21.218  0.00  0.00    +0.000 A 
ATOM     29  C   UNL     1       0.101  10.462  20.053  0.00  0.00    +0.000 A 
ATOM     30  O   UNL     1      -1.326  11.979  21.321  0.00  0.00    +0.000 OA
ATOM     31  C   UNL     1      -1.653  11.931  22.726  0.00  0.00    +0.000 C 
ATOM     32  O   UNL     1      -0.949  10.895  23.443  0.00  0.00    +0.000 OA
ENDBRANCH  23  24
ENDBRANCH  21  23
ENDBRANCH   2  19
TORSDOF 4
ENDMDL
MODEL 7
REMARK VINA RESULT:      -7.3      2.562      3.028
REMARK  Name = 
REMARK  5 active torsions:
REMARK  status: ('A' for Active; 'I' for Inactive)
REMARK    1  A    between atoms: C_1  and  C_2
REMARK    2  A    between atoms: C_2  and  C_3
REMARK    3  A    between atoms: C_2  and  N_16
REMARK    4  A    between atoms: N_5  and  C_6
REMARK    5  A    between atoms: C_6  and  C_7
REMARK                            x       y       z     vdW  Elec       q    Type
REMARK                         _______ _______ _______ _____ _____    ______ ____
ROOT
ATOM      1  C   UNL     1      -1.140  10.724  21.908  0.00  0.00    +0.000 C 
ATOM      2  C   UNL     1       0.171  10.814  21.168  0.00  0.00    +0.000 C 
ENDROOT
BRANCH   2   3
ATOM      3  N   UNL     1       0.164  10.846  19.719  0.00  0.00    +0.000 N 
ATOM      4  C   UNL     1      -0.920  10.842  18.865  0.00  0.00    +0.000 C 
ATOM      5  O   UNL     1      -1.736   9.956  18.719  0.00  0.00    +0.000 OA
ATOM      6  N   UNL     1      -0.873  12.052  18.078  0.00  0.00    +0.000 N 
ATOM      7  C   UNL     1      -0.187  13.012  18.910  0.00  0.00    +0.000 C 
ATOM      8  C   UNL     1       0.692  14.225  18.524  0.00  0.00    +0.000 C 
ATOM      9  C   UNL     1       1.201  14.870  19.867  0.00  0.00    +0.000 C 
ATOM     10  C   UNL     1       0.064  15.553  20.636  0.00  0.00    +0.000 C 
ATOM     11  C   UNL     1      -1.133  14.661  20.654  0.00  0.00    +0.000 A 
ATOM     12  S   UNL     1      -2.519  15.090  21.548  0.00  0.00    +0.000 S 
ATOM     13  C   UNL     1      -3.414  13.802  20.886  0.00  0.00    +0.000 A 
ATOM     14  C   UNL     1      -2.651  13.041  20.029  0.00  0.00    +0.000 A 
ATOM     15  C   UNL     1      -1.284  13.510  19.897  0.00  0.00    +0.000 A 
ATOM     16  C   UNL     1       0.828  11.942  19.283  0.00  0.00    +0.000 C 
ATOM     17  O   UNL     1       1.985  11.851  18.877  0.00  0.00    +0.000 OA
ATOM     18  H   UNL     1      -0.499  11.896  17.147  0.00  0.00    +0.000 HD
ENDBRANCH   2   3
BRANCH   2  19
ATOM     19  C   UNL     1       1.130   9.687  21.625  0.00  0.00    +0.000 C 
ATOM     20  O   UNL     1       1.641   9.714  22.744  0.00  0.00    +0.000 OA
ATOM     21  N   UNL     1       1.296   8.630  20.759  0.00  0.00    +0.000 N 
ATOM     22  H   UNL     1       0.833   8.635  19.857  0.00  0.00    +0.000 HD
BRANCH  21  23
ATOM     23  C   UNL     1       2.077   7.474  21.141  0.00  0.00    +0.000 C 
BRANCH  23  24
ATOM     24  C   UNL     1       1.936   6.327  20.172  0.00  0.00    +0.000 A 
ATOM     25  C   UNL     1       2.370   6.465  18.831  0.00  0.00    +0.000 A 
ATOM     26  C   UNL     1       2.269   5.401  17.926  0.00  0.00    +0.000 A 
ATOM     27  C   UNL     1       1.730   4.218  18.382  0.00  0.00    +0.000 A 
ATOM     28  C   UNL     1       1.316   4.069  19.682  0.00  0.00    +0.000 A 
ATOM     29  C   UNL     1       1.410   5.096  20.600  0.00  0.00    +0.000 A 
ATOM     30  O   UNL     1       0.821   2.827  19.930  0.00  0.00    +0.000 OA
ATOM     31  C   UNL     1       0.923   2.228  18.621  0.00  0.00    +0.000 C 
ATOM     32  O   UNL     1       1.543   3.091  17.644  0.00  0.00    +0.000 OA
ENDBRANCH  23  24
ENDBRANCH  21  23
ENDBRANCH   2  19
TORSDOF 4
ENDMDL
MODEL 8
REMARK VINA RESULT:      -7.3      1.847      2.669
REMARK  Name = 
REMARK  5 active torsions:
REMARK  status: ('A' for Active; 'I' for Inactive)
REMARK    1  A    between atoms: C_1  and  C_2
REMARK    2  A    between atoms: C_2  and  C_3
REMARK    3  A    between atoms: C_2  and  N_16
REMARK    4  A    between atoms: N_5  and  C_6
REMARK    5  A    between atoms: C_6  and  C_7
REMARK                            x       y       z     vdW  Elec       q    Type
REMARK                         _______ _______ _______ _____ _____    ______ ____
ROOT
ATOM      1  C   UNL     1      -1.540  12.088  21.836  0.00  0.00    +0.000 C 
ATOM      2  C   UNL     1      -0.294  11.601  21.138  0.00  0.00    +0.000 C 
ENDROOT
BRANCH   2   3
ATOM      3  N   UNL     1      -0.306  11.446  19.697  0.00  0.00    +0.000 N 
ATOM      4  C   UNL     1      -1.169  12.009  18.780  0.00  0.00    +0.000 C 
ATOM      5  O   UNL     1      -2.362  11.816  18.680  0.00  0.00    +0.000 OA
ATOM      6  N   UNL     1      -0.389  12.815  17.869  0.00  0.00    +0.000 N 
ATOM      7  C   UNL     1       0.761  13.234  18.633  0.00  0.00    +0.000 C 
ATOM      8  C   UNL     1       2.199  13.574  18.173  0.00  0.00    +0.000 C 
ATOM      9  C   UNL     1       3.024  13.925  19.468  0.00  0.00    +0.000 C 
ATOM     10  C   UNL     1       2.579  15.258  20.081  0.00  0.00    +0.000 C 
ATOM     11  C   UNL     1       1.088  15.318  20.118  0.00  0.00    +0.000 A 
ATOM     12  S   UNL     1       0.293  16.626  20.868  0.00  0.00    +0.000 S 
ATOM     13  C   UNL     1      -1.224  16.105  20.295  0.00  0.00    +0.000 A 
ATOM     14  C   UNL     1      -1.121  14.934  19.579  0.00  0.00    +0.000 A 
ATOM     15  C   UNL     1       0.236  14.427  19.485  0.00  0.00    +0.000 A 
ATOM     16  C   UNL     1       0.889  11.823  19.187  0.00  0.00    +0.000 C 
ATOM     17  O   UNL     1       1.727  10.981  18.869  0.00  0.00    +0.000 OA
ATOM     18  H   UNL     1      -0.213  12.344  16.987  0.00  0.00    +0.000 HD
ENDBRANCH   2   3
BRANCH   2  19
ATOM     19  C   UNL     1       0.194  10.272  21.766  0.00  0.00    +0.000 C 
ATOM     20  O   UNL     1       0.398  10.188  22.977  0.00  0.00    +0.000 OA
ATOM     21  N   UNL     1       0.293   9.191  20.921  0.00  0.00    +0.000 N 
ATOM     22  H   UNL     1       0.089   9.297  19.934  0.00  0.00    +0.000 HD
BRANCH  21  23
ATOM     23  C   UNL     1       0.627   7.878  21.431  0.00  0.00    +0.000 C 
BRANCH  23  24
ATOM     24  C   UNL     1       1.545   7.110  20.513  0.00  0.00    +0.000 A 
ATOM     25  C   UNL     1       1.778   5.729  20.728  0.00  0.00    +0.000 A 
ATOM     26  C   UNL     1       2.608   4.996  19.870  0.00  0.00    +0.000 A 
ATOM     27  C   UNL     1       3.192   5.662  18.816  0.00  0.00    +0.000 A 
ATOM     28  C   UNL     1       2.965   6.998  18.592  0.00  0.00    +0.000 A 
ATOM     29  C   UNL     1       2.146   7.746  19.414  0.00  0.00    +0.000 A 
ATOM     30  O   UNL     1       3.630   7.462  17.500  0.00  0.00    +0.000 OA
ATOM     31  C   UNL     1       4.343   6.276  17.093  0.00  0.00    +0.000 C 
ATOM     32  O   UNL     1       4.033   5.117  17.896  0.00  0.00    +0.000 OA
ENDBRANCH  23  24
ENDBRANCH  21  23
ENDBRANCH   2  19
TORSDOF 4
ENDMDL
MODEL 9
REMARK VINA RESULT:      -7.3      3.725      8.899
REMARK  Name = 
REMARK  5 active torsions:
REMARK  status: ('A' for Active; 'I' for Inactive)
REMARK    1  A    between atoms: C_1  and  C_2
REMARK    2  A    between atoms: C_2  and  C_3
REMARK    3  A    between atoms: C_2  and  N_16
REMARK    4  A    between atoms: N_5  and  C_6
REMARK    5  A    between atoms: C_6  and  C_7
REMARK                            x       y       z     vdW  Elec       q    Type
REMARK                         _______ _______ _______ _____ _____    ______ ____
ROOT
ATOM      1  C   UNL     1       1.388   4.753  17.479  0.00  0.00    +0.000 C 
ATOM      2  C   UNL     1       2.833   5.124  17.707  0.00  0.00    +0.000 C 
ENDROOT
BRANCH   2   3
ATOM      3  N   UNL     1       3.574   4.458  18.759  0.00  0.00    +0.000 N 
ATOM      4  C   UNL     1       4.152   3.205  18.743  0.00  0.00    +0.000 C 
ATOM      5  O   UNL     1       3.586   2.137  18.646  0.00  0.00    +0.000 OA
ATOM      6  N   UNL     1       5.571   3.365  18.964  0.00  0.00    +0.000 N 
ATOM      7  C   UNL     1       5.882   4.679  18.455  0.00  0.00    +0.000 C 
ATOM      8  C   UNL     1       6.982   5.682  18.877  0.00  0.00    +0.000 C 
ATOM      9  C   UNL     1       6.798   6.967  17.986  0.00  0.00    +0.000 C 
ATOM     10  C   UNL     1       7.174   6.704  16.523  0.00  0.00    +0.000 C 
ATOM     11  C   UNL     1       6.579   5.408  16.080  0.00  0.00    +0.000 A 
ATOM     12  S   UNL     1       6.713   4.904  14.458  0.00  0.00    +0.000 S 
ATOM     13  C   UNL     1       6.067   3.371  14.822  0.00  0.00    +0.000 A 
ATOM     14  C   UNL     1       5.723   3.268  16.151  0.00  0.00    +0.000 A 
ATOM     15  C   UNL     1       5.987   4.473  16.915  0.00  0.00    +0.000 A 
ATOM     16  C   UNL     1       4.630   5.221  19.127  0.00  0.00    +0.000 C 
ATOM     17  O   UNL     1       4.580   5.908  20.146  0.00  0.00    +0.000 OA
ATOM     18  H   UNL     1       5.840   3.164  19.922  0.00  0.00    +0.000 HD
ENDBRANCH   2   3
BRANCH   2  19
ATOM     19  C   UNL     1       2.974   6.654  17.905  0.00  0.00    +0.000 C 
ATOM     20  O   UNL     1       3.786   7.299  17.243  0.00  0.00    +0.000 OA
ATOM     21  N   UNL     1       2.091   7.247  18.778  0.00  0.00    +0.000 N 
ATOM     22  H   UNL     1       1.419   6.681  19.283  0.00  0.00    +0.000 HD
BRANCH  21  23
ATOM     23  C   UNL     1       2.064   8.684  18.944  0.00  0.00    +0.000 C 
BRANCH  23  24
ATOM     24  C   UNL     1       1.284   9.118  20.159  0.00  0.00    +0.000 A 
ATOM     25  C   UNL     1       1.417   8.419  21.383  0.00  0.00    +0.000 A 
ATOM     26  C   UNL     1       0.718   8.825  22.527  0.00  0.00    +0.000 A 
ATOM     27  C   UNL     1      -0.106   9.924  22.420  0.00  0.00    +0.000 A 
ATOM     28  C   UNL     1      -0.235  10.616  21.241  0.00  0.00    +0.000 A 
ATOM     29  C   UNL     1       0.446  10.245  20.099  0.00  0.00    +0.000 A 
ATOM     30  O   UNL     1      -1.091  11.668  21.348  0.00  0.00    +0.000 OA
ATOM     31  C   UNL     1      -1.525  11.526  22.717  0.00  0.00    +0.000 C 
ATOM     32  O   UNL     1      -0.868  10.449  23.417  0.00  0.00    +0.000 OA
ENDBRANCH  23  24
ENDBRANCH  21  23
ENDBRANCH   2  19
TORSDOF 4
ENDMDL
