MODEL 1
REMARK VINA RESULT:      -8.1      0.000      0.000
REMARK  Name = 
REMARK  5 active torsions:
REMARK  status: ('A' for Active; 'I' for Inactive)
REMARK    1  A    between atoms: C_2  and  C_16
REMARK    2  A    between atoms: N_3  and  C_4
REMARK    3  A    between atoms: C_8  and  N_9
REMARK    4  A    between atoms: C_21  and  C_23
REMARK    5  A    between atoms: C_23  and  C_24
REMARK                            x       y       z     vdW  Elec       q    Type
REMARK                         _______ _______ _______ _____ _____    ______ ____
ROOT
ATOM      1  O   UNL     1       1.412   5.217  17.887  0.00  0.00    +0.000 OA
ATOM      2  C   UNL     1       1.801   5.149  19.053  0.00  0.00    +0.000 C 
ATOM      3  N   UNL     1       1.986   6.296  19.811  0.00  0.00    +0.000 N 
ATOM      4  H   UNL     1       1.781   6.251  20.799  0.00  0.00    +0.000 HD
ENDROOT
BRANCH   2   5
ATOM      5  C   UNL     1       1.951   3.766  19.751  0.00  0.00    +0.000 C 
ATOM      6  C   UNL     1       1.239   3.726  21.112  0.00  0.00    +0.000 C 
ATOM      7  C   UNL     1       1.753   2.460  21.772  0.00  0.00    +0.000 C 
ATOM      8  C   UNL     1       3.167   2.307  21.242  0.00  0.00    +0.000 C 
ATOM      9  N   UNL     1       3.288   3.214  20.107  0.00  0.00    +0.000 N 
ATOM     10  C   UNL     1       4.448   3.067  19.338  0.00  0.00    +0.000 C 
ATOM     11  O   UNL     1       5.308   2.242  19.658  0.00  0.00    +0.000 OA
BRANCH  10  12
ATOM     12  C   UNL     1       4.643   4.010  18.171  0.00  0.00    +0.000 C 
BRANCH  12  13
ATOM     13  C   UNL     1       5.713   5.076  18.273  0.00  0.00    +0.000 A 
ATOM     14  C   UNL     1       6.700   5.020  19.264  0.00  0.00    +0.000 A 
ATOM     15  C   UNL     1       7.753   5.938  19.264  0.00  0.00    +0.000 A 
ATOM     16  C   UNL     1       7.834   6.916  18.275  0.00  0.00    +0.000 A 
ATOM     17  C   UNL     1       6.859   6.979  17.280  0.00  0.00    +0.000 A 
ATOM     18  C   UNL     1       5.807   6.066  17.280  0.00  0.00    +0.000 A 
ENDBRANCH  12  13
ENDBRANCH  10  12
ENDBRANCH   2   5
BRANCH   3  19
ATOM     19  C   UNL     1       2.015   7.587  19.221  0.00  0.00    +0.000 A 
ATOM     20  C   UNL     1       2.808   7.847  18.099  0.00  0.00    +0.000 A 
ATOM     21  C   UNL     1       2.755   9.078  17.464  0.00  0.00    +0.000 A 
ATOM     22  C   UNL     1       1.907  10.065  17.951  0.00  0.00    +0.000 A 
ATOM     23  C   UNL     1       1.139   9.851  19.103  0.00  0.00    +0.000 A 
ATOM     24  C   UNL     1       1.228   8.611  19.759  0.00  0.00    +0.000 A 
BRANCH  23  25
ATOM     25  N   UNL     1       0.309  10.884  19.583  0.00  0.00    +0.000 N 
ATOM     26  C   UNL     1      -0.709  11.541  18.796  0.00  0.00    +0.000 C 
ATOM     27  C   UNL     1      -1.627  12.129  19.859  0.00  0.00    +0.000 C 
ATOM     28  N   UNL     1      -0.757  12.300  20.985  0.00  0.00    +0.000 N 
ATOM     29  C   UNL     1       0.308  11.408  20.892  0.00  0.00    +0.000 C 
ATOM     30  O   UNL     1       1.049  11.173  21.831  0.00  0.00    +0.000 OA
ATOM     31  H   UNL     1      -1.035  12.601  21.910  0.00  0.00    +0.000 HD
ENDBRANCH  23  25
ENDBRANCH   3  19
TORSDOF 5
ENDMDL
MODEL 2
REMARK VINA RESULT:      -8.0      1.849      4.241
REMARK  Name = 
REMARK  5 active torsions:
REMARK  status: ('A' for Active; 'I' for Inactive)
REMARK    1  A    between atoms: C_2  and  C_16
REMARK    2  A    between atoms: N_3  and  C_4
REMARK    3  A    between atoms: C_8  and  N_9
REMARK    4  A    between atoms: C_21  and  C_23
REMARK    5  A    between atoms: C_23  and  C_24
REMARK                            x       y       z     vdW  Elec       q    Type
REMARK                         _______ _______ _______ _____ _____    ______ ____
ROOT
ATOM      1  O   UNL     1       2.899   7.500  17.387  0.00  0.00    +0.000 OA
ATOM      2  C   UNL     1       3.541   6.972  18.294  0.00  0.00    +0.000 C 
ATOM      3  N   UNL     1       3.046   6.933  19.590  0.00  0.00    +0.000 N 
ATOM      4  H   UNL     1       3.255   6.122  20.155  0.00  0.00    +0.000 HD
ENDROOT
BRANCH   2   5
ATOM      5  C   UNL     1       4.857   6.203  17.980  0.00  0.00    +0.000 C 
ATOM      6  C   UNL     1       5.932   7.120  17.375  0.00  0.00    +0.000 C 
ATOM      7  C   UNL     1       6.988   6.168  16.846  0.00  0.00    +0.000 C 
ATOM      8  C   UNL     1       6.209   4.932  16.436  0.00  0.00    +0.000 C 
ATOM      9  N   UNL     1       4.882   5.058  17.028  0.00  0.00    +0.000 N 
ATOM     10  C   UNL     1       4.077   3.917  16.952  0.00  0.00    +0.000 C 
ATOM     11  O   UNL     1       4.483   2.904  16.375  0.00  0.00    +0.000 OA
BRANCH  10  12
ATOM     12  C   UNL     1       2.676   4.006  17.516  0.00  0.00    +0.000 C 
BRANCH  12  13
ATOM     13  C   UNL     1       2.426   3.495  18.918  0.00  0.00    +0.000 A 
ATOM     14  C   UNL     1       3.460   2.944  19.684  0.00  0.00    +0.000 A 
ATOM     15  C   UNL     1       3.241   2.597  21.020  0.00  0.00    +0.000 A 
ATOM     16  C   UNL     1       1.993   2.801  21.605  0.00  0.00    +0.000 A 
ATOM     17  C   UNL     1       0.956   3.353  20.853  0.00  0.00    +0.000 A 
ATOM     18  C   UNL     1       1.172   3.696  19.520  0.00  0.00    +0.000 A 
ENDBRANCH  12  13
ENDBRANCH  10  12
ENDBRANCH   2   5
BRANCH   3  19
ATOM     19  C   UNL     1       1.939   7.726  19.992  0.00  0.00    +0.000 A 
ATOM     20  C   UNL     1       1.263   7.462  21.187  0.00  0.00    +0.000 A 
ATOM     21  C   UNL     1       0.249   8.300  21.627  0.00  0.00    +0.000 A 
ATOM     22  C   UNL     1      -0.099   9.411  20.870  0.00  0.00    +0.000 A 
ATOM     23  C   UNL     1       0.526   9.673  19.644  0.00  0.00    +0.000 A 
ATOM     24  C   UNL     1       1.527   8.797  19.190  0.00  0.00    +0.000 A 
BRANCH  23  25
ATOM     25  N   UNL     1       0.129  10.796  18.890  0.00  0.00    +0.000 N 
ATOM     26  C   UNL     1      -1.077  10.856  18.096  0.00  0.00    +0.000 C 
ATOM     27  C   UNL     1      -1.311  12.354  17.957  0.00  0.00    +0.000 C 
ATOM     28  N   UNL     1       0.004  12.906  18.091  0.00  0.00    +0.000 N 
ATOM     29  C   UNL     1       0.806  12.031  18.819  0.00  0.00    +0.000 C 
ATOM     30  O   UNL     1       1.882  12.362  19.285  0.00  0.00    +0.000 OA
ATOM     31  H   UNL     1       0.235  13.890  18.128  0.00  0.00    +0.000 HD
ENDBRANCH  23  25
ENDBRANCH   3  19
TORSDOF 5
ENDMDL
MODEL 3
REMARK VINA RESULT:      -8.0      1.489      1.718
REMARK  Name = 
REMARK  5 active torsions:
REMARK  status: ('A' for Active; 'I' for Inactive)
REMARK    1  A    between atoms: C_2  and  C_16
REMARK    2  A    between atoms: N_3  and  C_4
REMARK    3  A    between atoms: C_8  and  N_9
REMARK    4  A    between atoms: C_21  and  C_23
REMARK    5  A    between atoms: C_23  and  C_24
REMARK                            x       y       z     vdW  Elec       q    Type
REMARK                         _______ _______ _______ _____ _____    ______ ____
ROOT
ATOM      1  O   UNL     1       2.827   6.582  20.070  0.00  0.00    +0.000 OA
ATOM      2  C   UNL     1       2.096   6.257  19.136  0.00  0.00    +0.000 C 
ATOM      3  N   UNL     1       1.574   7.210  18.273  0.00  0.00    +0.000 N 
ATOM      4  H   UNL     1       1.457   6.958  17.302  0.00  0.00    +0.000 HD
ENDROOT
BRANCH   2   5
ATOM      5  C   UNL     1       1.859   4.753  18.811  0.00  0.00    +0.000 C 
ATOM      6  C   UNL     1       1.247   3.995  19.998  0.00  0.00    +0.000 C 
ATOM      7  C   UNL     1       1.389   2.530  19.627  0.00  0.00    +0.000 C 
ATOM      8  C   UNL     1       2.657   2.475  18.795  0.00  0.00    +0.000 C 
ATOM      9  N   UNL     1       2.983   3.850  18.437  0.00  0.00    +0.000 N 
ATOM     10  C   UNL     1       3.998   4.002  17.486  0.00  0.00    +0.000 C 
ATOM     11  O   UNL     1       4.584   3.014  17.035  0.00  0.00    +0.000 OA
BRANCH  10  12
ATOM     12  C   UNL     1       4.403   5.410  17.108  0.00  0.00    +0.000 C 
BRANCH  12  13
ATOM     13  C   UNL     1       5.668   5.985  17.709  0.00  0.00    +0.000 A 
ATOM     14  C   UNL     1       6.290   5.378  18.806  0.00  0.00    +0.000 A 
ATOM     15  C   UNL     1       7.523   5.846  19.267  0.00  0.00    +0.000 A 
ATOM     16  C   UNL     1       8.149   6.919  18.635  0.00  0.00    +0.000 A 
ATOM     17  C   UNL     1       7.541   7.529  17.538  0.00  0.00    +0.000 A 
ATOM     18  C   UNL     1       6.310   7.065  17.080  0.00  0.00    +0.000 A 
ENDBRANCH  12  13
ENDBRANCH  10  12
ENDBRANCH   2   5
BRANCH   3  19
ATOM     19  C   UNL     1       1.616   8.596  18.575  0.00  0.00    +0.000 A 
ATOM     20  C   UNL     1       2.352   9.483  17.783  0.00  0.00    +0.000 A 
ATOM     21  C   UNL     1       2.307  10.848  18.020  0.00  0.00    +0.000 A 
ATOM     22  C   UNL     1       1.525  11.339  19.057  0.00  0.00    +0.000 A 
ATOM     23  C   UNL     1       0.817  10.472  19.900  0.00  0.00    +0.000 A 
ATOM     24  C   UNL     1       0.899   9.087  19.673  0.00  0.00    +0.000 A 
BRANCH  23  25
ATOM     25  N   UNL     1       0.055  11.004  20.959  0.00  0.00    +0.000 N 
ATOM     26  C   UNL     1      -0.879  12.097  20.819  0.00  0.00    +0.000 C 
ATOM     27  C   UNL     1      -1.785  11.921  22.030  0.00  0.00    +0.000 C 
ATOM     28  N   UNL     1      -0.946  11.241  22.971  0.00  0.00    +0.000 N 
ATOM     29  C   UNL     1       0.048  10.542  22.291  0.00  0.00    +0.000 C 
ATOM     30  O   UNL     1       0.735   9.691  22.829  0.00  0.00    +0.000 OA
ATOM     31  H   UNL     1      -1.231  10.886  23.875  0.00  0.00    +0.000 HD
ENDBRANCH  23  25
ENDBRANCH   3  19
TORSDOF 5
ENDMDL
MODEL 4
REMARK VINA RESULT:      -7.9      1.945      4.385
REMARK  Name = 
REMARK  5 active torsions:
REMARK  status: ('A' for Active; 'I' for Inactive)
REMARK    1  A    between atoms: C_2  and  C_16
REMARK    2  A    between atoms: N_3  and  C_4
REMARK    3  A    between atoms: C_8  and  N_9
REMARK    4  A    between atoms: C_21  and  C_23
REMARK    5  A    between atoms: C_23  and  C_24
REMARK                            x       y       z     vdW  Elec       q    Type
REMARK                         _______ _______ _______ _____ _____    ______ ____
ROOT
ATOM      1  O   UNL     1       2.508   7.257  17.448  0.00  0.00    +0.000 OA
ATOM      2  C   UNL     1       3.285   6.916  18.340  0.00  0.00    +0.000 C 
ATOM      3  N   UNL     1       2.938   7.047  19.677  0.00  0.00    +0.000 N 
ATOM      4  H   UNL     1       3.270   6.348  20.326  0.00  0.00    +0.000 HD
ENDROOT
BRANCH   2   5
ATOM      5  C   UNL     1       4.616   6.191  17.988  0.00  0.00    +0.000 C 
ATOM      6  C   UNL     1       5.632   7.135  17.328  0.00  0.00    +0.000 C 
ATOM      7  C   UNL     1       6.702   6.214  16.773  0.00  0.00    +0.000 C 
ATOM      8  C   UNL     1       5.955   4.944  16.412  0.00  0.00    +0.000 C 
ATOM      9  N   UNL     1       4.647   5.031  17.052  0.00  0.00    +0.000 N 
ATOM     10  C   UNL     1       3.882   3.860  17.025  0.00  0.00    +0.000 C 
ATOM     11  O   UNL     1       4.303   2.853  16.448  0.00  0.00    +0.000 OA
BRANCH  10  12
ATOM     12  C   UNL     1       2.501   3.908  17.641  0.00  0.00    +0.000 C 
BRANCH  12  13
ATOM     13  C   UNL     1       2.348   3.556  19.105  0.00  0.00    +0.000 A 
ATOM     14  C   UNL     1       1.124   3.715  19.764  0.00  0.00    +0.000 A 
ATOM     15  C   UNL     1       0.966   3.265  21.078  0.00  0.00    +0.000 A 
ATOM     16  C   UNL     1       2.025   2.650  21.743  0.00  0.00    +0.000 A 
ATOM     17  C   UNL     1       3.248   2.482  21.095  0.00  0.00    +0.000 A 
ATOM     18  C   UNL     1       3.407   2.933  19.786  0.00  0.00    +0.000 A 
ENDBRANCH  12  13
ENDBRANCH  10  12
ENDBRANCH   2   5
BRANCH   3  19
ATOM     19  C   UNL     1       1.822   7.823  20.088  0.00  0.00    +0.000 A 
ATOM     20  C   UNL     1       0.995   7.397  21.131  0.00  0.00    +0.000 A 
ATOM     21  C   UNL     1      -0.031   8.204  21.598  0.00  0.00    +0.000 A 
ATOM     22  C   UNL     1      -0.240   9.450  21.019  0.00  0.00    +0.000 A 
ATOM     23  C   UNL     1       0.539   9.883  19.939  0.00  0.00    +0.000 A 
ATOM     24  C   UNL     1       1.553   9.040  19.450  0.00  0.00    +0.000 A 
BRANCH  23  25
ATOM     25  N   UNL     1       0.281  11.142  19.359  0.00  0.00    +0.000 N 
ATOM     26  C   UNL     1       1.049  12.335  19.634  0.00  0.00    +0.000 C 
ATOM     27  C   UNL     1       0.749  13.210  18.424  0.00  0.00    +0.000 C 
ATOM     28  N   UNL     1      -0.535  12.745  17.992  0.00  0.00    +0.000 N 
ATOM     29  C   UNL     1      -0.719  11.429  18.409  0.00  0.00    +0.000 C 
ATOM     30  O   UNL     1      -1.607  10.721  17.967  0.00  0.00    +0.000 OA
ATOM     31  H   UNL     1      -1.027  13.044  17.160  0.00  0.00    +0.000 HD
ENDBRANCH  23  25
ENDBRANCH   3  19
TORSDOF 5
ENDMDL
MODEL 5
REMARK VINA RESULT:      -7.9      0.921      1.128
REMARK  Name = 
REMARK  5 active torsions:
REMARK  status: ('A' for Active; 'I' for Inactive)
REMARK    1  A    between atoms: C_2  and  C_16
REMARK    2  A    between atoms: N_3  and  C_4
REMARK    3  A    between atoms: C_8  and  N_9
REMARK    4  A    between atoms: C_21  and  C_23
REMARK    5  A    between atoms: C_23  and  C_24
REMARK                            x       y       z     vdW  Elec       q    Type
REMARK                         _______ _______ _______ _____ _____    ______ ____
ROOT
ATOM      1  O   UNL     1       1.485   5.383  17.853  0.00  0.00    +0.000 OA
ATOM      2  C   UNL     1       1.815   5.293  19.035  0.00  0.00    +0.000 C 
ATOM      3  N   UNL     1       1.925   6.423  19.833  0.00  0.00    +0.000 N 
ATOM      4  H   UNL     1       1.671   6.344  20.807  0.00  0.00    +0.000 HD
ENDROOT
BRANCH   2   5
ATOM      5  C   UNL     1       1.973   3.896  19.703  0.00  0.00    +0.000 C 
ATOM      6  C   UNL     1       1.271   3.825  21.068  0.00  0.00    +0.000 C 
ATOM      7  C   UNL     1       1.793   2.547  21.697  0.00  0.00    +0.000 C 
ATOM      8  C   UNL     1       3.203   2.408  21.153  0.00  0.00    +0.000 C 
ATOM      9  N   UNL     1       3.315   3.340  20.037  0.00  0.00    +0.000 N 
ATOM     10  C   UNL     1       4.469   3.212  19.256  0.00  0.00    +0.000 C 
ATOM     11  O   UNL     1       5.333   2.382  19.553  0.00  0.00    +0.000 OA
BRANCH  10  12
ATOM     12  C   UNL     1       4.653   4.181  18.109  0.00  0.00    +0.000 C 
BRANCH  12  13
ATOM     13  C   UNL     1       5.738   5.230  18.215  0.00  0.00    +0.000 A 
ATOM     14  C   UNL     1       6.763   5.121  19.162  0.00  0.00    +0.000 A 
ATOM     15  C   UNL     1       7.826   6.028  19.161  0.00  0.00    +0.000 A 
ATOM     16  C   UNL     1       7.878   7.049  18.214  0.00  0.00    +0.000 A 
ATOM     17  C   UNL     1       6.865   7.166  17.263  0.00  0.00    +0.000 A 
ATOM     18  C   UNL     1       5.803   6.264  17.265  0.00  0.00    +0.000 A 
ENDBRANCH  12  13
ENDBRANCH  10  12
ENDBRANCH   2   5
BRANCH   3  19
ATOM     19  C   UNL     1       1.943   7.731  19.280  0.00  0.00    +0.000 A 
ATOM     20  C   UNL     1       2.687   8.016  18.132  0.00  0.00    +0.000 A 
ATOM     21  C   UNL     1       2.620   9.266  17.537  0.00  0.00    +0.000 A 
ATOM     22  C   UNL     1       1.808  10.247  18.090  0.00  0.00    +0.000 A 
ATOM     23  C   UNL     1       1.089  10.007  19.270  0.00  0.00    +0.000 A 
ATOM     24  C   UNL     1       1.193   8.747  19.884  0.00  0.00    +0.000 A 
BRANCH  23  25
ATOM     25  N   UNL     1       0.295  11.034  19.818  0.00  0.00    +0.000 N 
ATOM     26  C   UNL     1       0.468  11.574  21.147  0.00  0.00    +0.000 C 
ATOM     27  C   UNL     1      -0.209  12.934  21.046  0.00  0.00    +0.000 C 
ATOM     28  N   UNL     1      -1.169  12.746  19.999  0.00  0.00    +0.000 N 
ATOM     29  C   UNL     1      -0.750  11.716  19.160  0.00  0.00    +0.000 C 
ATOM     30  O   UNL     1      -1.247  11.519  18.065  0.00  0.00    +0.000 OA
ATOM     31  H   UNL     1      -1.759  13.464  19.597  0.00  0.00    +0.000 HD
ENDBRANCH  23  25
ENDBRANCH   3  19
TORSDOF 5
ENDMDL
MODEL 6
REMARK VINA RESULT:      -7.8      1.902      4.360
REMARK  Name = 
REMARK  5 active torsions:
REMARK  status: ('A' for Active; 'I' for Inactive)
REMARK    1  A    between atoms: C_2  and  C_16
REMARK    2  A    between atoms: N_3  and  C_4
REMARK    3  A    between atoms: C_8  and  N_9
REMARK    4  A    between atoms: C_21  and  C_23
REMARK    5  A    between atoms: C_23  and  C_24
REMARK                            x       y       z     vdW  Elec       q    Type
REMARK                         _______ _______ _______ _____ _____    ______ ____
ROOT
ATOM      1  O   UNL     1       2.619   7.595  17.399  0.00  0.00    +0.000 OA
ATOM      2  C   UNL     1       3.339   7.172  18.303  0.00  0.00    +0.000 C 
ATOM      3  N   UNL     1       2.927   7.226  19.627  0.00  0.00    +0.000 N 
ATOM      4  H   UNL     1       3.206   6.475  20.243  0.00  0.00    +0.000 HD
ENDROOT
BRANCH   2   5
ATOM      5  C   UNL     1       4.666   6.431  17.970  0.00  0.00    +0.000 C 
ATOM      6  C   UNL     1       5.691   7.356  17.296  0.00  0.00    +0.000 C 
ATOM      7  C   UNL     1       6.757   6.417  16.762  0.00  0.00    +0.000 C 
ATOM      8  C   UNL     1       6.001   5.146  16.423  0.00  0.00    +0.000 C 
ATOM      9  N   UNL     1       4.693   5.254  17.057  0.00  0.00    +0.000 N 
ATOM     10  C   UNL     1       3.919   4.088  17.049  0.00  0.00    +0.000 C 
ATOM     11  O   UNL     1       4.335   3.068  16.492  0.00  0.00    +0.000 OA
BRANCH  10  12
ATOM     12  C   UNL     1       2.536   4.157  17.658  0.00  0.00    +0.000 C 
BRANCH  12  13
ATOM     13  C   UNL     1       2.357   3.723  19.097  0.00  0.00    +0.000 A 
ATOM     14  C   UNL     1       1.124   3.857  19.746  0.00  0.00    +0.000 A 
ATOM     15  C   UNL     1       0.941   3.335  21.029  0.00  0.00    +0.000 A 
ATOM     16  C   UNL     1       1.982   2.671  21.673  0.00  0.00    +0.000 A 
ATOM     17  C   UNL     1       3.214   2.527  21.035  0.00  0.00    +0.000 A 
ATOM     18  C   UNL     1       3.398   3.050  19.757  0.00  0.00    +0.000 A 
ENDBRANCH  12  13
ENDBRANCH  10  12
ENDBRANCH   2   5
BRANCH   3  19
ATOM     19  C   UNL     1       1.813   8.006  20.034  0.00  0.00    +0.000 A 
ATOM     20  C   UNL     1       1.342   7.958  21.349  0.00  0.00    +0.000 A 
ATOM     21  C   UNL     1       0.321   8.798  21.768  0.00  0.00    +0.000 A 
ATOM     22  C   UNL     1      -0.242   9.694  20.869  0.00  0.00    +0.000 A 
ATOM     23  C   UNL     1       0.173   9.729  19.531  0.00  0.00    +0.000 A 
ATOM     24  C   UNL     1       1.184   8.849  19.109  0.00  0.00    +0.000 A 
BRANCH  23  25
ATOM     25  N   UNL     1      -0.439  10.634  18.640  0.00  0.00    +0.000 N 
ATOM     26  C   UNL     1      -1.459  10.268  17.684  0.00  0.00    +0.000 C 
ATOM     27  C   UNL     1      -2.137  11.600  17.392  0.00  0.00    +0.000 C 
ATOM     28  N   UNL     1      -1.107  12.558  17.661  0.00  0.00    +0.000 N 
ATOM     29  C   UNL     1      -0.192  12.020  18.563  0.00  0.00    +0.000 C 
ATOM     30  O   UNL     1       0.632  12.702  19.146  0.00  0.00    +0.000 OA
ATOM     31  H   UNL     1      -1.214  13.565  17.650  0.00  0.00    +0.000 HD
ENDBRANCH  23  25
ENDBRANCH   3  19
TORSDOF 5
ENDMDL
MODEL 7
REMARK VINA RESULT:      -7.8      2.066      4.374
REMARK  Name = 
REMARK  5 active torsions:
REMARK  status: ('A' for Active; 'I' for Inactive)
REMARK    1  A    between atoms: C_2  and  C_16
REMARK    2  A    between atoms: N_3  and  C_4
REMARK    3  A    between atoms: C_8  and  N_9
REMARK    4  A    between atoms: C_21  and  C_23
REMARK    5  A    between atoms: C_23  and  C_24
REMARK                            x       y       z     vdW  Elec       q    Type
REMARK                         _______ _______ _______ _____ _____    ______ ____
ROOT
ATOM      1  O   UNL     1       2.229   6.363  17.577  0.00  0.00    +0.000 OA
ATOM      2  C   UNL     1       3.246   6.956  17.934  0.00  0.00    +0.000 C 
ATOM      3  N   UNL     1       3.218   7.839  19.004  0.00  0.00    +0.000 N 
ATOM      4  H   UNL     1       4.035   7.895  19.596  0.00  0.00    +0.000 HD
ENDROOT
BRANCH   2   5
ATOM      5  C   UNL     1       4.621   6.618  17.288  0.00  0.00    +0.000 C 
ATOM      6  C   UNL     1       4.593   6.769  15.759  0.00  0.00    +0.000 C 
ATOM      7  C   UNL     1       5.873   6.104  15.288  0.00  0.00    +0.000 C 
ATOM      8  C   UNL     1       6.117   5.000  16.302  0.00  0.00    +0.000 C 
ATOM      9  N   UNL     1       5.241   5.272  17.435  0.00  0.00    +0.000 N 
ATOM     10  C   UNL     1       5.469   4.493  18.575  0.00  0.00    +0.000 C 
ATOM     11  O   UNL     1       6.336   3.613  18.566  0.00  0.00    +0.000 OA
BRANCH  10  12
ATOM     12  C   UNL     1       4.563   4.706  19.767  0.00  0.00    +0.000 C 
BRANCH  12  13
ATOM     13  C   UNL     1       3.240   3.972  19.811  0.00  0.00    +0.000 A 
ATOM     14  C   UNL     1       2.294   4.241  20.807  0.00  0.00    +0.000 A 
ATOM     15  C   UNL     1       1.030   3.649  20.759  0.00  0.00    +0.000 A 
ATOM     16  C   UNL     1       0.696   2.787  19.716  0.00  0.00    +0.000 A 
ATOM     17  C   UNL     1       1.628   2.514  18.715  0.00  0.00    +0.000 A 
ATOM     18  C   UNL     1       2.890   3.102  18.764  0.00  0.00    +0.000 A 
ENDBRANCH  12  13
ENDBRANCH  10  12
ENDBRANCH   2   5
BRANCH   3  19
ATOM     19  C   UNL     1       1.998   8.314  19.552  0.00  0.00    +0.000 A 
ATOM     20  C   UNL     1       1.470   7.760  20.722  0.00  0.00    +0.000 A 
ATOM     21  C   UNL     1       0.334   8.294  21.310  0.00  0.00    +0.000 A 
ATOM     22  C   UNL     1      -0.289   9.390  20.727  0.00  0.00    +0.000 A 
ATOM     23  C   UNL     1       0.187   9.936  19.527  0.00  0.00    +0.000 A 
ATOM     24  C   UNL     1       1.318   9.363  18.921  0.00  0.00    +0.000 A 
BRANCH  23  25
ATOM     25  N   UNL     1      -0.486  11.032  18.950  0.00  0.00    +0.000 N 
ATOM     26  C   UNL     1      -0.344  12.399  19.398  0.00  0.00    +0.000 C 
ATOM     27  C   UNL     1      -0.796  13.197  18.182  0.00  0.00    +0.000 C 
ATOM     28  N   UNL     1      -1.682  12.295  17.508  0.00  0.00    +0.000 N 
ATOM     29  C   UNL     1      -1.357  10.983  17.842  0.00  0.00    +0.000 C 
ATOM     30  O   UNL     1      -1.785  10.024  17.224  0.00  0.00    +0.000 OA
ATOM     31  H   UNL     1      -2.121  12.452  16.610  0.00  0.00    +0.000 HD
ENDBRANCH  23  25
ENDBRANCH   3  19
TORSDOF 5
ENDMDL
MODEL 8
REMARK VINA RESULT:      -7.8      1.633      1.959
REMARK  Name = 
REMARK  5 active torsions:
REMARK  status: ('A' for Active; 'I' for Inactive)
REMARK    1  A    between atoms: C_2  and  C_16
REMARK    2  A    between atoms: N_3  and  C_4
REMARK    3  A    between atoms: C_8  and  N_9
REMARK    4  A    between atoms: C_21  and  C_23
REMARK    5  A    between atoms: C_23  and  C_24
REMARK                            x       y       z     vdW  Elec       q    Type
REMARK                         _______ _______ _______ _____ _____    ______ ____
ROOT
ATOM      1  O   UNL     1       2.802   6.602  19.935  0.00  0.00    +0.000 OA
ATOM      2  C   UNL     1       2.081   6.275  18.992  0.00  0.00    +0.000 C 
ATOM      3  N   UNL     1       1.537   7.230  18.146  0.00  0.00    +0.000 N 
ATOM      4  H   UNL     1       1.429   6.994  17.169  0.00  0.00    +0.000 HD
ENDROOT
BRANCH   2   5
ATOM      5  C   UNL     1       1.884   4.772  18.638  0.00  0.00    +0.000 C 
ATOM      6  C   UNL     1       1.226   3.990  19.784  0.00  0.00    +0.000 C 
ATOM      7  C   UNL     1       1.410   2.532  19.404  0.00  0.00    +0.000 C 
ATOM      8  C   UNL     1       2.718   2.507  18.635  0.00  0.00    +0.000 C 
ATOM      9  N   UNL     1       3.040   3.891  18.311  0.00  0.00    +0.000 N 
ATOM     10  C   UNL     1       4.098   4.071  17.413  0.00  0.00    +0.000 C 
ATOM     11  O   UNL     1       4.722   3.097  16.981  0.00  0.00    +0.000 OA
BRANCH  10  12
ATOM     12  C   UNL     1       4.500   5.489  17.072  0.00  0.00    +0.000 C 
BRANCH  12  13
ATOM     13  C   UNL     1       5.757   6.055  17.695  0.00  0.00    +0.000 A 
ATOM     14  C   UNL     1       6.397   5.403  18.757  0.00  0.00    +0.000 A 
ATOM     15  C   UNL     1       7.625   5.869  19.234  0.00  0.00    +0.000 A 
ATOM     16  C   UNL     1       8.228   6.983  18.655  0.00  0.00    +0.000 A 
ATOM     17  C   UNL     1       7.603   7.638  17.594  0.00  0.00    +0.000 A 
ATOM     18  C   UNL     1       6.377   7.176  17.119  0.00  0.00    +0.000 A 
ENDBRANCH  12  13
ENDBRANCH  10  12
ENDBRANCH   2   5
BRANCH   3  19
ATOM     19  C   UNL     1       1.541   8.611  18.474  0.00  0.00    +0.000 A 
ATOM     20  C   UNL     1       2.372   9.509  17.797  0.00  0.00    +0.000 A 
ATOM     21  C   UNL     1       2.299  10.870  18.049  0.00  0.00    +0.000 A 
ATOM     22  C   UNL     1       1.393  11.347  18.987  0.00  0.00    +0.000 A 
ATOM     23  C   UNL     1       0.583  10.467  19.718  0.00  0.00    +0.000 A 
ATOM     24  C   UNL     1       0.691   9.086  19.480  0.00  0.00    +0.000 A 
BRANCH  23  25
ATOM     25  N   UNL     1      -0.307  10.984  20.681  0.00  0.00    +0.000 N 
ATOM     26  C   UNL     1      -0.179  10.770  22.104  0.00  0.00    +0.000 C 
ATOM     27  C   UNL     1      -0.991  11.917  22.690  0.00  0.00    +0.000 C 
ATOM     28  N   UNL     1      -1.935  12.213  21.654  0.00  0.00    +0.000 N 
ATOM     29  C   UNL     1      -1.421  11.810  20.424  0.00  0.00    +0.000 C 
ATOM     30  O   UNL     1      -1.905  12.165  19.363  0.00  0.00    +0.000 OA
ATOM     31  H   UNL     1      -2.598  12.978  21.654  0.00  0.00    +0.000 HD
ENDBRANCH  23  25
ENDBRANCH   3  19
TORSDOF 5
ENDMDL
MODEL 9
REMARK VINA RESULT:      -7.8      1.810      2.266
REMARK  Name = 
REMARK  5 active torsions:
REMARK  status: ('A' for Active; 'I' for Inactive)
REMARK    1  A    between atoms: C_2  and  C_16
REMARK    2  A    between atoms: N_3  and  C_4
REMARK    3  A    between atoms: C_8  and  N_9
REMARK    4  A    between atoms: C_21  and  C_23
REMARK    5  A    between atoms: C_23  and  C_24
REMARK                            x       y       z     vdW  Elec       q    Type
REMARK                         _______ _______ _______ _____ _____    ______ ____
ROOT
ATOM      1  O   UNL     1       3.057   6.215  19.553  0.00  0.00    +0.000 OA
ATOM      2  C   UNL     1       2.427   5.997  18.519  0.00  0.00    +0.000 C 
ATOM      3  N   UNL     1       1.885   7.039  17.781  0.00  0.00    +0.000 N 
ATOM      4  H   UNL     1       1.861   6.947  16.775  0.00  0.00    +0.000 HD
ENDROOT
BRANCH   2   5
ATOM      5  C   UNL     1       2.349   4.556  17.935  0.00  0.00    +0.000 C 
ATOM      6  C   UNL     1       1.726   3.563  18.928  0.00  0.00    +0.000 C 
ATOM      7  C   UNL     1       2.025   2.198  18.337  0.00  0.00    +0.000 C 
ATOM      8  C   UNL     1       3.349   2.382  17.617  0.00  0.00    +0.000 C 
ATOM      9  N   UNL     1       3.574   3.819  17.516  0.00  0.00    +0.000 N 
ATOM     10  C   UNL     1       4.635   4.207  16.691  0.00  0.00    +0.000 C 
ATOM     11  O   UNL     1       5.338   3.357  16.138  0.00  0.00    +0.000 OA
BRANCH  10  12
ATOM     12  C   UNL     1       4.938   5.685  16.583  0.00  0.00    +0.000 C 
BRANCH  12  13
ATOM     13  C   UNL     1       6.071   6.255  17.410  0.00  0.00    +0.000 A 
ATOM     14  C   UNL     1       6.627   5.532  18.472  0.00  0.00    +0.000 A 
ATOM     15  C   UNL     1       7.754   6.016  19.142  0.00  0.00    +0.000 A 
ATOM     16  C   UNL     1       8.339   7.221  18.755  0.00  0.00    +0.000 A 
ATOM     17  C   UNL     1       7.796   7.947  17.696  0.00  0.00    +0.000 A 
ATOM     18  C   UNL     1       6.670   7.467  17.030  0.00  0.00    +0.000 A 
ENDBRANCH  12  13
ENDBRANCH  10  12
ENDBRANCH   2   5
BRANCH   3  19
ATOM     19  C   UNL     1       1.780   8.354  18.307  0.00  0.00    +0.000 A 
ATOM     20  C   UNL     1       2.333   9.445  17.630  0.00  0.00    +0.000 A 
ATOM     21  C   UNL     1       2.140  10.738  18.093  0.00  0.00    +0.000 A 
ATOM     22  C   UNL     1       1.392  10.949  19.244  0.00  0.00    +0.000 A 
ATOM     23  C   UNL     1       0.868   9.873  19.971  0.00  0.00    +0.000 A 
ATOM     24  C   UNL     1       1.101   8.565  19.513  0.00  0.00    +0.000 A 
BRANCH  23  25
ATOM     25  N   UNL     1       0.136  10.124  21.149  0.00  0.00    +0.000 N 
ATOM     26  C   UNL     1      -0.343   9.095  22.043  0.00  0.00    +0.000 C 
ATOM     27  C   UNL     1      -0.555   9.855  23.345  0.00  0.00    +0.000 C 
ATOM     28  N   UNL     1      -0.795  11.198  22.907  0.00  0.00    +0.000 N 
ATOM     29  C   UNL     1      -0.208  11.393  21.659  0.00  0.00    +0.000 C 
ATOM     30  O   UNL     1      -0.049  12.501  21.176  0.00  0.00    +0.000 OA
ATOM     31  H   UNL     1      -0.903  12.008  23.503  0.00  0.00    +0.000 HD
ENDBRANCH  23  25
ENDBRANCH   3  19
TORSDOF 5
ENDMDL
