MODEL 1
REMARK VINA RESULT:      -8.0      0.000      0.000
REMARK  Name = 
REMARK  6 active torsions:
REMARK  status: ('A' for Active; 'I' for Inactive)
REMARK    1  A    between atoms: C_1  and  C_2
REMARK    2  A    between atoms: C_2  and  C_3
REMARK    3  A    between atoms: C_5  and  C_6
REMARK    4  A    between atoms: C_9  and  C_10
REMARK    5  A    between atoms: N_12  and  C_13
REMARK    6  A    between atoms: C_13  and  C_14
REMARK                            x       y       z     vdW  Elec       q    Type
REMARK                         _______ _______ _______ _____ _____    ______ ____
ROOT
ATOM      1  C   UNL     1       0.817   9.867  18.967  0.00  0.00    +0.000 A 
ATOM      2  C   UNL     1       0.914   9.141  20.160  0.00  0.00    +0.000 A 
ATOM      3  C   UNL     1       1.641   7.942  20.212  0.00  0.00    +0.000 A 
ATOM      4  C   UNL     1       2.281   7.460  19.060  0.00  0.00    +0.000 A 
ATOM      5  C   UNL     1       2.187   8.190  17.868  0.00  0.00    +0.000 A 
ATOM      6  C   UNL     1       1.469   9.389  17.824  0.00  0.00    +0.000 A 
ENDROOT
BRANCH   1   9
ATOM      7  C   UNL     1      -0.500  13.117  19.242  0.00  0.00    +0.000 A 
ATOM      8  N   UNL     1       0.465  12.264  19.507  0.00  0.00    +0.000 NA
ATOM      9  C   UNL     1       0.044  11.098  18.909  0.00  0.00    +0.000 A 
ATOM     10  N   UNL     1      -1.143  11.202  18.289  0.00  0.00    +0.000 NA
ATOM     11  N   UNL     1      -1.476  12.472  18.542  0.00  0.00    +0.000 N 
ATOM     12  H   UNL     1      -2.366  12.823  18.211  0.00  0.00    +0.000 HD
BRANCH   7  14
ATOM     13  C   UNL     1       0.511  15.365  18.909  0.00  0.00    +0.000 C 
ATOM     14  C   UNL     1      -0.576  14.556  19.595  0.00  0.00    +0.000 C 
ENDBRANCH   7  14
ENDBRANCH   1   9
BRANCH   4  15
ATOM     15  C   UNL     1       3.081   6.191  19.021  0.00  0.00    +0.000 C 
ATOM     16  O   UNL     1       3.901   5.957  19.883  0.00  0.00    +0.000 OA
ATOM     17  N   UNL     1       2.785   5.322  17.989  0.00  0.00    +0.000 N 
ATOM     18  H   UNL     1       1.833   5.364  17.645  0.00  0.00    +0.000 HD
BRANCH  17  19
ATOM     19  C   UNL     1       3.433   3.971  17.856  0.00  0.00    +0.000 C 
ATOM     20  C   UNL     1       2.578   2.735  17.416  0.00  0.00    +0.000 C 
ATOM     21  O   UNL     1       3.026   1.968  18.573  0.00  0.00    +0.000 OA
ATOM     22  C   UNL     1       3.376   3.207  19.233  0.00  0.00    +0.000 C 
BRANCH  19  23
ATOM     23  C   UNL     1       4.858   4.131  17.151  0.00  0.00    +0.000 A 
ATOM     24  C   UNL     1       4.960   4.167  15.744  0.00  0.00    +0.000 A 
ATOM     25  C   UNL     1       6.136   4.555  15.111  0.00  0.00    +0.000 A 
ATOM     26  C   UNL     1       7.265   4.853  15.865  0.00  0.00    +0.000 A 
ATOM     27  C   UNL     1       7.231   4.705  17.248  0.00  0.00    +0.000 A 
ATOM     28  C   UNL     1       6.048   4.319  17.879  0.00  0.00    +0.000 A 
ENDBRANCH  19  23
ENDBRANCH  17  19
ENDBRANCH   4  15
TORSDOF 5
ENDMDL
MODEL 2
REMARK VINA RESULT:      -8.0      2.619      8.771
REMARK  Name = 
REMARK  6 active torsions:
REMARK  status: ('A' for Active; 'I' for Inactive)
REMARK    1  A    between atoms: C_1  and  C_2
REMARK    2  A    between atoms: C_2  and  C_3
REMARK    3  A    between atoms: C_5  and  C_6
REMARK    4  A    between atoms: C_9  and  C_10
REMARK    5  A    between atoms: N_12  and  C_13
REMARK    6  A    between atoms: C_13  and  C_14
REMARK                            x       y       z     vdW  Elec       q    Type
REMARK                         _______ _______ _______ _____ _____    ______ ____
ROOT
ATOM      1  C   UNL     1       4.745   5.836  16.732  0.00  0.00    +0.000 A 
ATOM      2  C   UNL     1       4.191   4.920  17.635  0.00  0.00    +0.000 A 
ATOM      3  C   UNL     1       3.308   5.348  18.637  0.00  0.00    +0.000 A 
ATOM      4  C   UNL     1       2.971   6.707  18.742  0.00  0.00    +0.000 A 
ATOM      5  C   UNL     1       3.522   7.620  17.835  0.00  0.00    +0.000 A 
ATOM      6  C   UNL     1       4.394   7.188  16.832  0.00  0.00    +0.000 A 
ENDROOT
BRANCH   1   9
ATOM      7  C   UNL     1       6.415   4.397  13.991  0.00  0.00    +0.000 A 
ATOM      8  N   UNL     1       5.303   4.568  14.672  0.00  0.00    +0.000 NA
ATOM      9  C   UNL     1       5.679   5.394  15.708  0.00  0.00    +0.000 A 
ATOM     10  N   UNL     1       6.978   5.733  15.689  0.00  0.00    +0.000 NA
ATOM     11  N   UNL     1       7.423   5.067  14.619  0.00  0.00    +0.000 N 
ATOM     12  H   UNL     1       8.405   5.116  14.380  0.00  0.00    +0.000 HD
BRANCH   7  14
ATOM     13  C   UNL     1       5.292   3.287  12.069  0.00  0.00    +0.000 C 
ATOM     14  C   UNL     1       6.613   3.633  12.735  0.00  0.00    +0.000 C 
ENDBRANCH   7  14
ENDBRANCH   1   9
BRANCH   4  15
ATOM     15  C   UNL     1       2.034   7.255  19.778  0.00  0.00    +0.000 C 
ATOM     16  O   UNL     1       1.727   6.587  20.741  0.00  0.00    +0.000 OA
ATOM     17  N   UNL     1       1.605   8.553  19.577  0.00  0.00    +0.000 N 
ATOM     18  H   UNL     1       2.246   9.149  19.067  0.00  0.00    +0.000 HD
BRANCH  17  19
ATOM     19  C   UNL     1       0.734   9.281  20.564  0.00  0.00    +0.000 C 
ATOM     20  C   UNL     1       1.197   9.426  22.054  0.00  0.00    +0.000 C 
ATOM     21  O   UNL     1      -0.063   8.873  22.537  0.00  0.00    +0.000 OA
ATOM     22  C   UNL     1      -0.276   8.276  21.236  0.00  0.00    +0.000 C 
BRANCH  19  23
ATOM     23  C   UNL     1       0.135  10.594  19.880  0.00  0.00    +0.000 A 
ATOM     24  C   UNL     1       0.790  11.836  20.019  0.00  0.00    +0.000 A 
ATOM     25  C   UNL     1       0.441  12.932  19.237  0.00  0.00    +0.000 A 
ATOM     26  C   UNL     1      -0.618  12.839  18.343  0.00  0.00    +0.000 A 
ATOM     27  C   UNL     1      -1.363  11.666  18.274  0.00  0.00    +0.000 A 
ATOM     28  C   UNL     1      -1.007  10.567  19.057  0.00  0.00    +0.000 A 
ENDBRANCH  19  23
ENDBRANCH  17  19
ENDBRANCH   4  15
TORSDOF 5
ENDMDL
MODEL 3
REMARK VINA RESULT:      -7.9      1.072      1.205
REMARK  Name = 
REMARK  6 active torsions:
REMARK  status: ('A' for Active; 'I' for Inactive)
REMARK    1  A    between atoms: C_1  and  C_2
REMARK    2  A    between atoms: C_2  and  C_3
REMARK    3  A    between atoms: C_5  and  C_6
REMARK    4  A    between atoms: C_9  and  C_10
REMARK    5  A    between atoms: N_12  and  C_13
REMARK    6  A    between atoms: C_13  and  C_14
REMARK                            x       y       z     vdW  Elec       q    Type
REMARK                         _______ _______ _______ _____ _____    ______ ____
ROOT
ATOM      1  C   UNL     1       0.897   9.656  19.221  0.00  0.00    +0.000 A 
ATOM      2  C   UNL     1       1.057   8.869  20.369  0.00  0.00    +0.000 A 
ATOM      3  C   UNL     1       1.812   7.688  20.327  0.00  0.00    +0.000 A 
ATOM      4  C   UNL     1       2.417   7.283  19.127  0.00  0.00    +0.000 A 
ATOM      5  C   UNL     1       2.259   8.074  17.981  0.00  0.00    +0.000 A 
ATOM      6  C   UNL     1       1.514   9.255  18.030  0.00  0.00    +0.000 A 
ENDROOT
BRANCH   1   9
ATOM      7  C   UNL     1      -1.533  12.158  19.676  0.00  0.00    +0.000 A 
ATOM      8  N   UNL     1      -1.140  10.918  19.869  0.00  0.00    +0.000 NA
ATOM      9  C   UNL     1       0.094  10.868  19.260  0.00  0.00    +0.000 A 
ATOM     10  N   UNL     1       0.471  12.028  18.698  0.00  0.00    +0.000 NA
ATOM     11  N   UNL     1      -0.584  12.811  18.947  0.00  0.00    +0.000 N 
ATOM     12  H   UNL     1      -0.587  13.761  18.597  0.00  0.00    +0.000 HD
BRANCH   7  14
ATOM     13  C   UNL     1      -2.494  13.851  21.223  0.00  0.00    +0.000 C 
ATOM     14  C   UNL     1      -2.777  12.811  20.154  0.00  0.00    +0.000 C 
ENDBRANCH   7  14
ENDBRANCH   1   9
BRANCH   4  15
ATOM     15  C   UNL     1       3.244   6.039  18.989  0.00  0.00    +0.000 C 
ATOM     16  O   UNL     1       4.159   5.824  19.753  0.00  0.00    +0.000 OA
ATOM     17  N   UNL     1       2.860   5.167  17.987  0.00  0.00    +0.000 N 
ATOM     18  H   UNL     1       1.875   5.184  17.750  0.00  0.00    +0.000 HD
BRANCH  17  19
ATOM     19  C   UNL     1       3.528   3.837  17.771  0.00  0.00    +0.000 C 
ATOM     20  C   UNL     1       2.670   2.589  17.370  0.00  0.00    +0.000 C 
ATOM     21  O   UNL     1       3.226   1.809  18.470  0.00  0.00    +0.000 OA
ATOM     22  C   UNL     1       3.598   3.042  19.130  0.00  0.00    +0.000 C 
BRANCH  19  23
ATOM     23  C   UNL     1       4.888   4.049  16.960  0.00  0.00    +0.000 A 
ATOM     24  C   UNL     1       4.872   4.169  15.555  0.00  0.00    +0.000 A 
ATOM     25  C   UNL     1       5.990   4.603  14.851  0.00  0.00    +0.000 A 
ATOM     26  C   UNL     1       7.177   4.864  15.524  0.00  0.00    +0.000 A 
ATOM     27  C   UNL     1       7.260   4.634  16.893  0.00  0.00    +0.000 A 
ATOM     28  C   UNL     1       6.135   4.202  17.596  0.00  0.00    +0.000 A 
ENDBRANCH  19  23
ENDBRANCH  17  19
ENDBRANCH   4  15
TORSDOF 5
ENDMDL
MODEL 4
REMARK VINA RESULT:      -7.9      1.631      2.084
REMARK  Name = 
REMARK  6 active torsions:
REMARK  status: ('A' for Active; 'I' for Inactive)
REMARK    1  A    between atoms: C_1  and  C_2
REMARK    2  A    between atoms: C_2  and  C_3
REMARK    3  A    between atoms: C_5  and  C_6
REMARK    4  A    between atoms: C_9  and  C_10
REMARK    5  A    between atoms: N_12  and  C_13
REMARK    6  A    between atoms: C_13  and  C_14
REMARK                            x       y       z     vdW  Elec       q    Type
REMARK                         _______ _______ _______ _____ _____    ______ ____
ROOT
ATOM      1  C   UNL     1       0.729   9.888  20.176  0.00  0.00    +0.000 A 
ATOM      2  C   UNL     1       1.098   8.774  20.942  0.00  0.00    +0.000 A 
ATOM      3  C   UNL     1       1.790   7.703  20.359  0.00  0.00    +0.000 A 
ATOM      4  C   UNL     1       2.120   7.739  18.995  0.00  0.00    +0.000 A 
ATOM      5  C   UNL     1       1.754   8.855  18.232  0.00  0.00    +0.000 A 
ATOM      6  C   UNL     1       1.073   9.925  18.819  0.00  0.00    +0.000 A 
ENDROOT
BRANCH   1   9
ATOM      7  C   UNL     1      -1.473  12.500  21.014  0.00  0.00    +0.000 A 
ATOM      8  N   UNL     1      -1.115  11.549  20.178  0.00  0.00    +0.000 NA
ATOM      9  C   UNL     1      -0.009  10.988  20.776  0.00  0.00    +0.000 A 
ATOM     10  N   UNL     1       0.326  11.559  21.945  0.00  0.00    +0.000 NA
ATOM     11  N   UNL     1      -0.591  12.526  22.053  0.00  0.00    +0.000 N 
ATOM     12  H   UNL     1      -0.556  13.152  22.848  0.00  0.00    +0.000 HD
BRANCH   7  14
ATOM     13  C   UNL     1      -3.821  12.756  20.236  0.00  0.00    +0.000 C 
ATOM     14  C   UNL     1      -2.636  13.416  20.918  0.00  0.00    +0.000 C 
ENDBRANCH   7  14
ENDBRANCH   1   9
BRANCH   4  15
ATOM     15  C   UNL     1       2.860   6.642  18.288  0.00  0.00    +0.000 C 
ATOM     16  O   UNL     1       3.528   6.887  17.307  0.00  0.00    +0.000 OA
ATOM     17  N   UNL     1       2.761   5.384  18.854  0.00  0.00    +0.000 N 
ATOM     18  H   UNL     1       2.611   5.369  19.856  0.00  0.00    +0.000 HD
BRANCH  17  19
ATOM     19  C   UNL     1       3.510   4.195  18.321  0.00  0.00    +0.000 C 
ATOM     20  C   UNL     1       2.953   3.412  17.084  0.00  0.00    +0.000 C 
ATOM     21  O   UNL     1       3.025   2.147  17.807  0.00  0.00    +0.000 OA
ATOM     22  C   UNL     1       3.034   2.883  19.052  0.00  0.00    +0.000 C 
BRANCH  19  23
ATOM     23  C   UNL     1       5.076   4.514  18.307  0.00  0.00    +0.000 A 
ATOM     24  C   UNL     1       5.842   4.290  17.144  0.00  0.00    +0.000 A 
ATOM     25  C   UNL     1       7.134   4.788  17.019  0.00  0.00    +0.000 A 
ATOM     26  C   UNL     1       7.723   5.466  18.079  0.00  0.00    +0.000 A 
ATOM     27  C   UNL     1       7.039   5.593  19.284  0.00  0.00    +0.000 A 
ATOM     28  C   UNL     1       5.741   5.095  19.404  0.00  0.00    +0.000 A 
ENDBRANCH  19  23
ENDBRANCH  17  19
ENDBRANCH   4  15
TORSDOF 5
ENDMDL
MODEL 5
REMARK VINA RESULT:      -7.9      1.748      2.368
REMARK  Name = 
REMARK  6 active torsions:
REMARK  status: ('A' for Active; 'I' for Inactive)
REMARK    1  A    between atoms: C_1  and  C_2
REMARK    2  A    between atoms: C_2  and  C_3
REMARK    3  A    between atoms: C_5  and  C_6
REMARK    4  A    between atoms: C_9  and  C_10
REMARK    5  A    between atoms: N_12  and  C_13
REMARK    6  A    between atoms: C_13  and  C_14
REMARK                            x       y       z     vdW  Elec       q    Type
REMARK                         _______ _______ _______ _____ _____    ______ ____
ROOT
ATOM      1  C   UNL     1       0.837   9.939  20.019  0.00  0.00    +0.000 A 
ATOM      2  C   UNL     1       1.151  10.043  18.658  0.00  0.00    +0.000 A 
ATOM      3  C   UNL     1       1.836   9.010  18.001  0.00  0.00    +0.000 A 
ATOM      4  C   UNL     1       2.215   7.858  18.708  0.00  0.00    +0.000 A 
ATOM      5  C   UNL     1       1.896   7.755  20.068  0.00  0.00    +0.000 A 
ATOM      6  C   UNL     1       1.204   8.782  20.716  0.00  0.00    +0.000 A 
ENDROOT
BRANCH   1   9
ATOM      7  C   UNL     1      -1.414  12.337  21.267  0.00  0.00    +0.000 A 
ATOM      8  N   UNL     1      -1.182  11.305  20.484  0.00  0.00    +0.000 NA
ATOM      9  C   UNL     1       0.147  11.021  20.704  0.00  0.00    +0.000 A 
ATOM     10  N   UNL     1       0.739  11.839  21.589  0.00  0.00    +0.000 NA
ATOM     11  N   UNL     1      -0.255  12.676  21.902  0.00  0.00    +0.000 N 
ATOM     12  H   UNL     1      -0.076  13.438  22.543  0.00  0.00    +0.000 HD
BRANCH   7  14
ATOM     13  C   UNL     1      -3.165  12.940  22.928  0.00  0.00    +0.000 C 
ATOM     14  C   UNL     1      -2.695  13.052  21.488  0.00  0.00    +0.000 C 
ENDBRANCH   7  14
ENDBRANCH   1   9
BRANCH   4  15
ATOM     15  C   UNL     1       2.946   6.704  18.089  0.00  0.00    +0.000 C 
ATOM     16  O   UNL     1       3.662   6.877  17.127  0.00  0.00    +0.000 OA
ATOM     17  N   UNL     1       2.783   5.481  18.713  0.00  0.00    +0.000 N 
ATOM     18  H   UNL     1       2.592   5.522  19.707  0.00  0.00    +0.000 HD
BRANCH  17  19
ATOM     19  C   UNL     1       3.514   4.243  18.272  0.00  0.00    +0.000 C 
ATOM     20  C   UNL     1       2.969   3.402  17.068  0.00  0.00    +0.000 C 
ATOM     21  O   UNL     1       2.987   2.181  17.867  0.00  0.00    +0.000 OA
ATOM     22  C   UNL     1       2.982   2.990  19.066  0.00  0.00    +0.000 C 
BRANCH  19  23
ATOM     23  C   UNL     1       5.088   4.521  18.285  0.00  0.00    +0.000 A 
ATOM     24  C   UNL     1       5.872   4.244  17.146  0.00  0.00    +0.000 A 
ATOM     25  C   UNL     1       7.179   4.704  17.035  0.00  0.00    +0.000 A 
ATOM     26  C   UNL     1       7.763   5.397  18.089  0.00  0.00    +0.000 A 
ATOM     27  C   UNL     1       7.057   5.576  19.274  0.00  0.00    +0.000 A 
ATOM     28  C   UNL     1       5.744   5.115  19.379  0.00  0.00    +0.000 A 
ENDBRANCH  19  23
ENDBRANCH  17  19
ENDBRANCH   4  15
TORSDOF 5
ENDMDL
MODEL 6
REMARK VINA RESULT:      -7.9      0.408      1.032
REMARK  Name = 
REMARK  6 active torsions:
REMARK  status: ('A' for Active; 'I' for Inactive)
REMARK    1  A    between atoms: C_1  and  C_2
REMARK    2  A    between atoms: C_2  and  C_3
REMARK    3  A    between atoms: C_5  and  C_6
REMARK    4  A    between atoms: C_9  and  C_10
REMARK    5  A    between atoms: N_12  and  C_13
REMARK    6  A    between atoms: C_13  and  C_14
REMARK                            x       y       z     vdW  Elec       q    Type
REMARK                         _______ _______ _______ _____ _____    ______ ____
ROOT
ATOM      1  C   UNL     1       0.794  10.078  18.959  0.00  0.00    +0.000 A 
ATOM      2  C   UNL     1       1.398   9.614  17.783  0.00  0.00    +0.000 A 
ATOM      3  C   UNL     1       2.102   8.400  17.772  0.00  0.00    +0.000 A 
ATOM      4  C   UNL     1       2.207   7.638  18.946  0.00  0.00    +0.000 A 
ATOM      5  C   UNL     1       1.599   8.102  20.119  0.00  0.00    +0.000 A 
ATOM      6  C   UNL     1       0.890   9.307  20.124  0.00  0.00    +0.000 A 
ENDROOT
BRANCH   1   9
ATOM      7  C   UNL     1      -0.240  13.439  19.013  0.00  0.00    +0.000 A 
ATOM      8  N   UNL     1       0.737  12.559  18.984  0.00  0.00    +0.000 NA
ATOM      9  C   UNL     1       0.083  11.347  18.976  0.00  0.00    +0.000 A 
ATOM     10  N   UNL     1      -1.255  11.450  19.001  0.00  0.00    +0.000 NA
ATOM     11  N   UNL     1      -1.430  12.774  19.056  0.00  0.00    +0.000 N 
ATOM     12  H   UNL     1      -2.369  13.146  19.119  0.00  0.00    +0.000 HD
BRANCH   7  14
ATOM     13  C   UNL     1       1.296  15.389  18.860  0.00  0.00    +0.000 C 
ATOM     14  C   UNL     1      -0.143  14.919  18.986  0.00  0.00    +0.000 C 
ENDBRANCH   7  14
ENDBRANCH   1   9
BRANCH   4  15
ATOM     15  C   UNL     1       2.937   6.330  19.027  0.00  0.00    +0.000 C 
ATOM     16  O   UNL     1       3.623   6.070  19.990  0.00  0.00    +0.000 OA
ATOM     17  N   UNL     1       2.731   5.458  17.974  0.00  0.00    +0.000 N 
ATOM     18  H   UNL     1       1.836   5.543  17.508  0.00  0.00    +0.000 HD
BRANCH  17  19
ATOM     19  C   UNL     1       3.318   4.074  17.942  0.00  0.00    +0.000 C 
ATOM     20  C   UNL     1       2.438   2.863  17.479  0.00  0.00    +0.000 C 
ATOM     21  O   UNL     1       2.753   2.123  18.695  0.00  0.00    +0.000 OA
ATOM     22  C   UNL     1       3.113   3.368  19.336  0.00  0.00    +0.000 C 
BRANCH  19  23
ATOM     23  C   UNL     1       4.801   4.137  17.349  0.00  0.00    +0.000 A 
ATOM     24  C   UNL     1       5.019   4.048  15.959  0.00  0.00    +0.000 A 
ATOM     25  C   UNL     1       6.255   4.351  15.397  0.00  0.00    +0.000 A 
ATOM     26  C   UNL     1       7.326   4.685  16.216  0.00  0.00    +0.000 A 
ATOM     27  C   UNL     1       7.175   4.658  17.599  0.00  0.00    +0.000 A 
ATOM     28  C   UNL     1       5.932   4.358  18.157  0.00  0.00    +0.000 A 
ENDBRANCH  19  23
ENDBRANCH  17  19
ENDBRANCH   4  15
TORSDOF 5
ENDMDL
MODEL 7
REMARK VINA RESULT:      -7.9      1.714      3.294
REMARK  Name = 
REMARK  6 active torsions:
REMARK  status: ('A' for Active; 'I' for Inactive)
REMARK    1  A    between atoms: C_1  and  C_2
REMARK    2  A    between atoms: C_2  and  C_3
REMARK    3  A    between atoms: C_5  and  C_6
REMARK    4  A    between atoms: C_9  and  C_10
REMARK    5  A    between atoms: N_12  and  C_13
REMARK    6  A    between atoms: C_13  and  C_14
REMARK                            x       y       z     vdW  Elec       q    Type
REMARK                         _______ _______ _______ _____ _____    ______ ____
ROOT
ATOM      1  C   UNL     1       0.228  10.077  19.208  0.00  0.00    +0.000 A 
ATOM      2  C   UNL     1       0.785   9.767  17.960  0.00  0.00    +0.000 A 
ATOM      3  C   UNL     1       1.714   8.724  17.831  0.00  0.00    +0.000 A 
ATOM      4  C   UNL     1       2.094   7.979  18.958  0.00  0.00    +0.000 A 
ATOM      5  C   UNL     1       1.533   8.288  20.203  0.00  0.00    +0.000 A 
ATOM      6  C   UNL     1       0.600   9.321  20.326  0.00  0.00    +0.000 A 
ENDROOT
BRANCH   1   9
ATOM      7  C   UNL     1      -2.097  12.503  20.246  0.00  0.00    +0.000 A 
ATOM      8  N   UNL     1      -1.322  11.483  20.542  0.00  0.00    +0.000 NA
ATOM      9  C   UNL     1      -0.717  11.174  19.345  0.00  0.00    +0.000 A 
ATOM     10  N   UNL     1      -1.094  11.963  18.325  0.00  0.00    +0.000 NA
ATOM     11  N   UNL     1      -1.985  12.768  18.913  0.00  0.00    +0.000 N 
ATOM     12  H   UNL     1      -2.466  13.462  18.355  0.00  0.00    +0.000 HD
BRANCH   7  14
ATOM     13  C   UNL     1      -4.424  12.905  21.028  0.00  0.00    +0.000 C 
ATOM     14  C   UNL     1      -2.961  13.294  21.157  0.00  0.00    +0.000 C 
ENDBRANCH   7  14
ENDBRANCH   1   9
BRANCH   4  15
ATOM     15  C   UNL     1       3.077   6.846  18.914  0.00  0.00    +0.000 C 
ATOM     16  O   UNL     1       3.277   6.171  19.900  0.00  0.00    +0.000 OA
ATOM     17  N   UNL     1       3.676   6.613  17.691  0.00  0.00    +0.000 N 
ATOM     18  H   UNL     1       3.127   6.876  16.881  0.00  0.00    +0.000 HD
BRANCH  17  19
ATOM     19  C   UNL     1       4.617   5.464  17.455  0.00  0.00    +0.000 C 
ATOM     20  C   UNL     1       6.125   5.595  17.858  0.00  0.00    +0.000 C 
ATOM     21  O   UNL     1       6.553   5.200  16.521  0.00  0.00    +0.000 OA
ATOM     22  C   UNL     1       5.249   5.569  16.016  0.00  0.00    +0.000 C 
BRANCH  19  23
ATOM     23  C   UNL     1       3.896   4.095  17.854  0.00  0.00    +0.000 A 
ATOM     24  C   UNL     1       4.506   3.202  18.759  0.00  0.00    +0.000 A 
ATOM     25  C   UNL     1       3.803   2.140  19.317  0.00  0.00    +0.000 A 
ATOM     26  C   UNL     1       2.490   1.898  18.933  0.00  0.00    +0.000 A 
ATOM     27  C   UNL     1       1.902   2.685  17.948  0.00  0.00    +0.000 A 
ATOM     28  C   UNL     1       2.610   3.753  17.394  0.00  0.00    +0.000 A 
ENDBRANCH  19  23
ENDBRANCH  17  19
ENDBRANCH   4  15
TORSDOF 5
ENDMDL
MODEL 8
REMARK VINA RESULT:      -7.8      2.673      9.002
REMARK  Name = 
REMARK  6 active torsions:
REMARK  status: ('A' for Active; 'I' for Inactive)
REMARK    1  A    between atoms: C_1  and  C_2
REMARK    2  A    between atoms: C_2  and  C_3
REMARK    3  A    between atoms: C_5  and  C_6
REMARK    4  A    between atoms: C_9  and  C_10
REMARK    5  A    between atoms: N_12  and  C_13
REMARK    6  A    between atoms: C_13  and  C_14
REMARK                            x       y       z     vdW  Elec       q    Type
REMARK                         _______ _______ _______ _____ _____    ______ ____
ROOT
ATOM      1  C   UNL     1       4.120   6.062  17.725  0.00  0.00    +0.000 A 
ATOM      2  C   UNL     1       3.569   5.574  18.917  0.00  0.00    +0.000 A 
ATOM      3  C   UNL     1       2.665   6.349  19.658  0.00  0.00    +0.000 A 
ATOM      4  C   UNL     1       2.304   7.629  19.208  0.00  0.00    +0.000 A 
ATOM      5  C   UNL     1       2.853   8.113  18.013  0.00  0.00    +0.000 A 
ATOM      6  C   UNL     1       3.745   7.333  17.273  0.00  0.00    +0.000 A 
ENDROOT
BRANCH   1   9
ATOM      7  C   UNL     1       6.155   4.507  15.314  0.00  0.00    +0.000 A 
ATOM      8  N   UNL     1       5.226   5.392  15.607  0.00  0.00    +0.000 NA
ATOM      9  C   UNL     1       5.075   5.266  16.969  0.00  0.00    +0.000 A 
ATOM     10  N   UNL     1       5.872   4.338  17.523  0.00  0.00    +0.000 NA
ATOM     11  N   UNL     1       6.516   3.855  16.456  0.00  0.00    +0.000 N 
ATOM     12  H   UNL     1       7.176   3.098  16.579  0.00  0.00    +0.000 HD
BRANCH   7  14
ATOM     13  C   UNL     1       5.760   3.644  13.015  0.00  0.00    +0.000 C 
ATOM     14  C   UNL     1       6.767   4.224  13.993  0.00  0.00    +0.000 C 
ENDBRANCH   7  14
ENDBRANCH   1   9
BRANCH   4  15
ATOM     15  C   UNL     1       1.345   8.526  19.932  0.00  0.00    +0.000 C 
ATOM     16  O   UNL     1       0.825   8.163  20.964  0.00  0.00    +0.000 OA
ATOM     17  N   UNL     1       1.147   9.775  19.372  0.00  0.00    +0.000 N 
ATOM     18  H   UNL     1       1.928  10.143  18.843  0.00  0.00    +0.000 HD
BRANCH  17  19
ATOM     19  C   UNL     1       0.285  10.825  20.018  0.00  0.00    +0.000 C 
ATOM     20  C   UNL     1       0.936  12.142  20.560  0.00  0.00    +0.000 C 
ATOM     21  O   UNL     1       0.321  11.949  21.869  0.00  0.00    +0.000 OA
ATOM     22  C   UNL     1       0.160  10.544  21.563  0.00  0.00    +0.000 C 
BRANCH  19  23
ATOM     23  C   UNL     1      -1.065  10.996  19.180  0.00  0.00    +0.000 A 
ATOM     24  C   UNL     1      -1.337  10.154  18.082  0.00  0.00    +0.000 A 
ATOM     25  C   UNL     1      -2.598  10.108  17.497  0.00  0.00    +0.000 A 
ATOM     26  C   UNL     1      -3.604  10.953  17.949  0.00  0.00    +0.000 A 
ATOM     27  C   UNL     1      -3.330  11.883  18.946  0.00  0.00    +0.000 A 
ATOM     28  C   UNL     1      -2.064  11.923  19.533  0.00  0.00    +0.000 A 
ENDBRANCH  19  23
ENDBRANCH  17  19
ENDBRANCH   4  15
TORSDOF 5
ENDMDL
MODEL 9
REMARK VINA RESULT:      -7.8      1.637      1.881
REMARK  Name = 
REMARK  6 active torsions:
REMARK  status: ('A' for Active; 'I' for Inactive)
REMARK    1  A    between atoms: C_1  and  C_2
REMARK    2  A    between atoms: C_2  and  C_3
REMARK    3  A    between atoms: C_5  and  C_6
REMARK    4  A    between atoms: C_9  and  C_10
REMARK    5  A    between atoms: N_12  and  C_13
REMARK    6  A    between atoms: C_13  and  C_14
REMARK                            x       y       z     vdW  Elec       q    Type
REMARK                         _______ _______ _______ _____ _____    ______ ____
ROOT
ATOM      1  C   UNL     1       0.774  10.017  19.907  0.00  0.00    +0.000 A 
ATOM      2  C   UNL     1       1.081   8.913  20.712  0.00  0.00    +0.000 A 
ATOM      3  C   UNL     1       1.770   7.811  20.183  0.00  0.00    +0.000 A 
ATOM      4  C   UNL     1       2.160   7.809  18.834  0.00  0.00    +0.000 A 
ATOM      5  C   UNL     1       1.857   8.916  18.033  0.00  0.00    +0.000 A 
ATOM      6  C   UNL     1       1.178  10.015  18.566  0.00  0.00    +0.000 A 
ENDROOT
BRANCH   1   9
ATOM      7  C   UNL     1      -0.636  12.590  21.846  0.00  0.00    +0.000 A 
ATOM      8  N   UNL     1       0.198  11.578  21.749  0.00  0.00    +0.000 NA
ATOM      9  C   UNL     1       0.039  11.149  20.450  0.00  0.00    +0.000 A 
ATOM     10  N   UNL     1      -0.861  11.857  19.749  0.00  0.00    +0.000 NA
ATOM     11  N   UNL     1      -1.293  12.735  20.660  0.00  0.00    +0.000 N 
ATOM     12  H   UNL     1      -2.021  13.391  20.407  0.00  0.00    +0.000 HD
BRANCH   7  14
ATOM     13  C   UNL     1      -1.731  14.675  22.647  0.00  0.00    +0.000 C 
ATOM     14  C   UNL     1      -0.864  13.482  23.010  0.00  0.00    +0.000 C 
ENDBRANCH   7  14
ENDBRANCH   1   9
BRANCH   4  15
ATOM     15  C   UNL     1       2.902   6.678  18.184  0.00  0.00    +0.000 C 
ATOM     16  O   UNL     1       3.607   6.882  17.220  0.00  0.00    +0.000 OA
ATOM     17  N   UNL     1       2.760   5.440  18.782  0.00  0.00    +0.000 N 
ATOM     18  H   UNL     1       2.577   5.457  19.778  0.00  0.00    +0.000 HD
BRANCH  17  19
ATOM     19  C   UNL     1       3.504   4.222  18.309  0.00  0.00    +0.000 C 
ATOM     20  C   UNL     1       2.958   3.397  17.094  0.00  0.00    +0.000 C 
ATOM     21  O   UNL     1       3.002   2.161  17.867  0.00  0.00    +0.000 OA
ATOM     22  C   UNL     1       3.000   2.946  19.083  0.00  0.00    +0.000 C 
BRANCH  19  23
ATOM     23  C   UNL     1       5.074   4.522  18.309  0.00  0.00    +0.000 A 
ATOM     24  C   UNL     1       5.853   4.258  17.164  0.00  0.00    +0.000 A 
ATOM     25  C   UNL     1       7.153   4.738  17.044  0.00  0.00    +0.000 A 
ATOM     26  C   UNL     1       7.735   5.438  18.094  0.00  0.00    +0.000 A 
ATOM     27  C   UNL     1       7.035   5.605  19.285  0.00  0.00    +0.000 A 
ATOM     28  C   UNL     1       5.730   5.125  19.399  0.00  0.00    +0.000 A 
ENDBRANCH  19  23
ENDBRANCH  17  19
ENDBRANCH   4  15
TORSDOF 5
ENDMDL
