MODEL 1
REMARK VINA RESULT:      -7.7      0.000      0.000
REMARK  Name = 
REMARK  1 active torsions:
REMARK  status: ('A' for Active; 'I' for Inactive)
REMARK    1  A    between atoms: C_2  and  C_3
REMARK                            x       y       z     vdW  Elec       q    Type
REMARK                         _______ _______ _______ _____ _____    ______ ____
ROOT
ATOM      1  C   UNL     1       0.583   9.747  19.768  0.00  0.00    +0.000 A 
ATOM      2  C   UNL     1       0.858  10.298  21.020  0.00  0.00    +0.000 A 
ATOM      3  N   UNL     1       0.120  11.280  21.604  0.00  0.00    +0.000 NA
ATOM      4  C   UNL     1      -0.914  11.758  20.887  0.00  0.00    +0.000 A 
ATOM      5  N   UNL     1      -1.521  12.913  21.352  0.00  0.00    +0.000 N 
ATOM      6  C   UNL     1      -2.457  13.600  20.646  0.00  0.00    +0.000 A 
ATOM      7  O   UNL     1      -2.874  14.694  21.014  0.00  0.00    +0.000 OA
ATOM      8  N   UNL     1      -2.905  13.016  19.495  0.00  0.00    +0.000 N 
ATOM      9  C   UNL     1      -2.413  11.858  18.948  0.00  0.00    +0.000 A 
ATOM     10  O   UNL     1      -2.847  11.375  17.910  0.00  0.00    +0.000 OA
ATOM     11  C   UNL     1      -1.303  11.225  19.670  0.00  0.00    +0.000 A 
ATOM     12  C   UNL     1      -0.551  10.201  19.098  0.00  0.00    +0.000 A 
ATOM     13  H   UNL     1      -1.146  13.332  22.191  0.00  0.00    +0.000 HD
ATOM     14  H   UNL     1      -3.603  13.517  18.970  0.00  0.00    +0.000 HD
ENDROOT
BRANCH   1  16
ATOM     15  O   UNL     1       2.224   9.511  18.160  0.00  0.00    +0.000 OA
ATOM     16  C   UNL     1       1.652   8.966  19.104  0.00  0.00    +0.000 C 
ATOM     17  N   UNL     1       1.915   7.654  19.462  0.00  0.00    +0.000 N 
ATOM     18  C   UNL     1       1.612   7.025  20.763  0.00  0.00    +0.000 C 
ATOM     19  C   UNL     1       2.484   5.785  21.029  0.00  0.00    +0.000 C 
ATOM     20  C   UNL     1       2.176   4.820  19.903  0.00  0.00    +0.000 A 
ATOM     21  C   UNL     1       1.724   3.510  20.068  0.00  0.00    +0.000 A 
ATOM     22 BR   UNL     1       1.687   2.647  21.756  0.00  0.00    +0.000 Br
ATOM     23  C   UNL     1       1.221   2.807  18.968  0.00  0.00    +0.000 A 
ATOM     24  C   UNL     1       1.190   3.396  17.702  0.00  0.00    +0.000 A 
ATOM     25  C   UNL     1       1.696   4.680  17.513  0.00  0.00    +0.000 A 
ATOM     26  C   UNL     1       2.190   5.392  18.607  0.00  0.00    +0.000 A 
ATOM     27  C   UNL     1       2.631   6.832  18.483  0.00  0.00    +0.000 C 
ENDBRANCH   1  16
TORSDOF 1
ENDMDL
MODEL 2
REMARK VINA RESULT:      -7.7      2.077      2.686
REMARK  Name = 
REMARK  1 active torsions:
REMARK  status: ('A' for Active; 'I' for Inactive)
REMARK    1  A    between atoms: C_2  and  C_3
REMARK                            x       y       z     vdW  Elec       q    Type
REMARK                         _______ _______ _______ _____ _____    ______ ____
ROOT
ATOM      1  C   UNL     1      -0.402  10.046  18.363  0.00  0.00    +0.000 A 
ATOM      2  C   UNL     1      -0.855  10.901  19.368  0.00  0.00    +0.000 A 
ATOM      3  N   UNL     1      -2.078  11.496  19.376  0.00  0.00    +0.000 NA
ATOM      4  C   UNL     1      -2.866  11.255  18.311  0.00  0.00    +0.000 A 
ATOM      5  N   UNL     1      -4.003  12.037  18.182  0.00  0.00    +0.000 N 
ATOM      6  C   UNL     1      -4.794  12.024  17.077  0.00  0.00    +0.000 A 
ATOM      7  O   UNL     1      -5.710  12.827  16.926  0.00  0.00    +0.000 OA
ATOM      8  N   UNL     1      -4.512  11.078  16.133  0.00  0.00    +0.000 N 
ATOM      9  C   UNL     1      -3.440  10.221  16.163  0.00  0.00    +0.000 A 
ATOM     10  O   UNL     1      -3.229   9.390  15.289  0.00  0.00    +0.000 OA
ATOM     11  C   UNL     1      -2.529  10.367  17.304  0.00  0.00    +0.000 A 
ATOM     12  C   UNL     1      -1.283   9.746  17.326  0.00  0.00    +0.000 A 
ATOM     13  H   UNL     1      -4.165  12.745  18.883  0.00  0.00    +0.000 HD
ATOM     14  H   UNL     1      -5.099  11.059  15.315  0.00  0.00    +0.000 HD
ENDROOT
BRANCH   1  16
ATOM     15  O   UNL     1       1.724  10.537  17.608  0.00  0.00    +0.000 OA
ATOM     16  C   UNL     1       1.050   9.767  18.292  0.00  0.00    +0.000 C 
ATOM     17  N   UNL     1       1.597   8.636  18.877  0.00  0.00    +0.000 N 
ATOM     18  C   UNL     1       1.026   7.871  20.003  0.00  0.00    +0.000 C 
ATOM     19  C   UNL     1       2.089   7.044  20.746  0.00  0.00    +0.000 C 
ATOM     20  C   UNL     1       2.664   6.095  19.714  0.00  0.00    +0.000 A 
ATOM     21  C   UNL     1       2.698   4.705  19.831  0.00  0.00    +0.000 A 
ATOM     22 BR   UNL     1       2.270   3.805  21.444  0.00  0.00    +0.000 Br
ATOM     23  C   UNL     1       3.004   3.923  18.712  0.00  0.00    +0.000 A 
ATOM     24  C   UNL     1       3.299   4.522  17.485  0.00  0.00    +0.000 A 
ATOM     25  C   UNL     1       3.328   5.910  17.372  0.00  0.00    +0.000 A 
ATOM     26  C   UNL     1       3.014   6.698  18.481  0.00  0.00    +0.000 A 
ATOM     27  C   UNL     1       2.905   8.202  18.382  0.00  0.00    +0.000 C 
ENDBRANCH   1  16
TORSDOF 1
ENDMDL
MODEL 3
REMARK VINA RESULT:      -7.5      3.456      4.621
REMARK  Name = 
REMARK  1 active torsions:
REMARK  status: ('A' for Active; 'I' for Inactive)
REMARK    1  A    between atoms: C_2  and  C_3
REMARK                            x       y       z     vdW  Elec       q    Type
REMARK                         _______ _______ _______ _____ _____    ______ ____
ROOT
ATOM      1  C   UNL     1       1.756   6.775  20.126  0.00  0.00    +0.000 A 
ATOM      2  C   UNL     1       1.017   7.203  21.229  0.00  0.00    +0.000 A 
ATOM      3  N   UNL     1       0.507   8.455  21.371  0.00  0.00    +0.000 NA
ATOM      4  C   UNL     1       0.783   9.328  20.384  0.00  0.00    +0.000 A 
ATOM      5  N   UNL     1       0.486  10.661  20.622  0.00  0.00    +0.000 N 
ATOM      6  C   UNL     1       0.865  11.668  19.792  0.00  0.00    +0.000 A 
ATOM      7  O   UNL     1       0.717  12.849  20.095  0.00  0.00    +0.000 OA
ATOM      8  N   UNL     1       1.431  11.302  18.604  0.00  0.00    +0.000 N 
ATOM      9  C   UNL     1       1.741  10.018  18.234  0.00  0.00    +0.000 A 
ATOM     10  O   UNL     1       2.251   9.741  17.156  0.00  0.00    +0.000 OA
ATOM     11  C   UNL     1       1.446   8.974  19.222  0.00  0.00    +0.000 A 
ATOM     12  C   UNL     1       1.939   7.679  19.082  0.00  0.00    +0.000 A 
ATOM     13  H   UNL     1       0.094  10.898  21.522  0.00  0.00    +0.000 HD
ATOM     14  H   UNL     1       1.707  12.044  17.981  0.00  0.00    +0.000 HD
ENDROOT
BRANCH   1  16
ATOM     15  O   UNL     1       2.616   5.046  21.392  0.00  0.00    +0.000 OA
ATOM     16  C   UNL     1       2.547   5.530  20.263  0.00  0.00    +0.000 C 
ATOM     17  N   UNL     1       3.257   5.005  19.195  0.00  0.00    +0.000 N 
ATOM     18  C   UNL     1       2.974   5.227  17.764  0.00  0.00    +0.000 C 
ATOM     19  C   UNL     1       3.565   4.120  16.873  0.00  0.00    +0.000 C 
ATOM     20  C   UNL     1       5.060   4.154  17.117  0.00  0.00    +0.000 A 
ATOM     21  C   UNL     1       6.032   4.317  16.129  0.00  0.00    +0.000 A 
ATOM     22 BR   UNL     1       5.629   4.247  14.278  0.00  0.00    +0.000 Br
ATOM     23  C   UNL     1       7.352   4.600  16.496  0.00  0.00    +0.000 A 
ATOM     24  C   UNL     1       7.710   4.697  17.843  0.00  0.00    +0.000 A 
ATOM     25  C   UNL     1       6.761   4.475  18.838  0.00  0.00    +0.000 A 
ATOM     26  C   UNL     1       5.440   4.202  18.481  0.00  0.00    +0.000 A 
ATOM     27  C   UNL     1       4.346   4.080  19.516  0.00  0.00    +0.000 C 
ENDBRANCH   1  16
TORSDOF 1
ENDMDL
MODEL 4
REMARK VINA RESULT:      -7.4      3.807      8.472
REMARK  Name = 
REMARK  1 active torsions:
REMARK  status: ('A' for Active; 'I' for Inactive)
REMARK    1  A    between atoms: C_2  and  C_3
REMARK                            x       y       z     vdW  Elec       q    Type
REMARK                         _______ _______ _______ _____ _____    ______ ____
ROOT
ATOM      1  C   UNL     1       2.670   7.278  19.082  0.00  0.00    +0.000 A 
ATOM      2  C   UNL     1       1.834   6.574  19.949  0.00  0.00    +0.000 A 
ATOM      3  N   UNL     1       2.104   5.333  20.436  0.00  0.00    +0.000 NA
ATOM      4  C   UNL     1       3.242   4.757  20.003  0.00  0.00    +0.000 A 
ATOM      5  N   UNL     1       3.413   3.412  20.289  0.00  0.00    +0.000 N 
ATOM      6  C   UNL     1       4.423   2.663  19.773  0.00  0.00    +0.000 A 
ATOM      7  O   UNL     1       4.470   1.445  19.924  0.00  0.00    +0.000 OA
ATOM      8  N   UNL     1       5.380   3.331  19.064  0.00  0.00    +0.000 N 
ATOM      9  C   UNL     1       5.346   4.665  18.746  0.00  0.00    +0.000 A 
ATOM     10  O   UNL     1       6.230   5.219  18.105  0.00  0.00    +0.000 OA
ATOM     11  C   UNL     1       4.164   5.407  19.201  0.00  0.00    +0.000 A 
ATOM     12  C   UNL     1       3.883   6.688  18.734  0.00  0.00    +0.000 A 
ATOM     13  H   UNL     1       2.672   2.943  20.791  0.00  0.00    +0.000 HD
ATOM     14  H   UNL     1       6.135   2.783  18.685  0.00  0.00    +0.000 HD
ENDROOT
BRANCH   1  16
ATOM     15  O   UNL     1       2.407   8.543  17.167  0.00  0.00    +0.000 OA
ATOM     16  C   UNL     1       2.097   8.434  18.354  0.00  0.00    +0.000 C 
ATOM     17  N   UNL     1       1.344   9.397  19.006  0.00  0.00    +0.000 N 
ATOM     18  C   UNL     1       0.593   9.214  20.263  0.00  0.00    +0.000 C 
ATOM     19  C   UNL     1      -0.533  10.250  20.427  0.00  0.00    +0.000 C 
ATOM     20  C   UNL     1       0.152  11.602  20.424  0.00  0.00    +0.000 A 
ATOM     21  C   UNL     1       0.047  12.559  21.435  0.00  0.00    +0.000 A 
ATOM     22 BR   UNL     1      -1.203  12.413  22.853  0.00  0.00    +0.000 Br
ATOM     23  C   UNL     1       0.926  13.646  21.453  0.00  0.00    +0.000 A 
ATOM     24  C   UNL     1       1.892  13.796  20.455  0.00  0.00    +0.000 A 
ATOM     25  C   UNL     1       1.966  12.882  19.408  0.00  0.00    +0.000 A 
ATOM     26  C   UNL     1       1.099  11.788  19.387  0.00  0.00    +0.000 A 
ATOM     27  C   UNL     1       1.219  10.698  18.346  0.00  0.00    +0.000 C 
ENDBRANCH   1  16
TORSDOF 1
ENDMDL
MODEL 5
REMARK VINA RESULT:      -7.3      3.360      4.290
REMARK  Name = 
REMARK  1 active torsions:
REMARK  status: ('A' for Active; 'I' for Inactive)
REMARK    1  A    between atoms: C_2  and  C_3
REMARK                            x       y       z     vdW  Elec       q    Type
REMARK                         _______ _______ _______ _____ _____    ______ ____
ROOT
ATOM      1  C   UNL     1       1.882   8.068  19.431  0.00  0.00    +0.000 A 
ATOM      2  C   UNL     1       1.858   8.322  18.060  0.00  0.00    +0.000 A 
ATOM      3  N   UNL     1       1.095   9.281  17.471  0.00  0.00    +0.000 NA
ATOM      4  C   UNL     1       0.291   9.989  18.287  0.00  0.00    +0.000 A 
ATOM      5  N   UNL     1      -0.665  10.792  17.685  0.00  0.00    +0.000 N 
ATOM      6  C   UNL     1      -1.648  11.426  18.377  0.00  0.00    +0.000 A 
ATOM      7  O   UNL     1      -2.565  12.012  17.809  0.00  0.00    +0.000 OA
ATOM      8  N   UNL     1      -1.573  11.368  19.739  0.00  0.00    +0.000 N 
ATOM      9  C   UNL     1      -0.656  10.640  20.454  0.00  0.00    +0.000 A 
ATOM     10  O   UNL     1      -0.630  10.619  21.678  0.00  0.00    +0.000 OA
ATOM     11  C   UNL     1       0.301   9.855  19.664  0.00  0.00    +0.000 A 
ATOM     12  C   UNL     1       1.109   8.886  20.253  0.00  0.00    +0.000 A 
ATOM     13  H   UNL     1      -0.709  10.789  16.676  0.00  0.00    +0.000 HD
ATOM     14  H   UNL     1      -2.295  11.841  20.258  0.00  0.00    +0.000 HD
ENDROOT
BRANCH   1  16
ATOM     15  O   UNL     1       2.299   6.500  21.075  0.00  0.00    +0.000 OA
ATOM     16  C   UNL     1       2.463   6.785  19.888  0.00  0.00    +0.000 C 
ATOM     17  N   UNL     1       3.241   6.004  19.048  0.00  0.00    +0.000 N 
ATOM     18  C   UNL     1       3.202   6.003  17.573  0.00  0.00    +0.000 C 
ATOM     19  C   UNL     1       3.756   4.698  16.975  0.00  0.00    +0.000 C 
ATOM     20  C   UNL     1       5.190   4.605  17.456  0.00  0.00    +0.000 A 
ATOM     21  C   UNL     1       6.309   4.481  16.630  0.00  0.00    +0.000 A 
ATOM     22 BR   UNL     1       6.172   4.135  14.771  0.00  0.00    +0.000 Br
ATOM     23  C   UNL     1       7.587   4.673  17.164  0.00  0.00    +0.000 A 
ATOM     24  C   UNL     1       7.756   4.962  18.520  0.00  0.00    +0.000 A 
ATOM     25  C   UNL     1       6.651   5.026  19.365  0.00  0.00    +0.000 A 
ATOM     26  C   UNL     1       5.371   4.846  18.840  0.00  0.00    +0.000 A 
ATOM     27  C   UNL     1       4.132   5.032  19.685  0.00  0.00    +0.000 C 
ENDBRANCH   1  16
TORSDOF 1
ENDMDL
MODEL 6
REMARK VINA RESULT:      -7.2      4.727      6.558
REMARK  Name = 
REMARK  1 active torsions:
REMARK  status: ('A' for Active; 'I' for Inactive)
REMARK    1  A    between atoms: C_2  and  C_3
REMARK                            x       y       z     vdW  Elec       q    Type
REMARK                         _______ _______ _______ _____ _____    ______ ____
ROOT
ATOM      1  C   UNL     1       4.213   5.794  18.588  0.00  0.00    +0.000 A 
ATOM      2  C   UNL     1       3.605   5.302  19.743  0.00  0.00    +0.000 A 
ATOM      3  N   UNL     1       2.555   5.896  20.370  0.00  0.00    +0.000 NA
ATOM      4  C   UNL     1       2.121   7.056  19.840  0.00  0.00    +0.000 A 
ATOM      5  N   UNL     1       1.225   7.796  20.595  0.00  0.00    +0.000 N 
ATOM      6  C   UNL     1       0.838   9.056  20.267  0.00  0.00    +0.000 A 
ATOM      7  O   UNL     1       0.158   9.743  21.024  0.00  0.00    +0.000 OA
ATOM      8  N   UNL     1       1.253   9.528  19.055  0.00  0.00    +0.000 N 
ATOM      9  C   UNL     1       2.108   8.879  18.200  0.00  0.00    +0.000 A 
ATOM     10  O   UNL     1       2.452   9.346  17.122  0.00  0.00    +0.000 OA
ATOM     11  C   UNL     1       2.616   7.581  18.659  0.00  0.00    +0.000 A 
ATOM     12  C   UNL     1       3.675   6.944  18.016  0.00  0.00    +0.000 A 
ATOM     13  H   UNL     1       0.963   7.429  21.499  0.00  0.00    +0.000 HD
ATOM     14  H   UNL     1       0.963  10.459  18.802  0.00  0.00    +0.000 HD
ENDROOT
BRANCH   1  16
ATOM     15  O   UNL     1       6.459   5.481  19.027  0.00  0.00    +0.000 OA
ATOM     16  C   UNL     1       5.548   5.264  18.228  0.00  0.00    +0.000 C 
ATOM     17  N   UNL     1       5.776   4.652  17.006  0.00  0.00    +0.000 N 
ATOM     18  C   UNL     1       4.764   3.995  16.156  0.00  0.00    +0.000 C 
ATOM     19  C   UNL     1       5.388   2.978  15.184  0.00  0.00    +0.000 C 
ATOM     20  C   UNL     1       6.350   3.773  14.324  0.00  0.00    +0.000 A 
ATOM     21  C   UNL     1       6.321   3.834  12.930  0.00  0.00    +0.000 A 
ATOM     22 BR   UNL     1       5.223   2.698  11.881  0.00  0.00    +0.000 Br
ATOM     23  C   UNL     1       7.080   4.801  12.263  0.00  0.00    +0.000 A 
ATOM     24  C   UNL     1       7.887   5.689  12.978  0.00  0.00    +0.000 A 
ATOM     25  C   UNL     1       7.972   5.597  14.365  0.00  0.00    +0.000 A 
ATOM     26  C   UNL     1       7.210   4.642  15.040  0.00  0.00    +0.000 A 
ATOM     27  C   UNL     1       7.166   4.583  16.549  0.00  0.00    +0.000 C 
ENDBRANCH   1  16
TORSDOF 1
ENDMDL
MODEL 7
REMARK VINA RESULT:      -7.2      2.177      3.319
REMARK  Name = 
REMARK  1 active torsions:
REMARK  status: ('A' for Active; 'I' for Inactive)
REMARK    1  A    between atoms: C_2  and  C_3
REMARK                            x       y       z     vdW  Elec       q    Type
REMARK                         _______ _______ _______ _____ _____    ______ ____
ROOT
ATOM      1  C   UNL     1      -1.471  11.205  19.091  0.00  0.00    +0.000 A 
ATOM      2  C   UNL     1      -2.081  11.925  20.119  0.00  0.00    +0.000 A 
ATOM      3  N   UNL     1      -3.371  12.354  20.094  0.00  0.00    +0.000 NA
ATOM      4  C   UNL     1      -4.068  12.085  18.974  0.00  0.00    +0.000 A 
ATOM      5  N   UNL     1      -5.291  12.720  18.827  0.00  0.00    +0.000 N 
ATOM      6  C   UNL     1      -6.020  12.678  17.681  0.00  0.00    +0.000 A 
ATOM      7  O   UNL     1      -7.026  13.363  17.527  0.00  0.00    +0.000 OA
ATOM      8  N   UNL     1      -5.569  11.841  16.700  0.00  0.00    +0.000 N 
ATOM      9  C   UNL     1      -4.396  11.131  16.738  0.00  0.00    +0.000 A 
ATOM     10  O   UNL     1      -4.034  10.394  15.830  0.00  0.00    +0.000 OA
ATOM     11  C   UNL     1      -3.568  11.317  17.936  0.00  0.00    +0.000 A 
ATOM     12  C   UNL     1      -2.253  10.864  17.991  0.00  0.00    +0.000 A 
ATOM     13  H   UNL     1      -5.579  13.352  19.560  0.00  0.00    +0.000 HD
ATOM     14  H   UNL     1      -6.109  11.800  15.850  0.00  0.00    +0.000 HD
ENDROOT
BRANCH   1  16
ATOM     15  O   UNL     1       0.610  12.092  18.625  0.00  0.00    +0.000 OA
ATOM     16  C   UNL     1       0.008  11.122  19.087  0.00  0.00    +0.000 C 
ATOM     17  N   UNL     1       0.668   9.969  19.480  0.00  0.00    +0.000 N 
ATOM     18  C   UNL     1       0.142   8.927  20.383  0.00  0.00    +0.000 C 
ATOM     19  C   UNL     1       1.262   8.097  21.033  0.00  0.00    +0.000 C 
ATOM     20  C   UNL     1       2.016   7.456  19.885  0.00  0.00    +0.000 A 
ATOM     21  C   UNL     1       2.229   6.086  19.728  0.00  0.00    +0.000 A 
ATOM     22 BR   UNL     1       1.835   4.829  21.091  0.00  0.00    +0.000 Br
ATOM     23  C   UNL     1       2.699   5.594  18.506  0.00  0.00    +0.000 A 
ATOM     24  C   UNL     1       2.979   6.463  17.449  0.00  0.00    +0.000 A 
ATOM     25  C   UNL     1       2.828   7.838  17.614  0.00  0.00    +0.000 A 
ATOM     26  C   UNL     1       2.351   8.338  18.827  0.00  0.00    +0.000 A 
ATOM     27  C   UNL     1       2.048   9.806  19.017  0.00  0.00    +0.000 C 
ENDBRANCH   1  16
TORSDOF 1
ENDMDL
MODEL 8
REMARK VINA RESULT:      -7.1      2.169      2.668
REMARK  Name = 
REMARK  1 active torsions:
REMARK  status: ('A' for Active; 'I' for Inactive)
REMARK    1  A    between atoms: C_2  and  C_3
REMARK                            x       y       z     vdW  Elec       q    Type
REMARK                         _______ _______ _______ _____ _____    ______ ____
ROOT
ATOM      1  C   UNL     1       0.274   9.459  18.210  0.00  0.00    +0.000 A 
ATOM      2  C   UNL     1      -0.195  10.097  19.359  0.00  0.00    +0.000 A 
ATOM      3  N   UNL     1      -1.424  10.667  19.472  0.00  0.00    +0.000 NA
ATOM      4  C   UNL     1      -2.202  10.632  18.374  0.00  0.00    +0.000 A 
ATOM      5  N   UNL     1      -3.347  11.413  18.390  0.00  0.00    +0.000 N 
ATOM      6  C   UNL     1      -4.131  11.608  17.297  0.00  0.00    +0.000 A 
ATOM      7  O   UNL     1      -5.055  12.416  17.297  0.00  0.00    +0.000 OA
ATOM      8  N   UNL     1      -3.832  10.867  16.189  0.00  0.00    +0.000 N 
ATOM      9  C   UNL     1      -2.751  10.031  16.060  0.00  0.00    +0.000 A 
ATOM     10  O   UNL     1      -2.525   9.388  15.043  0.00  0.00    +0.000 OA
ATOM     11  C   UNL     1      -1.850   9.960  17.216  0.00  0.00    +0.000 A 
ATOM     12  C   UNL     1      -0.597   9.359  17.127  0.00  0.00    +0.000 A 
ATOM     13  H   UNL     1      -3.521  11.969  19.214  0.00  0.00    +0.000 HD
ATOM     14  H   UNL     1      -4.413  11.002  15.378  0.00  0.00    +0.000 HD
ENDROOT
BRANCH   1  16
ATOM     15  O   UNL     1       2.386  10.066  17.501  0.00  0.00    +0.000 OA
ATOM     16  C   UNL     1       1.730   9.213  18.099  0.00  0.00    +0.000 C 
ATOM     17  N   UNL     1       2.299   8.033  18.550  0.00  0.00    +0.000 N 
ATOM     18  C   UNL     1       1.749   7.139  19.588  0.00  0.00    +0.000 C 
ATOM     19  C   UNL     1       2.831   6.251  20.227  0.00  0.00    +0.000 C 
ATOM     20  C   UNL     1       3.412   5.432  19.092  0.00  0.00    +0.000 A 
ATOM     21  C   UNL     1       3.469   4.039  19.053  0.00  0.00    +0.000 A 
ATOM     22 BR   UNL     1       3.068   2.958  20.558  0.00  0.00    +0.000 Br
ATOM     23  C   UNL     1       3.777   3.391  17.852  0.00  0.00    +0.000 A 
ATOM     24  C   UNL     1       4.051   4.128  16.697  0.00  0.00    +0.000 A 
ATOM     25  C   UNL     1       4.058   5.520  16.739  0.00  0.00    +0.000 A 
ATOM     26  C   UNL     1       3.743   6.175  17.931  0.00  0.00    +0.000 A 
ATOM     27  C   UNL     1       3.610   7.678  18.001  0.00  0.00    +0.000 C 
ENDBRANCH   1  16
TORSDOF 1
ENDMDL
MODEL 9
REMARK VINA RESULT:      -7.0      6.283      9.355
REMARK  Name = 
REMARK  1 active torsions:
REMARK  status: ('A' for Active; 'I' for Inactive)
REMARK    1  A    between atoms: C_2  and  C_3
REMARK                            x       y       z     vdW  Elec       q    Type
REMARK                         _______ _______ _______ _____ _____    ______ ____
ROOT
ATOM      1  C   UNL     1      -2.436  12.278  20.063  0.00  0.00    +0.000 A 
ATOM      2  C   UNL     1      -1.196  11.930  19.529  0.00  0.00    +0.000 A 
ATOM      3  N   UNL     1      -1.001  11.515  18.249  0.00  0.00    +0.000 NA
ATOM      4  C   UNL     1      -2.103  11.404  17.483  0.00  0.00    +0.000 A 
ATOM      5  N   UNL     1      -1.961  10.756  16.266  0.00  0.00    +0.000 N 
ATOM      6  C   UNL     1      -3.012  10.422  15.473  0.00  0.00    +0.000 A 
ATOM      7  O   UNL     1      -2.874   9.722  14.473  0.00  0.00    +0.000 OA
ATOM      8  N   UNL     1      -4.237  10.895  15.849  0.00  0.00    +0.000 N 
ATOM      9  C   UNL     1      -4.503  11.580  17.007  0.00  0.00    +0.000 A 
ATOM     10  O   UNL     1      -5.621  11.982  17.301  0.00  0.00    +0.000 OA
ATOM     11  C   UNL     1      -3.362  11.794  17.906  0.00  0.00    +0.000 A 
ATOM     12  C   UNL     1      -3.538  12.243  19.212  0.00  0.00    +0.000 A 
ATOM     13  H   UNL     1      -1.047  10.395  16.034  0.00  0.00    +0.000 HD
ATOM     14  H   UNL     1      -5.019  10.657  15.261  0.00  0.00    +0.000 HD
ENDROOT
BRANCH   1  16
ATOM     15  O   UNL     1      -1.948  11.505  22.184  0.00  0.00    +0.000 OA
ATOM     16  C   UNL     1      -2.558  12.357  21.537  0.00  0.00    +0.000 C 
ATOM     17  N   UNL     1      -3.402  13.273  22.144  0.00  0.00    +0.000 N 
ATOM     18  C   UNL     1      -3.867  14.548  21.566  0.00  0.00    +0.000 C 
ATOM     19  C   UNL     1      -4.318  15.549  22.644  0.00  0.00    +0.000 C 
ATOM     20  C   UNL     1      -5.454  14.870  23.382  0.00  0.00    +0.000 A 
ATOM     21  C   UNL     1      -6.738  15.394  23.540  0.00  0.00    +0.000 A 
ATOM     22 BR   UNL     1      -7.175  17.181  23.080  0.00  0.00    +0.000 Br
ATOM     23  C   UNL     1      -7.770  14.571  24.002  0.00  0.00    +0.000 A 
ATOM     24  C   UNL     1      -7.523  13.236  24.329  0.00  0.00    +0.000 A 
ATOM     25  C   UNL     1      -6.233  12.719  24.234  0.00  0.00    +0.000 A 
ATOM     26  C   UNL     1      -5.198  13.530  23.765  0.00  0.00    +0.000 A 
ATOM     27  C   UNL     1      -3.810  12.985  23.521  0.00  0.00    +0.000 C 
ENDBRANCH   1  16
TORSDOF 1
ENDMDL
