MODEL 1
REMARK VINA RESULT:      -8.7      0.000      0.000
REMARK  Name = 
REMARK  6 active torsions:
REMARK  status: ('A' for Active; 'I' for Inactive)
REMARK    1  A    between atoms: C_1  and  C_2
REMARK    2  A    between atoms: C_2  and  C_3
REMARK    3  A    between atoms: C_4  and  C_5
REMARK    4  A    between atoms: N_11  and  S_12
REMARK    5  A    between atoms: S_12  and  C_15
REMARK    6  A    between atoms: C_21  and  C_22
REMARK                            x       y       z     vdW  Elec       q    Type
REMARK                         _______ _______ _______ _____ _____    ______ ____
ROOT
ATOM      1  C   UNL     1       6.023   5.087  16.942  0.00  0.00    +0.000 A 
ATOM      2  C   UNL     1       7.171   5.853  17.089  0.00  0.00    +0.000 A 
ATOM      3  N   UNL     1       7.989   6.240  16.078  0.00  0.00    +0.000 NA
ATOM      4  C   UNL     1       7.635   5.727  14.881  0.00  0.00    +0.000 A 
ATOM      5  O   UNL     1       8.317   5.951  13.729  0.00  0.00    +0.000 OA
ATOM      6  N   UNL     1       7.748   5.228  12.696  0.00  0.00    +0.000 NA
ATOM      7  C   UNL     1       6.726   4.537  13.235  0.00  0.00    +0.000 A 
ATOM      8  C   UNL     1       6.561   4.888  14.615  0.00  0.00    +0.000 A 
ATOM      9  C   UNL     1       5.692   4.579  15.681  0.00  0.00    +0.000 A 
ENDROOT
BRANCH   7  10
ATOM     10  C   UNL     1       6.001   3.538  12.449  0.00  0.00    +0.000 A 
ATOM     11  C   UNL     1       6.641   2.365  12.023  0.00  0.00    +0.000 A 
ATOM     12  C   UNL     1       5.977   1.431  11.224  0.00  0.00    +0.000 A 
ATOM     13  C   UNL     1       4.666   1.666  10.825  0.00  0.00    +0.000 A 
ATOM     14  C   UNL     1       4.016   2.831  11.227  0.00  0.00    +0.000 A 
ATOM     15  C   UNL     1       4.678   3.761  12.035  0.00  0.00    +0.000 A 
ENDBRANCH   7  10
BRANCH   1  16
ATOM     16  S   UNL     1       5.166   4.557  18.394  0.00  0.00    +0.000 S 
ATOM     17  O   UNL     1       4.937   5.748  19.179  0.00  0.00    +0.000 OA
ATOM     18  O   UNL     1       5.891   3.432  18.949  0.00  0.00    +0.000 OA
BRANCH  16  25
ATOM     19  C   UNL     1       2.388   5.850  19.050  0.00  0.00    +0.000 C 
ATOM     20  C   UNL     1       2.353   4.417  18.509  0.00  0.00    +0.000 C 
ATOM     21  C   UNL     1       1.252   4.369  17.423  0.00  0.00    +0.000 C 
ATOM     22  C   UNL     1       2.193   3.395  19.653  0.00  0.00    +0.000 C 
ATOM     23  C   UNL     1       2.863   2.107  19.146  0.00  0.00    +0.000 C 
ATOM     24  C   UNL     1       3.544   2.467  17.829  0.00  0.00    +0.000 C 
ATOM     25  N   UNL     1       3.651   3.963  17.823  0.00  0.00    +0.000 NA
BRANCH  22  26
ATOM     26  C   UNL     1       0.804   3.197  20.241  0.00  0.00    +0.000 C 
ATOM     27  F   UNL     1       0.149   4.350  20.470  0.00  0.00    +0.000 F 
ATOM     28  F   UNL     1       0.015   2.438  19.449  0.00  0.00    +0.000 F 
ATOM     29  F   UNL     1       0.892   2.558  21.433  0.00  0.00    +0.000 F 
ENDBRANCH  22  26
ENDBRANCH  16  25
ENDBRANCH   1  16
TORSDOF 4
ENDMDL
MODEL 2
REMARK VINA RESULT:      -8.4      2.231      3.280
REMARK  Name = 
REMARK  6 active torsions:
REMARK  status: ('A' for Active; 'I' for Inactive)
REMARK    1  A    between atoms: C_1  and  C_2
REMARK    2  A    between atoms: C_2  and  C_3
REMARK    3  A    between atoms: C_4  and  C_5
REMARK    4  A    between atoms: N_11  and  S_12
REMARK    5  A    between atoms: S_12  and  C_15
REMARK    6  A    between atoms: C_21  and  C_22
REMARK                            x       y       z     vdW  Elec       q    Type
REMARK                         _______ _______ _______ _____ _____    ______ ____
ROOT
ATOM      1  C   UNL     1       4.225   6.076  18.435  0.00  0.00    +0.000 A 
ATOM      2  C   UNL     1       4.918   5.689  19.573  0.00  0.00    +0.000 A 
ATOM      3  N   UNL     1       6.168   5.163  19.588  0.00  0.00    +0.000 NA
ATOM      4  C   UNL     1       6.672   4.954  18.355  0.00  0.00    +0.000 A 
ATOM      5  O   UNL     1       7.894   4.411  18.117  0.00  0.00    +0.000 OA
ATOM      6  N   UNL     1       8.086   4.259  16.756  0.00  0.00    +0.000 NA
ATOM      7  C   UNL     1       6.956   4.690  16.163  0.00  0.00    +0.000 A 
ATOM      8  C   UNL     1       6.054   5.222  17.141  0.00  0.00    +0.000 A 
ATOM      9  C   UNL     1       4.789   5.844  17.176  0.00  0.00    +0.000 A 
ENDROOT
BRANCH   7  10
ATOM     10  C   UNL     1       6.754   4.519  14.723  0.00  0.00    +0.000 A 
ATOM     11  C   UNL     1       5.730   3.691  14.241  0.00  0.00    +0.000 A 
ATOM     12  C   UNL     1       5.563   3.476  12.871  0.00  0.00    +0.000 A 
ATOM     13  C   UNL     1       6.432   4.072  11.963  0.00  0.00    +0.000 A 
ATOM     14  C   UNL     1       7.463   4.888  12.423  0.00  0.00    +0.000 A 
ATOM     15  C   UNL     1       7.624   5.113  13.794  0.00  0.00    +0.000 A 
ENDBRANCH   7  10
BRANCH   1  16
ATOM     16  S   UNL     1       2.547   6.604  18.601  0.00  0.00    +0.000 S 
ATOM     17  O   UNL     1       2.251   7.376  17.417  0.00  0.00    +0.000 OA
ATOM     18  O   UNL     1       2.395   7.183  19.921  0.00  0.00    +0.000 OA
BRANCH  16  25
ATOM     19  C   UNL     1       2.509   4.464  20.891  0.00  0.00    +0.000 C 
ATOM     20  C   UNL     1       1.970   4.005  19.532  0.00  0.00    +0.000 C 
ATOM     21  C   UNL     1       0.649   3.248  19.801  0.00  0.00    +0.000 C 
ATOM     22  C   UNL     1       3.037   3.211  18.751  0.00  0.00    +0.000 C 
ATOM     23  C   UNL     1       2.704   3.432  17.266  0.00  0.00    +0.000 C 
ATOM     24  C   UNL     1       1.594   4.478  17.226  0.00  0.00    +0.000 C 
ATOM     25  N   UNL     1       1.620   5.149  18.567  0.00  0.00    +0.000 NA
BRANCH  22  26
ATOM     26  C   UNL     1       3.268   1.758  19.138  0.00  0.00    +0.000 C 
ATOM     27  F   UNL     1       2.161   1.142  19.592  0.00  0.00    +0.000 F 
ATOM     28  F   UNL     1       3.743   1.022  18.110  0.00  0.00    +0.000 F 
ATOM     29  F   UNL     1       4.187   1.683  20.131  0.00  0.00    +0.000 F 
ENDBRANCH  22  26
ENDBRANCH  16  25
ENDBRANCH   1  16
TORSDOF 4
ENDMDL
MODEL 3
REMARK VINA RESULT:      -8.3      0.928      1.226
REMARK  Name = 
REMARK  6 active torsions:
REMARK  status: ('A' for Active; 'I' for Inactive)
REMARK    1  A    between atoms: C_1  and  C_2
REMARK    2  A    between atoms: C_2  and  C_3
REMARK    3  A    between atoms: C_4  and  C_5
REMARK    4  A    between atoms: N_11  and  S_12
REMARK    5  A    between atoms: S_12  and  C_15
REMARK    6  A    between atoms: C_21  and  C_22
REMARK                            x       y       z     vdW  Elec       q    Type
REMARK                         _______ _______ _______ _____ _____    ______ ____
ROOT
ATOM      1  C   UNL     1       5.532   5.738  16.791  0.00  0.00    +0.000 A 
ATOM      2  C   UNL     1       6.768   6.306  17.069  0.00  0.00    +0.000 A 
ATOM      3  N   UNL     1       7.795   6.417  16.190  0.00  0.00    +0.000 NA
ATOM      4  C   UNL     1       7.544   5.829  15.002  0.00  0.00    +0.000 A 
ATOM      5  O   UNL     1       8.431   5.786  13.975  0.00  0.00    +0.000 OA
ATOM      6  N   UNL     1       7.905   5.049  12.928  0.00  0.00    +0.000 NA
ATOM      7  C   UNL     1       6.696   4.619  13.337  0.00  0.00    +0.000 A 
ATOM      8  C   UNL     1       6.385   5.162  14.626  0.00  0.00    +0.000 A 
ATOM      9  C   UNL     1       5.315   5.143  15.544  0.00  0.00    +0.000 A 
ENDROOT
BRANCH   7  10
ATOM     10  C   UNL     1       5.927   3.670  12.530  0.00  0.00    +0.000 A 
ATOM     11  C   UNL     1       6.506   2.466  12.101  0.00  0.00    +0.000 A 
ATOM     12  C   UNL     1       5.801   1.580  11.283  0.00  0.00    +0.000 A 
ATOM     13  C   UNL     1       4.512   1.894  10.867  0.00  0.00    +0.000 A 
ATOM     14  C   UNL     1       3.924   3.090  11.272  0.00  0.00    +0.000 A 
ATOM     15  C   UNL     1       4.626   3.973  12.100  0.00  0.00    +0.000 A 
ENDBRANCH   7  10
BRANCH   1  16
ATOM     16  S   UNL     1       4.370   5.550  18.109  0.00  0.00    +0.000 S 
ATOM     17  O   UNL     1       3.207   6.318  17.728  0.00  0.00    +0.000 OA
ATOM     18  O   UNL     1       5.064   5.822  19.351  0.00  0.00    +0.000 OA
BRANCH  16  25
ATOM     19  C   UNL     1       1.486   4.425  17.621  0.00  0.00    +0.000 C 
ATOM     20  C   UNL     1       2.490   3.453  18.250  0.00  0.00    +0.000 C 
ATOM     21  C   UNL     1       2.349   2.108  17.500  0.00  0.00    +0.000 C 
ATOM     22  C   UNL     1       2.306   3.376  19.779  0.00  0.00    +0.000 C 
ATOM     23  C   UNL     1       3.691   3.012  20.339  0.00  0.00    +0.000 C 
ATOM     24  C   UNL     1       4.660   3.074  19.161  0.00  0.00    +0.000 C 
ATOM     25  N   UNL     1       3.961   3.874  18.102  0.00  0.00    +0.000 NA
BRANCH  22  26
ATOM     26  C   UNL     1       1.164   2.527  20.316  0.00  0.00    +0.000 C 
ATOM     27  F   UNL     1       0.898   2.746  21.618  0.00  0.00    +0.000 F 
ATOM     28  F   UNL     1       0.014   2.723  19.635  0.00  0.00    +0.000 F 
ATOM     29  F   UNL     1       1.469   1.212  20.200  0.00  0.00    +0.000 F 
ENDBRANCH  22  26
ENDBRANCH  16  25
ENDBRANCH   1  16
TORSDOF 4
ENDMDL
MODEL 4
REMARK VINA RESULT:      -8.3      0.123      1.140
REMARK  Name = 
REMARK  6 active torsions:
REMARK  status: ('A' for Active; 'I' for Inactive)
REMARK    1  A    between atoms: C_1  and  C_2
REMARK    2  A    between atoms: C_2  and  C_3
REMARK    3  A    between atoms: C_4  and  C_5
REMARK    4  A    between atoms: N_11  and  S_12
REMARK    5  A    between atoms: S_12  and  C_15
REMARK    6  A    between atoms: C_21  and  C_22
REMARK                            x       y       z     vdW  Elec       q    Type
REMARK                         _______ _______ _______ _____ _____    ______ ____
ROOT
ATOM      1  C   UNL     1       6.057   5.051  16.916  0.00  0.00    +0.000 A 
ATOM      2  C   UNL     1       7.178   5.849  17.093  0.00  0.00    +0.000 A 
ATOM      3  N   UNL     1       7.997   6.282  16.101  0.00  0.00    +0.000 NA
ATOM      4  C   UNL     1       7.675   5.783  14.890  0.00  0.00    +0.000 A 
ATOM      5  O   UNL     1       8.365   6.051  13.752  0.00  0.00    +0.000 OA
ATOM      6  N   UNL     1       7.833   5.332  12.697  0.00  0.00    +0.000 NA
ATOM      7  C   UNL     1       6.825   4.599  13.208  0.00  0.00    +0.000 A 
ATOM      8  C   UNL     1       6.631   4.916  14.592  0.00  0.00    +0.000 A 
ATOM      9  C   UNL     1       5.759   4.559  15.640  0.00  0.00    +0.000 A 
ENDROOT
BRANCH   7  10
ATOM     10  C   UNL     1       6.142   3.593  12.392  0.00  0.00    +0.000 A 
ATOM     11  C   UNL     1       4.779   3.727  12.090  0.00  0.00    +0.000 A 
ATOM     12  C   UNL     1       4.103   2.745  11.361  0.00  0.00    +0.000 A 
ATOM     13  C   UNL     1       4.779   1.605  10.940  0.00  0.00    +0.000 A 
ATOM     14  C   UNL     1       6.130   1.447  11.241  0.00  0.00    +0.000 A 
ATOM     15  C   UNL     1       6.809   2.435  11.961  0.00  0.00    +0.000 A 
ENDBRANCH   7  10
BRANCH   1  16
ATOM     16  S   UNL     1       5.198   4.465  18.345  0.00  0.00    +0.000 S 
ATOM     17  O   UNL     1       5.014   5.616  19.199  0.00  0.00    +0.000 OA
ATOM     18  O   UNL     1       5.894   3.289  18.826  0.00  0.00    +0.000 OA
BRANCH  16  25
ATOM     19  C   UNL     1       2.469   5.806  19.100  0.00  0.00    +0.000 C 
ATOM     20  C   UNL     1       2.383   4.407  18.482  0.00  0.00    +0.000 C 
ATOM     21  C   UNL     1       1.271   4.454  17.407  0.00  0.00    +0.000 C 
ATOM     22  C   UNL     1       2.201   3.328  19.570  0.00  0.00    +0.000 C 
ATOM     23  C   UNL     1       2.826   2.050  18.985  0.00  0.00    +0.000 C 
ATOM     24  C   UNL     1       3.506   2.462  17.682  0.00  0.00    +0.000 C 
ATOM     25  N   UNL     1       3.660   3.952  17.758  0.00  0.00    +0.000 NA
BRANCH  22  26
ATOM     26  C   UNL     1       0.812   3.141  20.161  0.00  0.00    +0.000 C 
ATOM     27  F   UNL     1      -0.014   2.429  19.372  0.00  0.00    +0.000 F 
ATOM     28  F   UNL     1       0.845   2.528  21.364  0.00  0.00    +0.000 F 
ATOM     29  F   UNL     1       0.223   4.346  20.351  0.00  0.00    +0.000 F 
ENDBRANCH  22  26
ENDBRANCH  16  25
ENDBRANCH   1  16
TORSDOF 4
ENDMDL
MODEL 5
REMARK VINA RESULT:      -8.1      2.235      3.285
REMARK  Name = 
REMARK  6 active torsions:
REMARK  status: ('A' for Active; 'I' for Inactive)
REMARK    1  A    between atoms: C_1  and  C_2
REMARK    2  A    between atoms: C_2  and  C_3
REMARK    3  A    between atoms: C_4  and  C_5
REMARK    4  A    between atoms: N_11  and  S_12
REMARK    5  A    between atoms: S_12  and  C_15
REMARK    6  A    between atoms: C_21  and  C_22
REMARK                            x       y       z     vdW  Elec       q    Type
REMARK                         _______ _______ _______ _____ _____    ______ ____
ROOT
ATOM      1  C   UNL     1       4.219   6.081  18.415  0.00  0.00    +0.000 A 
ATOM      2  C   UNL     1       4.924   5.743  19.561  0.00  0.00    +0.000 A 
ATOM      3  N   UNL     1       6.180   5.232  19.586  0.00  0.00    +0.000 NA
ATOM      4  C   UNL     1       6.679   4.985  18.357  0.00  0.00    +0.000 A 
ATOM      5  O   UNL     1       7.905   4.449  18.130  0.00  0.00    +0.000 OA
ATOM      6  N   UNL     1       8.090   4.251  16.774  0.00  0.00    +0.000 NA
ATOM      7  C   UNL     1       6.951   4.647  16.174  0.00  0.00    +0.000 A 
ATOM      8  C   UNL     1       6.049   5.204  17.139  0.00  0.00    +0.000 A 
ATOM      9  C   UNL     1       4.777   5.812  17.161  0.00  0.00    +0.000 A 
ENDROOT
BRANCH   7  10
ATOM     10  C   UNL     1       6.741   4.424  14.743  0.00  0.00    +0.000 A 
ATOM     11  C   UNL     1       7.593   5.014  13.797  0.00  0.00    +0.000 A 
ATOM     12  C   UNL     1       7.368   4.855  12.427  0.00  0.00    +0.000 A 
ATOM     13  C   UNL     1       6.276   4.117  11.984  0.00  0.00    +0.000 A 
ATOM     14  C   UNL     1       5.411   3.533  12.907  0.00  0.00    +0.000 A 
ATOM     15  C   UNL     1       5.642   3.684  14.279  0.00  0.00    +0.000 A 
ENDBRANCH   7  10
BRANCH   1  16
ATOM     16  S   UNL     1       2.535   6.595  18.575  0.00  0.00    +0.000 S 
ATOM     17  O   UNL     1       2.231   7.344  17.378  0.00  0.00    +0.000 OA
ATOM     18  O   UNL     1       2.380   7.195  19.884  0.00  0.00    +0.000 OA
BRANCH  16  25
ATOM     19  C   UNL     1       2.558   4.471  20.879  0.00  0.00    +0.000 C 
ATOM     20  C   UNL     1       2.001   3.997  19.532  0.00  0.00    +0.000 C 
ATOM     21  C   UNL     1       0.692   3.228  19.828  0.00  0.00    +0.000 C 
ATOM     22  C   UNL     1       3.063   3.208  18.739  0.00  0.00    +0.000 C 
ATOM     23  C   UNL     1       2.703   3.416  17.258  0.00  0.00    +0.000 C 
ATOM     24  C   UNL     1       1.582   4.450  17.230  0.00  0.00    +0.000 C 
ATOM     25  N   UNL     1       1.623   5.131  18.565  0.00  0.00    +0.000 NA
BRANCH  22  26
ATOM     26  C   UNL     1       3.315   1.761  19.133  0.00  0.00    +0.000 C 
ATOM     27  F   UNL     1       3.767   1.000  18.119  0.00  0.00    +0.000 F 
ATOM     28  F   UNL     1       4.204   1.651  20.144  0.00  0.00    +0.000 F 
ATOM     29  F   UNL     1       2.163   1.189  19.560  0.00  0.00    +0.000 F 
ENDBRANCH  22  26
ENDBRANCH  16  25
ENDBRANCH   1  16
TORSDOF 4
ENDMDL
MODEL 6
REMARK VINA RESULT:      -7.9      0.954      1.540
REMARK  Name = 
REMARK  6 active torsions:
REMARK  status: ('A' for Active; 'I' for Inactive)
REMARK    1  A    between atoms: C_1  and  C_2
REMARK    2  A    between atoms: C_2  and  C_3
REMARK    3  A    between atoms: C_4  and  C_5
REMARK    4  A    between atoms: N_11  and  S_12
REMARK    5  A    between atoms: S_12  and  C_15
REMARK    6  A    between atoms: C_21  and  C_22
REMARK                            x       y       z     vdW  Elec       q    Type
REMARK                         _______ _______ _______ _____ _____    ______ ____
ROOT
ATOM      1  C   UNL     1       5.508   5.776  16.762  0.00  0.00    +0.000 A 
ATOM      2  C   UNL     1       6.738   6.334  17.083  0.00  0.00    +0.000 A 
ATOM      3  N   UNL     1       7.789   6.454  16.235  0.00  0.00    +0.000 NA
ATOM      4  C   UNL     1       7.569   5.886  15.031  0.00  0.00    +0.000 A 
ATOM      5  O   UNL     1       8.484   5.855  14.028  0.00  0.00    +0.000 OA
ATOM      6  N   UNL     1       7.984   5.138  12.956  0.00  0.00    +0.000 NA
ATOM      7  C   UNL     1       6.763   4.707  13.324  0.00  0.00    +0.000 A 
ATOM      8  C   UNL     1       6.418   5.230  14.613  0.00  0.00    +0.000 A 
ATOM      9  C   UNL     1       5.323   5.202  15.500  0.00  0.00    +0.000 A 
ENDROOT
BRANCH   7  10
ATOM     10  C   UNL     1       6.013   3.775  12.481  0.00  0.00    +0.000 A 
ATOM     11  C   UNL     1       4.687   4.052  12.118  0.00  0.00    +0.000 A 
ATOM     12  C   UNL     1       3.942   3.143  11.362  0.00  0.00    +0.000 A 
ATOM     13  C   UNL     1       4.509   1.934  10.973  0.00  0.00    +0.000 A 
ATOM     14  C   UNL     1       5.821   1.634  11.334  0.00  0.00    +0.000 A 
ATOM     15  C   UNL     1       6.570   2.549  12.082  0.00  0.00    +0.000 A 
ENDBRANCH   7  10
BRANCH   1  16
ATOM     16  S   UNL     1       4.309   5.572  18.044  0.00  0.00    +0.000 S 
ATOM     17  O   UNL     1       3.133   6.287  17.608  0.00  0.00    +0.000 OA
ATOM     18  O   UNL     1       4.949   5.895  19.303  0.00  0.00    +0.000 OA
BRANCH  16  25
ATOM     19  C   UNL     1       1.471   4.334  17.565  0.00  0.00    +0.000 C 
ATOM     20  C   UNL     1       2.508   3.409  18.210  0.00  0.00    +0.000 C 
ATOM     21  C   UNL     1       2.419   2.049  17.480  0.00  0.00    +0.000 C 
ATOM     22  C   UNL     1       2.321   3.347  19.740  0.00  0.00    +0.000 C 
ATOM     23  C   UNL     1       3.717   3.044  20.309  0.00  0.00    +0.000 C 
ATOM     24  C   UNL     1       4.687   3.124  19.134  0.00  0.00    +0.000 C 
ATOM     25  N   UNL     1       3.962   3.882  18.061  0.00  0.00    +0.000 NA
BRANCH  22  26
ATOM     26  C   UNL     1       1.209   2.465  20.286  0.00  0.00    +0.000 C 
ATOM     27  F   UNL     1      -0.003   2.751  19.776  0.00  0.00    +0.000 F 
ATOM     28  F   UNL     1       1.438   1.152  20.062  0.00  0.00    +0.000 F 
ATOM     29  F   UNL     1       1.110   2.621  21.629  0.00  0.00    +0.000 F 
ENDBRANCH  22  26
ENDBRANCH  16  25
ENDBRANCH   1  16
TORSDOF 4
ENDMDL
MODEL 7
REMARK VINA RESULT:      -7.8      1.758      2.444
REMARK  Name = 
REMARK  6 active torsions:
REMARK  status: ('A' for Active; 'I' for Inactive)
REMARK    1  A    between atoms: C_1  and  C_2
REMARK    2  A    between atoms: C_2  and  C_3
REMARK    3  A    between atoms: C_4  and  C_5
REMARK    4  A    between atoms: N_11  and  S_12
REMARK    5  A    between atoms: S_12  and  C_15
REMARK    6  A    between atoms: C_21  and  C_22
REMARK                            x       y       z     vdW  Elec       q    Type
REMARK                         _______ _______ _______ _____ _____    ______ ____
ROOT
ATOM      1  C   UNL     1       5.191   4.353  17.301  0.00  0.00    +0.000 A 
ATOM      2  C   UNL     1       6.327   5.009  17.753  0.00  0.00    +0.000 A 
ATOM      3  N   UNL     1       7.310   5.509  16.962  0.00  0.00    +0.000 NA
ATOM      4  C   UNL     1       7.134   5.229  15.654  0.00  0.00    +0.000 A 
ATOM      5  O   UNL     1       8.000   5.601  14.677  0.00  0.00    +0.000 OA
ATOM      6  N   UNL     1       7.578   5.101  13.458  0.00  0.00    +0.000 NA
ATOM      7  C   UNL     1       6.459   4.395  13.705  0.00  0.00    +0.000 A 
ATOM      8  C   UNL     1       6.087   4.517  15.084  0.00  0.00    +0.000 A 
ATOM      9  C   UNL     1       5.049   4.088  15.935  0.00  0.00    +0.000 A 
ENDROOT
BRANCH   7  10
ATOM     10  C   UNL     1       5.833   3.591  12.653  0.00  0.00    +0.000 A 
ATOM     11  C   UNL     1       4.565   3.926  12.159  0.00  0.00    +0.000 A 
ATOM     12  C   UNL     1       3.933   3.134  11.197  0.00  0.00    +0.000 A 
ATOM     13  C   UNL     1       4.557   1.982  10.729  0.00  0.00    +0.000 A 
ATOM     14  C   UNL     1       5.812   1.624  11.216  0.00  0.00    +0.000 A 
ATOM     15  C   UNL     1       6.448   2.424  12.172  0.00  0.00    +0.000 A 
ENDBRANCH   7  10
BRANCH   1  16
ATOM     16  S   UNL     1       4.094   3.640  18.489  0.00  0.00    +0.000 S 
ATOM     17  O   UNL     1       4.636   3.978  19.785  0.00  0.00    +0.000 OA
ATOM     18  O   UNL     1       3.876   2.258  18.115  0.00  0.00    +0.000 OA
BRANCH  16  25
ATOM     19  C   UNL     1       3.811   6.756  18.311  0.00  0.00    +0.000 C 
ATOM     20  C   UNL     1       2.521   5.978  18.590  0.00  0.00    +0.000 C 
ATOM     21  C   UNL     1       1.430   6.559  17.661  0.00  0.00    +0.000 C 
ATOM     22  C   UNL     1       2.179   5.992  20.094  0.00  0.00    +0.000 C 
ATOM     23  C   UNL     1       1.390   4.695  20.345  0.00  0.00    +0.000 C 
ATOM     24  C   UNL     1       1.460   3.893  19.049  0.00  0.00    +0.000 C 
ATOM     25  N   UNL     1       2.601   4.476  18.271  0.00  0.00    +0.000 NA
BRANCH  22  26
ATOM     26  C   UNL     1       1.534   7.245  20.666  0.00  0.00    +0.000 C 
ATOM     27  F   UNL     1       2.098   7.662  21.815  0.00  0.00    +0.000 F 
ATOM     28  F   UNL     1       1.573   8.283  19.801  0.00  0.00    +0.000 F 
ATOM     29  F   UNL     1       0.228   7.012  20.939  0.00  0.00    +0.000 F 
ENDBRANCH  22  26
ENDBRANCH  16  25
ENDBRANCH   1  16
TORSDOF 4
ENDMDL
MODEL 8
REMARK VINA RESULT:      -7.8      1.798      2.287
REMARK  Name = 
REMARK  6 active torsions:
REMARK  status: ('A' for Active; 'I' for Inactive)
REMARK    1  A    between atoms: C_1  and  C_2
REMARK    2  A    between atoms: C_2  and  C_3
REMARK    3  A    between atoms: C_4  and  C_5
REMARK    4  A    between atoms: N_11  and  S_12
REMARK    5  A    between atoms: S_12  and  C_15
REMARK    6  A    between atoms: C_21  and  C_22
REMARK                            x       y       z     vdW  Elec       q    Type
REMARK                         _______ _______ _______ _____ _____    ______ ____
ROOT
ATOM      1  C   UNL     1       5.239   4.433  17.352  0.00  0.00    +0.000 A 
ATOM      2  C   UNL     1       6.385   5.100  17.765  0.00  0.00    +0.000 A 
ATOM      3  N   UNL     1       7.355   5.574  16.944  0.00  0.00    +0.000 NA
ATOM      4  C   UNL     1       7.156   5.256  15.648  0.00  0.00    +0.000 A 
ATOM      5  O   UNL     1       8.006   5.597  14.645  0.00  0.00    +0.000 OA
ATOM      6  N   UNL     1       7.562   5.062  13.449  0.00  0.00    +0.000 NA
ATOM      7  C   UNL     1       6.445   4.366  13.735  0.00  0.00    +0.000 A 
ATOM      8  C   UNL     1       6.098   4.530  15.116  0.00  0.00    +0.000 A 
ATOM      9  C   UNL     1       5.073   4.129  15.997  0.00  0.00    +0.000 A 
ENDROOT
BRANCH   7  10
ATOM     10  C   UNL     1       5.801   3.533  12.719  0.00  0.00    +0.000 A 
ATOM     11  C   UNL     1       6.459   2.411  12.195  0.00  0.00    +0.000 A 
ATOM     12  C   UNL     1       5.878   1.642  11.184  0.00  0.00    +0.000 A 
ATOM     13  C   UNL     1       4.635   1.996  10.669  0.00  0.00    +0.000 A 
ATOM     14  C   UNL     1       3.970   3.114  11.168  0.00  0.00    +0.000 A 
ATOM     15  C   UNL     1       4.548   3.878  12.188  0.00  0.00    +0.000 A 
ENDBRANCH   7  10
BRANCH   1  16
ATOM     16  S   UNL     1       4.161   3.759  18.580  0.00  0.00    +0.000 S 
ATOM     17  O   UNL     1       4.706   4.164  19.855  0.00  0.00    +0.000 OA
ATOM     18  O   UNL     1       3.962   2.358  18.270  0.00  0.00    +0.000 OA
BRANCH  16  25
ATOM     19  C   UNL     1       3.827   6.861  18.285  0.00  0.00    +0.000 C 
ATOM     20  C   UNL     1       2.550   6.073  18.597  0.00  0.00    +0.000 C 
ATOM     21  C   UNL     1       1.448   6.601  17.650  0.00  0.00    +0.000 C 
ATOM     22  C   UNL     1       2.212   6.138  20.101  0.00  0.00    +0.000 C 
ATOM     23  C   UNL     1       1.445   4.839  20.403  0.00  0.00    +0.000 C 
ATOM     24  C   UNL     1       1.524   3.990  19.138  0.00  0.00    +0.000 C 
ATOM     25  N   UNL     1       2.655   4.562  18.335  0.00  0.00    +0.000 NA
BRANCH  22  26
ATOM     26  C   UNL     1       1.548   7.401  20.627  0.00  0.00    +0.000 C 
ATOM     27  F   UNL     1       1.550   8.416  19.743  0.00  0.00    +0.000 F 
ATOM     28  F   UNL     1       0.265   7.193  20.994  0.00  0.00    +0.000 F 
ATOM     29  F   UNL     1       2.203   7.846  21.727  0.00  0.00    +0.000 F 
ENDBRANCH  22  26
ENDBRANCH  16  25
ENDBRANCH   1  16
TORSDOF 4
ENDMDL
MODEL 9
REMARK VINA RESULT:      -7.6      2.218      3.197
REMARK  Name = 
REMARK  6 active torsions:
REMARK  status: ('A' for Active; 'I' for Inactive)
REMARK    1  A    between atoms: C_1  and  C_2
REMARK    2  A    between atoms: C_2  and  C_3
REMARK    3  A    between atoms: C_4  and  C_5
REMARK    4  A    between atoms: N_11  and  S_12
REMARK    5  A    between atoms: S_12  and  C_15
REMARK    6  A    between atoms: C_21  and  C_22
REMARK                            x       y       z     vdW  Elec       q    Type
REMARK                         _______ _______ _______ _____ _____    ______ ____
ROOT
ATOM      1  C   UNL     1       4.997   3.480  18.769  0.00  0.00    +0.000 A 
ATOM      2  C   UNL     1       5.600   4.288  19.723  0.00  0.00    +0.000 A 
ATOM      3  N   UNL     1       6.369   5.373  19.457  0.00  0.00    +0.000 NA
ATOM      4  C   UNL     1       6.585   5.563  18.139  0.00  0.00    +0.000 A 
ATOM      5  O   UNL     1       7.346   6.566  17.632  0.00  0.00    +0.000 OA
ATOM      6  N   UNL     1       7.433   6.444  16.257  0.00  0.00    +0.000 NA
ATOM      7  C   UNL     1       6.739   5.337  15.930  0.00  0.00    +0.000 A 
ATOM      8  C   UNL     1       6.107   4.785  17.092  0.00  0.00    +0.000 A 
ATOM      9  C   UNL     1       5.245   3.716  17.413  0.00  0.00    +0.000 A 
ENDROOT
BRANCH   7  10
ATOM     10  C   UNL     1       6.758   4.817  14.562  0.00  0.00    +0.000 A 
ATOM     11  C   UNL     1       7.684   5.304  13.628  0.00  0.00    +0.000 A 
ATOM     12  C   UNL     1       7.674   4.858  12.304  0.00  0.00    +0.000 A 
ATOM     13  C   UNL     1       6.724   3.930  11.891  0.00  0.00    +0.000 A 
ATOM     14  C   UNL     1       5.787   3.443  12.800  0.00  0.00    +0.000 A 
ATOM     15  C   UNL     1       5.804   3.883  14.128  0.00  0.00    +0.000 A 
ENDBRANCH   7  10
BRANCH   1  16
ATOM     16  S   UNL     1       4.153   2.022  19.304  0.00  0.00    +0.000 S 
ATOM     17  O   UNL     1       4.889   1.531  20.446  0.00  0.00    +0.000 OA
ATOM     18  O   UNL     1       3.942   1.183  18.142  0.00  0.00    +0.000 OA
BRANCH  16  25
ATOM     19  C   UNL     1       2.317   3.976  17.683  0.00  0.00    +0.000 C 
ATOM     20  C   UNL     1       1.978   3.811  19.168  0.00  0.00    +0.000 C 
ATOM     21  C   UNL     1       0.447   3.622  19.266  0.00  0.00    +0.000 C 
ATOM     22  C   UNL     1       2.552   4.976  20.002  0.00  0.00    +0.000 C 
ATOM     23  C   UNL     1       2.795   4.392  21.404  0.00  0.00    +0.000 C 
ATOM     24  C   UNL     1       2.541   2.892  21.294  0.00  0.00    +0.000 C 
ATOM     25  N   UNL     1       2.606   2.574  19.830  0.00  0.00    +0.000 NA
BRANCH  22  26
ATOM     26  C   UNL     1       1.800   6.298  19.988  0.00  0.00    +0.000 C 
ATOM     27  F   UNL     1       1.400   6.675  18.760  0.00  0.00    +0.000 F 
ATOM     28  F   UNL     1       0.703   6.273  20.777  0.00  0.00    +0.000 F 
ATOM     29  F   UNL     1       2.596   7.289  20.457  0.00  0.00    +0.000 F 
ENDBRANCH  22  26
ENDBRANCH  16  25
ENDBRANCH   1  16
TORSDOF 4
ENDMDL
