MODEL 1
REMARK VINA RESULT:      -8.4      0.000      0.000
REMARK  Name = 
REMARK  3 active torsions:
REMARK  status: ('A' for Active; 'I' for Inactive)
REMARK    1  A    between atoms: C_1  and  O_2
REMARK    2  A    between atoms: O_2  and  C_3
REMARK    3  A    between atoms: C_8  and  C_9
REMARK                            x       y       z     vdW  Elec       q    Type
REMARK                         _______ _______ _______ _____ _____    ______ ____
ROOT
ATOM      1  C   UNL     1       3.013   8.153  17.823  0.00  0.00    +0.000 C 
ATOM      2  C   UNL     1       3.365   6.874  18.067  0.00  0.00    +0.000 C 
ATOM      3  C   UNL     1       4.432   6.342  17.157  0.00  0.00    +0.000 C 
ATOM      4  O   UNL     1       5.370   7.017  16.754  0.00  0.00    +0.000 OA
ATOM      5  N   UNL     1       4.248   5.038  16.774  0.00  0.00    +0.000 N 
ATOM      6  C   UNL     1       3.440   4.095  17.375  0.00  0.00    +0.000 C 
ATOM      7  O   UNL     1       3.467   2.922  17.029  0.00  0.00    +0.000 OA
ATOM      8  C   UNL     1       2.607   4.555  18.511  0.00  0.00    +0.000 A 
ATOM      9  C   UNL     1       1.804   3.625  19.187  0.00  0.00    +0.000 A 
ATOM     10  C   UNL     1       1.064   4.024  20.298  0.00  0.00    +0.000 A 
ATOM     11  C   UNL     1       1.200   5.321  20.785  0.00  0.00    +0.000 A 
ATOM     12  C   UNL     1       2.014   6.239  20.118  0.00  0.00    +0.000 A 
ATOM     13  C   UNL     1       2.648   5.895  18.919  0.00  0.00    +0.000 A 
ATOM     14  H   UNL     1       4.898   4.680  16.090  0.00  0.00    +0.000 HD
ENDROOT
BRANCH   1  20
ATOM     15  C   UNL     1      -2.575  11.399  18.767  0.00  0.00    +0.000 A 
ATOM     16  C   UNL     1      -2.668  10.691  17.572  0.00  0.00    +0.000 A 
ATOM     17  C   UNL     1      -1.605   9.889  17.137  0.00  0.00    +0.000 A 
ATOM     18  C   UNL     1      -0.438   9.746  17.914  0.00  0.00    +0.000 A 
ATOM     19  C   UNL     1       0.668   8.993  17.475  0.00  0.00    +0.000 A 
ATOM     20  C   UNL     1       1.798   8.834  18.291  0.00  0.00    +0.000 A 
ATOM     21  C   UNL     1       1.771   9.359  19.586  0.00  0.00    +0.000 A 
ATOM     22  C   UNL     1       0.712  10.156  20.011  0.00  0.00    +0.000 A 
ATOM     23  C   UNL     1      -0.391  10.390  19.169  0.00  0.00    +0.000 A 
ATOM     24  C   UNL     1      -1.435  11.239  19.561  0.00  0.00    +0.000 A 
BRANCH  15  26
ATOM     25  C   UNL     1      -4.867  12.010  18.905  0.00  0.00    +0.000 C 
ATOM     26  O   UNL     1      -3.514  12.253  19.271  0.00  0.00    +0.000 OA
ENDBRANCH  15  26
ENDBRANCH   1  20
TORSDOF 2
ENDMDL
MODEL 2
REMARK VINA RESULT:      -8.0      2.678      7.829
REMARK  Name = 
REMARK  3 active torsions:
REMARK  status: ('A' for Active; 'I' for Inactive)
REMARK    1  A    between atoms: C_1  and  O_2
REMARK    2  A    between atoms: O_2  and  C_3
REMARK    3  A    between atoms: C_8  and  C_9
REMARK                            x       y       z     vdW  Elec       q    Type
REMARK                         _______ _______ _______ _____ _____    ______ ____
ROOT
ATOM      1  C   UNL     1       0.786  11.371  19.511  0.00  0.00    +0.000 C 
ATOM      2  C   UNL     1      -0.412  11.900  19.188  0.00  0.00    +0.000 C 
ATOM      3  C   UNL     1      -0.754  13.155  19.935  0.00  0.00    +0.000 C 
ATOM      4  O   UNL     1       0.072  14.010  20.229  0.00  0.00    +0.000 OA
ATOM      5  N   UNL     1      -2.071  13.251  20.305  0.00  0.00    +0.000 N 
ATOM      6  C   UNL     1      -3.138  12.543  19.791  0.00  0.00    +0.000 C 
ATOM      7  O   UNL     1      -4.290  12.817  20.099  0.00  0.00    +0.000 OA
ATOM      8  C   UNL     1      -2.826  11.498  18.787  0.00  0.00    +0.000 A 
ATOM      9  C   UNL     1      -3.879  10.783  18.199  0.00  0.00    +0.000 A 
ATOM     10  C   UNL     1      -3.611   9.843  17.207  0.00  0.00    +0.000 A 
ATOM     11  C   UNL     1      -2.309   9.687  16.740  0.00  0.00    +0.000 A 
ATOM     12  C   UNL     1      -1.265  10.415  17.318  0.00  0.00    +0.000 A 
ATOM     13  C   UNL     1      -1.498  11.254  18.414  0.00  0.00    +0.000 A 
ATOM     14  H   UNL     1      -2.313  14.039  20.887  0.00  0.00    +0.000 HD
ENDROOT
BRANCH   1  20
ATOM     15  C   UNL     1       2.922   5.200  19.408  0.00  0.00    +0.000 A 
ATOM     16  C   UNL     1       2.116   5.373  20.529  0.00  0.00    +0.000 A 
ATOM     17  C   UNL     1       1.508   6.610  20.783  0.00  0.00    +0.000 A 
ATOM     18  C   UNL     1       1.663   7.692  19.893  0.00  0.00    +0.000 A 
ATOM     19  C   UNL     1       1.113   8.960  20.152  0.00  0.00    +0.000 A 
ATOM     20  C   UNL     1       1.247  10.005  19.225  0.00  0.00    +0.000 A 
ATOM     21  C   UNL     1       1.860   9.739  17.997  0.00  0.00    +0.000 A 
ATOM     22  C   UNL     1       2.462   8.508  17.752  0.00  0.00    +0.000 A 
ATOM     23  C   UNL     1       2.403   7.479  18.710  0.00  0.00    +0.000 A 
ATOM     24  C   UNL     1       3.057   6.257  18.501  0.00  0.00    +0.000 A 
BRANCH  15  26
ATOM     25  C   UNL     1       5.018   4.190  18.927  0.00  0.00    +0.000 C 
ATOM     26  O   UNL     1       3.610   4.067  19.079  0.00  0.00    +0.000 OA
ENDBRANCH  15  26
ENDBRANCH   1  20
TORSDOF 2
ENDMDL
MODEL 3
REMARK VINA RESULT:      -7.9      1.906      2.630
REMARK  Name = 
REMARK  3 active torsions:
REMARK  status: ('A' for Active; 'I' for Inactive)
REMARK    1  A    between atoms: C_1  and  O_2
REMARK    2  A    between atoms: O_2  and  C_3
REMARK    3  A    between atoms: C_8  and  C_9
REMARK                            x       y       z     vdW  Elec       q    Type
REMARK                         _______ _______ _______ _____ _____    ______ ____
ROOT
ATOM      1  C   UNL     1       3.348   7.057  17.854  0.00  0.00    +0.000 C 
ATOM      2  C   UNL     1       3.410   5.721  18.032  0.00  0.00    +0.000 C 
ATOM      3  C   UNL     1       4.102   4.982  16.925  0.00  0.00    +0.000 C 
ATOM      4  O   UNL     1       5.076   5.422  16.329  0.00  0.00    +0.000 OA
ATOM      5  N   UNL     1       3.523   3.782  16.601  0.00  0.00    +0.000 N 
ATOM      6  C   UNL     1       2.646   3.042  17.366  0.00  0.00    +0.000 C 
ATOM      7  O   UNL     1       2.308   1.914  17.033  0.00  0.00    +0.000 OA
ATOM      8  C   UNL     1       2.203   3.643  18.646  0.00  0.00    +0.000 A 
ATOM      9  C   UNL     1       1.349   2.912  19.483  0.00  0.00    +0.000 A 
ATOM     10  C   UNL     1       0.975   3.432  20.719  0.00  0.00    +0.000 A 
ATOM     11  C   UNL     1       1.526   4.634  21.156  0.00  0.00    +0.000 A 
ATOM     12  C   UNL     1       2.391   5.351  20.325  0.00  0.00    +0.000 A 
ATOM     13  C   UNL     1       2.661   4.913  19.023  0.00  0.00    +0.000 A 
ATOM     14  H   UNL     1       3.910   3.304  15.800  0.00  0.00    +0.000 HD
ENDROOT
BRANCH   1  20
ATOM     15  C   UNL     1      -0.644  10.390  21.806  0.00  0.00    +0.000 A 
ATOM     16  C   UNL     1       0.228   9.637  22.587  0.00  0.00    +0.000 A 
ATOM     17  C   UNL     1       1.210   8.838  21.986  0.00  0.00    +0.000 A 
ATOM     18  C   UNL     1       1.365   8.807  20.585  0.00  0.00    +0.000 A 
ATOM     19  C   UNL     1       2.302   7.970  19.952  0.00  0.00    +0.000 A 
ATOM     20  C   UNL     1       2.463   7.995  18.559  0.00  0.00    +0.000 A 
ATOM     21  C   UNL     1       1.738   8.931  17.816  0.00  0.00    +0.000 A 
ATOM     22  C   UNL     1       0.764   9.722  18.420  0.00  0.00    +0.000 A 
ATOM     23  C   UNL     1       0.539   9.646  19.807  0.00  0.00    +0.000 A 
ATOM     24  C   UNL     1      -0.479  10.391  20.417  0.00  0.00    +0.000 A 
BRANCH  15  26
ATOM     25  C   UNL     1      -1.350  12.483  22.680  0.00  0.00    +0.000 C 
ATOM     26  O   UNL     1      -1.672  11.162  22.266  0.00  0.00    +0.000 OA
ENDBRANCH  15  26
ENDBRANCH   1  20
TORSDOF 2
ENDMDL
MODEL 4
REMARK VINA RESULT:      -7.9      1.044      1.166
REMARK  Name = 
REMARK  3 active torsions:
REMARK  status: ('A' for Active; 'I' for Inactive)
REMARK    1  A    between atoms: C_1  and  O_2
REMARK    2  A    between atoms: O_2  and  C_3
REMARK    3  A    between atoms: C_8  and  C_9
REMARK                            x       y       z     vdW  Elec       q    Type
REMARK                         _______ _______ _______ _____ _____    ______ ____
ROOT
ATOM      1  C   UNL     1       3.155   7.323  18.102  0.00  0.00    +0.000 C 
ATOM      2  C   UNL     1       3.306   5.985  18.178  0.00  0.00    +0.000 C 
ATOM      3  C   UNL     1       4.231   5.408  17.147  0.00  0.00    +0.000 C 
ATOM      4  O   UNL     1       5.247   5.973  16.764  0.00  0.00    +0.000 OA
ATOM      5  N   UNL     1       3.821   4.205  16.632  0.00  0.00    +0.000 N 
ATOM      6  C   UNL     1       2.899   3.333  17.173  0.00  0.00    +0.000 C 
ATOM      7  O   UNL     1       2.720   2.221  16.696  0.00  0.00    +0.000 OA
ATOM      8  C   UNL     1       2.203   3.775  18.404  0.00  0.00    +0.000 A 
ATOM      9  C   UNL     1       1.291   2.906  19.020  0.00  0.00    +0.000 A 
ATOM     10  C   UNL     1       0.676   3.277  20.214  0.00  0.00    +0.000 A 
ATOM     11  C   UNL     1       1.042   4.468  20.835  0.00  0.00    +0.000 A 
ATOM     12  C   UNL     1       1.963   5.323  20.225  0.00  0.00    +0.000 A 
ATOM     13  C   UNL     1       2.479   5.033  18.957  0.00  0.00    +0.000 A 
ATOM     14  H   UNL     1       4.373   3.836  15.872  0.00  0.00    +0.000 HD
ENDROOT
BRANCH   1  20
ATOM     15  C   UNL     1      -1.520  11.525  19.876  0.00  0.00    +0.000 A 
ATOM     16  C   UNL     1      -1.587  11.341  18.498  0.00  0.00    +0.000 A 
ATOM     17  C   UNL     1      -0.701  10.467  17.854  0.00  0.00    +0.000 A 
ATOM     18  C   UNL     1       0.247   9.724  18.586  0.00  0.00    +0.000 A 
ATOM     19  C   UNL     1       1.186   8.883  17.961  0.00  0.00    +0.000 A 
ATOM     20  C   UNL     1       2.088   8.122  18.720  0.00  0.00    +0.000 A 
ATOM     21  C   UNL     1       1.978   8.144  20.114  0.00  0.00    +0.000 A 
ATOM     22  C   UNL     1       1.096   9.016  20.746  0.00  0.00    +0.000 A 
ATOM     23  C   UNL     1       0.243   9.844  19.992  0.00  0.00    +0.000 A 
ATOM     24  C   UNL     1      -0.605  10.769  20.616  0.00  0.00    +0.000 A 
BRANCH  15  26
ATOM     25  C   UNL     1      -3.593  12.661  20.121  0.00  0.00    +0.000 C 
ATOM     26  O   UNL     1      -2.287  12.384  20.610  0.00  0.00    +0.000 OA
ENDBRANCH  15  26
ENDBRANCH   1  20
TORSDOF 2
ENDMDL
MODEL 5
REMARK VINA RESULT:      -7.8      1.608      2.533
REMARK  Name = 
REMARK  3 active torsions:
REMARK  status: ('A' for Active; 'I' for Inactive)
REMARK    1  A    between atoms: C_1  and  O_2
REMARK    2  A    between atoms: O_2  and  C_3
REMARK    3  A    between atoms: C_8  and  C_9
REMARK                            x       y       z     vdW  Elec       q    Type
REMARK                         _______ _______ _______ _____ _____    ______ ____
ROOT
ATOM      1  C   UNL     1       4.319   6.349  18.800  0.00  0.00    +0.000 C 
ATOM      2  C   UNL     1       4.158   5.038  19.075  0.00  0.00    +0.000 C 
ATOM      3  C   UNL     1       5.308   4.173  18.652  0.00  0.00    +0.000 C 
ATOM      4  O   UNL     1       6.478   4.527  18.723  0.00  0.00    +0.000 OA
ATOM      5  N   UNL     1       4.939   2.958  18.134  0.00  0.00    +0.000 N 
ATOM      6  C   UNL     1       3.724   2.321  18.278  0.00  0.00    +0.000 C 
ATOM      7  O   UNL     1       3.559   1.172  17.890  0.00  0.00    +0.000 OA
ATOM      8  C   UNL     1       2.661   3.062  18.997  0.00  0.00    +0.000 A 
ATOM      9  C   UNL     1       1.423   2.441  19.211  0.00  0.00    +0.000 A 
ATOM     10  C   UNL     1       0.434   3.096  19.941  0.00  0.00    +0.000 A 
ATOM     11  C   UNL     1       0.715   4.324  20.533  0.00  0.00    +0.000 A 
ATOM     12  C   UNL     1       1.957   4.932  20.331  0.00  0.00    +0.000 A 
ATOM     13  C   UNL     1       2.907   4.355  19.480  0.00  0.00    +0.000 A 
ATOM     14  H   UNL     1       5.684   2.391  17.757  0.00  0.00    +0.000 HD
ENDROOT
BRANCH   1  20
ATOM     15  C   UNL     1      -0.819  10.308  19.568  0.00  0.00    +0.000 A 
ATOM     16  C   UNL     1      -0.425   9.842  20.819  0.00  0.00    +0.000 A 
ATOM     17  C   UNL     1       0.675   8.984  20.943  0.00  0.00    +0.000 A 
ATOM     18  C   UNL     1       1.432   8.604  19.817  0.00  0.00    +0.000 A 
ATOM     19  C   UNL     1       2.505   7.698  19.904  0.00  0.00    +0.000 A 
ATOM     20  C   UNL     1       3.267   7.374  18.771  0.00  0.00    +0.000 A 
ATOM     21  C   UNL     1       2.999   8.037  17.570  0.00  0.00    +0.000 A 
ATOM     22  C   UNL     1       1.904   8.889  17.454  0.00  0.00    +0.000 A 
ATOM     23  C   UNL     1       1.084   9.157  18.566  0.00  0.00    +0.000 A 
ATOM     24  C   UNL     1      -0.056   9.964  18.447  0.00  0.00    +0.000 A 
BRANCH  15  26
ATOM     25  C   UNL     1      -1.910  11.789  18.065  0.00  0.00    +0.000 C 
ATOM     26  O   UNL     1      -1.900  11.101  19.309  0.00  0.00    +0.000 OA
ENDBRANCH  15  26
ENDBRANCH   1  20
TORSDOF 2
ENDMDL
MODEL 6
REMARK VINA RESULT:      -7.7      2.873      7.876
REMARK  Name = 
REMARK  3 active torsions:
REMARK  status: ('A' for Active; 'I' for Inactive)
REMARK    1  A    between atoms: C_1  and  O_2
REMARK    2  A    between atoms: O_2  and  C_3
REMARK    3  A    between atoms: C_8  and  C_9
REMARK                            x       y       z     vdW  Elec       q    Type
REMARK                         _______ _______ _______ _____ _____    ______ ____
ROOT
ATOM      1  C   UNL     1      -0.209  11.806  20.418  0.00  0.00    +0.000 C 
ATOM      2  C   UNL     1      -1.306  12.176  19.727  0.00  0.00    +0.000 C 
ATOM      3  C   UNL     1      -2.025  13.363  20.298  0.00  0.00    +0.000 C 
ATOM      4  O   UNL     1      -1.451  14.314  20.811  0.00  0.00    +0.000 OA
ATOM      5  N   UNL     1      -3.393  13.276  20.239  0.00  0.00    +0.000 N 
ATOM      6  C   UNL     1      -4.144  12.441  19.438  0.00  0.00    +0.000 C 
ATOM      7  O   UNL     1      -5.360  12.555  19.367  0.00  0.00    +0.000 OA
ATOM      8  C   UNL     1      -3.402  11.463  18.608  0.00  0.00    +0.000 A 
ATOM      9  C   UNL     1      -4.116  10.625  17.741  0.00  0.00    +0.000 A 
ATOM     10  C   UNL     1      -3.432   9.745  16.905  0.00  0.00    +0.000 A 
ATOM     11  C   UNL     1      -2.041   9.771  16.870  0.00  0.00    +0.000 A 
ATOM     12  C   UNL     1      -1.334  10.621  17.723  0.00  0.00    +0.000 A 
ATOM     13  C   UNL     1      -2.003  11.404  18.671  0.00  0.00    +0.000 A 
ATOM     14  H   UNL     1      -3.905  14.015  20.696  0.00  0.00    +0.000 HD
ENDROOT
BRANCH   1  20
ATOM     15  C   UNL     1       2.772   6.211  18.846  0.00  0.00    +0.000 A 
ATOM     16  C   UNL     1       3.054   7.156  17.865  0.00  0.00    +0.000 A 
ATOM     17  C   UNL     1       2.549   8.459  17.968  0.00  0.00    +0.000 A 
ATOM     18  C   UNL     1       1.782   8.856  19.082  0.00  0.00    +0.000 A 
ATOM     19  C   UNL     1       1.215  10.139  19.183  0.00  0.00    +0.000 A 
ATOM     20  C   UNL     1       0.493  10.518  20.325  0.00  0.00    +0.000 A 
ATOM     21  C   UNL     1       0.424   9.629  21.401  0.00  0.00    +0.000 A 
ATOM     22  C   UNL     1       0.927   8.335  21.292  0.00  0.00    +0.000 A 
ATOM     23  C   UNL     1       1.582   7.919  20.118  0.00  0.00    +0.000 A 
ATOM     24  C   UNL     1       2.039   6.602  19.972  0.00  0.00    +0.000 A 
BRANCH  15  26
ATOM     25  C   UNL     1       4.445   4.604  19.359  0.00  0.00    +0.000 C 
ATOM     26  O   UNL     1       3.157   4.901  18.835  0.00  0.00    +0.000 OA
ENDBRANCH  15  26
ENDBRANCH   1  20
TORSDOF 2
ENDMDL
MODEL 7
REMARK VINA RESULT:      -7.6      4.458      9.306
REMARK  Name = 
REMARK  3 active torsions:
REMARK  status: ('A' for Active; 'I' for Inactive)
REMARK    1  A    between atoms: C_1  and  O_2
REMARK    2  A    between atoms: O_2  and  C_3
REMARK    3  A    between atoms: C_8  and  C_9
REMARK                            x       y       z     vdW  Elec       q    Type
REMARK                         _______ _______ _______ _____ _____    ______ ____
ROOT
ATOM      1  C   UNL     1      -1.547  13.036  23.298  0.00  0.00    +0.000 C 
ATOM      2  C   UNL     1      -2.844  13.393  23.206  0.00  0.00    +0.000 C 
ATOM      3  C   UNL     1      -3.433  13.917  24.482  0.00  0.00    +0.000 C 
ATOM      4  O   UNL     1      -2.811  14.612  25.274  0.00  0.00    +0.000 OA
ATOM      5  N   UNL     1      -4.724  13.516  24.714  0.00  0.00    +0.000 N 
ATOM      6  C   UNL     1      -5.622  13.012  23.796  0.00  0.00    +0.000 C 
ATOM      7  O   UNL     1      -6.794  12.823  24.091  0.00  0.00    +0.000 OA
ATOM      8  C   UNL     1      -5.119  12.793  22.419  0.00  0.00    +0.000 A 
ATOM      9  C   UNL     1      -6.004  12.327  21.437  0.00  0.00    +0.000 A 
ATOM     10  C   UNL     1      -5.567  12.178  20.123  0.00  0.00    +0.000 A 
ATOM     11  C   UNL     1      -4.281  12.581  19.776  0.00  0.00    +0.000 A 
ATOM     12  C   UNL     1      -3.408  13.061  20.755  0.00  0.00    +0.000 A 
ATOM     13  C   UNL     1      -3.784  13.080  22.103  0.00  0.00    +0.000 A 
ATOM     14  H   UNL     1      -5.116  13.777  25.607  0.00  0.00    +0.000 HD
ENDROOT
BRANCH   1  20
ATOM     15  C   UNL     1       1.659  10.185  18.373  0.00  0.00    +0.000 A 
ATOM     16  C   UNL     1       1.938  11.549  18.356  0.00  0.00    +0.000 A 
ATOM     17  C   UNL     1       1.388  12.399  19.324  0.00  0.00    +0.000 A 
ATOM     18  C   UNL     1       0.577  11.892  20.360  0.00  0.00    +0.000 A 
ATOM     19  C   UNL     1      -0.035  12.729  21.311  0.00  0.00    +0.000 A 
ATOM     20  C   UNL     1      -0.801  12.190  22.356  0.00  0.00    +0.000 A 
ATOM     21  C   UNL     1      -0.871  10.801  22.489  0.00  0.00    +0.000 A 
ATOM     22  C   UNL     1      -0.323   9.962  21.522  0.00  0.00    +0.000 A 
ATOM     23  C   UNL     1       0.378  10.497  20.426  0.00  0.00    +0.000 A 
ATOM     24  C   UNL     1       0.882   9.667  19.414  0.00  0.00    +0.000 A 
BRANCH  15  26
ATOM     25  C   UNL     1       2.492   7.999  17.962  0.00  0.00    +0.000 C 
ATOM     26  O   UNL     1       2.087   9.266  17.459  0.00  0.00    +0.000 OA
ENDBRANCH  15  26
ENDBRANCH   1  20
TORSDOF 2
ENDMDL
MODEL 8
REMARK VINA RESULT:      -7.6      2.489      4.342
REMARK  Name = 
REMARK  3 active torsions:
REMARK  status: ('A' for Active; 'I' for Inactive)
REMARK    1  A    between atoms: C_1  and  O_2
REMARK    2  A    between atoms: O_2  and  C_3
REMARK    3  A    between atoms: C_8  and  C_9
REMARK                            x       y       z     vdW  Elec       q    Type
REMARK                         _______ _______ _______ _____ _____    ______ ____
ROOT
ATOM      1  C   UNL     1       3.119   5.769  17.771  0.00  0.00    +0.000 C 
ATOM      2  C   UNL     1       4.390   5.541  17.383  0.00  0.00    +0.000 C 
ATOM      3  C   UNL     1       4.720   4.093  17.168  0.00  0.00    +0.000 C 
ATOM      4  O   UNL     1       3.932   3.287  16.691  0.00  0.00    +0.000 OA
ATOM      5  N   UNL     1       5.972   3.731  17.594  0.00  0.00    +0.000 N 
ATOM      6  C   UNL     1       7.042   4.563  17.853  0.00  0.00    +0.000 C 
ATOM      7  O   UNL     1       8.154   4.113  18.089  0.00  0.00    +0.000 OA
ATOM      8  C   UNL     1       6.796   6.021  17.746  0.00  0.00    +0.000 A 
ATOM      9  C   UNL     1       7.862   6.907  17.952  0.00  0.00    +0.000 A 
ATOM     10  C   UNL     1       7.667   8.277  17.791  0.00  0.00    +0.000 A 
ATOM     11  C   UNL     1       6.439   8.748  17.335  0.00  0.00    +0.000 A 
ATOM     12  C   UNL     1       5.385   7.859  17.115  0.00  0.00    +0.000 A 
ATOM     13  C   UNL     1       5.522   6.498  17.412  0.00  0.00    +0.000 A 
ATOM     14  H   UNL     1       6.190   2.746  17.548  0.00  0.00    +0.000 HD
ENDROOT
BRANCH   1  20
ATOM     15  C   UNL     1       0.342  10.523  21.286  0.00  0.00    +0.000 A 
ATOM     16  C   UNL     1       0.786   9.528  22.154  0.00  0.00    +0.000 A 
ATOM     17  C   UNL     1       1.441   8.393  21.658  0.00  0.00    +0.000 A 
ATOM     18  C   UNL     1       1.703   8.249  20.281  0.00  0.00    +0.000 A 
ATOM     19  C   UNL     1       2.307   7.095  19.749  0.00  0.00    +0.000 A 
ATOM     20  C   UNL     1       2.595   7.000  18.379  0.00  0.00    +0.000 A 
ATOM     21  C   UNL     1       2.355   8.110  17.564  0.00  0.00    +0.000 A 
ATOM     22  C   UNL     1       1.703   9.234  18.063  0.00  0.00    +0.000 A 
ATOM     23  C   UNL     1       1.336   9.305  19.420  0.00  0.00    +0.000 A 
ATOM     24  C   UNL     1       0.626  10.405  19.921  0.00  0.00    +0.000 A 
BRANCH  15  26
ATOM     25  C   UNL     1      -1.173  11.558  22.796  0.00  0.00    +0.000 C 
ATOM     26  O   UNL     1      -0.353  11.644  21.637  0.00  0.00    +0.000 OA
ENDBRANCH  15  26
ENDBRANCH   1  20
TORSDOF 2
ENDMDL
MODEL 9
REMARK VINA RESULT:      -7.5      0.943      1.780
REMARK  Name = 
REMARK  3 active torsions:
REMARK  status: ('A' for Active; 'I' for Inactive)
REMARK    1  A    between atoms: C_1  and  O_2
REMARK    2  A    between atoms: O_2  and  C_3
REMARK    3  A    between atoms: C_8  and  C_9
REMARK                            x       y       z     vdW  Elec       q    Type
REMARK                         _______ _______ _______ _____ _____    ______ ____
ROOT
ATOM      1  C   UNL     1       3.209   8.397  17.480  0.00  0.00    +0.000 C 
ATOM      2  C   UNL     1       3.514   7.139  17.859  0.00  0.00    +0.000 C 
ATOM      3  C   UNL     1       4.511   6.452  16.974  0.00  0.00    +0.000 C 
ATOM      4  O   UNL     1       5.458   7.027  16.453  0.00  0.00    +0.000 OA
ATOM      5  N   UNL     1       4.251   5.123  16.756  0.00  0.00    +0.000 N 
ATOM      6  C   UNL     1       3.431   4.298  17.499  0.00  0.00    +0.000 C 
ATOM      7  O   UNL     1       3.389   3.093  17.293  0.00  0.00    +0.000 OA
ATOM      8  C   UNL     1       2.675   4.928  18.606  0.00  0.00    +0.000 A 
ATOM      9  C   UNL     1       1.865   4.125  19.421  0.00  0.00    +0.000 A 
ATOM     10  C   UNL     1       1.198   4.687  20.507  0.00  0.00    +0.000 A 
ATOM     11  C   UNL     1       1.415   6.024  20.831  0.00  0.00    +0.000 A 
ATOM     12  C   UNL     1       2.236   6.816  20.026  0.00  0.00    +0.000 A 
ATOM     13  C   UNL     1       2.796   6.303  18.850  0.00  0.00    +0.000 A 
ATOM     14  H   UNL     1       4.850   4.655  16.093  0.00  0.00    +0.000 HD
ENDROOT
BRANCH   1  20
ATOM     15  C   UNL     1      -1.324  12.087  20.394  0.00  0.00    +0.000 A 
ATOM     16  C   UNL     1      -0.066  12.560  20.756  0.00  0.00    +0.000 A 
ATOM     17  C   UNL     1       1.093  11.955  20.250  0.00  0.00    +0.000 A 
ATOM     18  C   UNL     1       1.014  10.885  19.336  0.00  0.00    +0.000 A 
ATOM     19  C   UNL     1       2.159  10.221  18.858  0.00  0.00    +0.000 A 
ATOM     20  C   UNL     1       2.050   9.188  17.915  0.00  0.00    +0.000 A 
ATOM     21  C   UNL     1       0.790   8.889  17.389  0.00  0.00    +0.000 A 
ATOM     22  C   UNL     1      -0.358   9.494  17.897  0.00  0.00    +0.000 A 
ATOM     23  C   UNL     1      -0.264  10.474  18.902  0.00  0.00    +0.000 A 
ATOM     24  C   UNL     1      -1.414  11.047  19.464  0.00  0.00    +0.000 A 
BRANCH  15  26
ATOM     25  C   UNL     1      -3.617  12.523  19.952  0.00  0.00    +0.000 C 
ATOM     26  O   UNL     1      -2.521  12.553  20.857  0.00  0.00    +0.000 OA
ENDBRANCH  15  26
ENDBRANCH   1  20
TORSDOF 2
ENDMDL
