MODEL 1
REMARK VINA RESULT:      -9.1      0.000      0.000
REMARK  Name = 
REMARK  7 active torsions:
REMARK  status: ('A' for Active; 'I' for Inactive)
REMARK    1  A    between atoms: C_1  and  C_2
REMARK    2  A    between atoms: C_4  and  C_5
REMARK    3  A    between atoms: C_10  and  N_11
REMARK    4  A    between atoms: N_11  and  C_12
REMARK    5  A    between atoms: C_12  and  C_13
REMARK    6  A    between atoms: C_15  and  C_16
REMARK    7  A    between atoms: C_26  and  O_27
REMARK                            x       y       z     vdW  Elec       q    Type
REMARK                         _______ _______ _______ _____ _____    ______ ____
ROOT
ATOM      1  C   UNL     1       1.493   4.059  18.613  0.00  0.00    +0.000 C 
ATOM      2  C   UNL     1       1.991   5.502  18.385  0.00  0.00    +0.000 C 
ATOM      3  C   UNL     1       2.529   6.030  19.743  0.00  0.00    +0.000 C 
ATOM      4  C   UNL     1       2.267   4.885  20.740  0.00  0.00    +0.000 C 
ATOM      5  C   UNL     1       1.125   4.089  20.106  0.00  0.00    +0.000 C 
ENDROOT
BRANCH   3   6
ATOM      6  C   UNL     1       1.817   7.285  20.162  0.00  0.00    +0.000 A 
ATOM      7  N   UNL     1       1.192   7.454  21.318  0.00  0.00    +0.000 NA
ATOM      8  N   UNL     1       0.642   8.704  21.349  0.00  0.00    +0.000 NA
ATOM      9  C   UNL     1       0.931   9.298  20.214  0.00  0.00    +0.000 A 
ATOM     10  N   UNL     1       1.692   8.451  19.450  0.00  0.00    +0.000 N 
ATOM     11  C   UNL     1       2.158   8.820  18.131  0.00  0.00    +0.000 C 
ATOM     12  C   UNL     1       2.025  10.332  17.922  0.00  0.00    +0.000 C 
ATOM     13  O   UNL     1       0.731  10.776  18.346  0.00  0.00    +0.000 OA
ATOM     14  C   UNL     1       0.575  10.671  19.774  0.00  0.00    +0.000 C 
ENDBRANCH   3   6
BRANCH   5  15
ATOM     15  O   UNL     1       0.936   2.815  20.690  0.00  0.00    +0.000 OA
ATOM     16  H   UNL     1       0.633   2.900  21.608  0.00  0.00    +0.000 HD
ENDBRANCH   5  15
BRANCH   1  17
ATOM     17  C   UNL     1       2.536   2.983  18.255  0.00  0.00    +0.000 C 
BRANCH  17  18
ATOM     18  N   UNL     1       3.832   3.220  18.863  0.00  0.00    +0.000 N 
ATOM     19  H   UNL     1       4.016   2.976  19.830  0.00  0.00    +0.000 HD
BRANCH  18  25
ATOM     20  C   UNL     1       7.873   5.691  19.373  0.00  0.00    +0.000 C 
ATOM     21  C   UNL     1       6.875   5.046  18.456  0.00  0.00    +0.000 A 
ATOM     22  C   UNL     1       7.064   5.095  17.082  0.00  0.00    +0.000 A 
ATOM     23  C   UNL     1       6.123   4.487  16.256  0.00  0.00    +0.000 A 
ATOM     24  C   UNL     1       5.025   3.857  16.850  0.00  0.00    +0.000 A 
ATOM     25  C   UNL     1       4.884   3.839  18.230  0.00  0.00    +0.000 A 
ATOM     26  N   UNL     1       5.803   4.430  19.024  0.00  0.00    +0.000 NA
BRANCH  23  27
ATOM     27  C   UNL     1       6.262   4.490  14.762  0.00  0.00    +0.000 C 
ATOM     28  F   UNL     1       5.243   5.124  14.117  0.00  0.00    +0.000 F 
ATOM     29  F   UNL     1       7.406   5.107  14.352  0.00  0.00    +0.000 F 
ATOM     30  F   UNL     1       6.311   3.233  14.242  0.00  0.00    +0.000 F 
ENDBRANCH  23  27
ENDBRANCH  18  25
ENDBRANCH  17  18
ENDBRANCH   1  17
TORSDOF 6
ENDMDL
MODEL 2
REMARK VINA RESULT:      -9.0      1.871      2.519
REMARK  Name = 
REMARK  7 active torsions:
REMARK  status: ('A' for Active; 'I' for Inactive)
REMARK    1  A    between atoms: C_1  and  C_2
REMARK    2  A    between atoms: C_4  and  C_5
REMARK    3  A    between atoms: C_10  and  N_11
REMARK    4  A    between atoms: N_11  and  C_12
REMARK    5  A    between atoms: C_12  and  C_13
REMARK    6  A    between atoms: C_15  and  C_16
REMARK    7  A    between atoms: C_26  and  O_27
REMARK                            x       y       z     vdW  Elec       q    Type
REMARK                         _______ _______ _______ _____ _____    ______ ____
ROOT
ATOM      1  C   UNL     1       1.684   4.048  18.752  0.00  0.00    +0.000 C 
ATOM      2  C   UNL     1       2.009   5.517  18.411  0.00  0.00    +0.000 C 
ATOM      3  C   UNL     1       2.625   6.167  19.679  0.00  0.00    +0.000 C 
ATOM      4  C   UNL     1       2.581   5.058  20.748  0.00  0.00    +0.000 C 
ATOM      5  C   UNL     1       1.467   4.124  20.273  0.00  0.00    +0.000 C 
ENDROOT
BRANCH   3   6
ATOM      6  C   UNL     1       1.837   7.369  20.116  0.00  0.00    +0.000 A 
ATOM      7  N   UNL     1       1.177   7.471  21.260  0.00  0.00    +0.000 NA
ATOM      8  N   UNL     1       0.560   8.689  21.313  0.00  0.00    +0.000 NA
ATOM      9  C   UNL     1       0.842   9.330  20.203  0.00  0.00    +0.000 A 
ATOM     10  N   UNL     1       1.665   8.547  19.434  0.00  0.00    +0.000 N 
ATOM     11  C   UNL     1       2.141   8.979  18.138  0.00  0.00    +0.000 C 
ATOM     12  C   UNL     1       1.931  10.487  17.968  0.00  0.00    +0.000 C 
ATOM     13  O   UNL     1       0.605  10.849  18.373  0.00  0.00    +0.000 OA
ATOM     14  C   UNL     1       0.423  10.694  19.793  0.00  0.00    +0.000 C 
ENDBRANCH   3   6
BRANCH   5  15
ATOM     15  O   UNL     1       1.466   2.871  20.930  0.00  0.00    +0.000 OA
ATOM     16  H   UNL     1       0.832   2.868  21.663  0.00  0.00    +0.000 HD
ENDBRANCH   5  15
BRANCH   1  17
ATOM     17  C   UNL     1       2.787   3.059  18.334  0.00  0.00    +0.000 C 
BRANCH  17  18
ATOM     18  N   UNL     1       3.351   3.352  17.029  0.00  0.00    +0.000 N 
ATOM     19  H   UNL     1       2.857   3.119  16.174  0.00  0.00    +0.000 HD
BRANCH  18  25
ATOM     20  C   UNL     1       6.748   4.426  13.866  0.00  0.00    +0.000 C 
ATOM     21  C   UNL     1       6.277   4.438  15.292  0.00  0.00    +0.000 A 
ATOM     22  C   UNL     1       7.082   4.982  16.282  0.00  0.00    +0.000 A 
ATOM     23  C   UNL     1       6.619   4.980  17.595  0.00  0.00    +0.000 A 
ATOM     24  C   UNL     1       5.362   4.426  17.856  0.00  0.00    +0.000 A 
ATOM     25  C   UNL     1       4.598   3.894  16.827  0.00  0.00    +0.000 A 
ATOM     26  N   UNL     1       5.055   3.900  15.556  0.00  0.00    +0.000 NA
BRANCH  23  27
ATOM     27  C   UNL     1       7.427   5.557  18.720  0.00  0.00    +0.000 C 
ATOM     28  F   UNL     1       6.747   5.639  19.898  0.00  0.00    +0.000 F 
ATOM     29  F   UNL     1       8.543   4.822  18.983  0.00  0.00    +0.000 F 
ATOM     30  F   UNL     1       7.867   6.817  18.452  0.00  0.00    +0.000 F 
ENDBRANCH  23  27
ENDBRANCH  18  25
ENDBRANCH  17  18
ENDBRANCH   1  17
TORSDOF 6
ENDMDL
MODEL 3
REMARK VINA RESULT:      -8.8      1.132      1.840
REMARK  Name = 
REMARK  7 active torsions:
REMARK  status: ('A' for Active; 'I' for Inactive)
REMARK    1  A    between atoms: C_1  and  C_2
REMARK    2  A    between atoms: C_4  and  C_5
REMARK    3  A    between atoms: C_10  and  N_11
REMARK    4  A    between atoms: N_11  and  C_12
REMARK    5  A    between atoms: C_12  and  C_13
REMARK    6  A    between atoms: C_15  and  C_16
REMARK    7  A    between atoms: C_26  and  O_27
REMARK                            x       y       z     vdW  Elec       q    Type
REMARK                         _______ _______ _______ _____ _____    ______ ____
ROOT
ATOM      1  C   UNL     1       2.377   4.383  18.963  0.00  0.00    +0.000 C 
ATOM      2  C   UNL     1       3.032   5.778  18.882  0.00  0.00    +0.000 C 
ATOM      3  C   UNL     1       2.581   6.579  20.134  0.00  0.00    +0.000 C 
ATOM      4  C   UNL     1       1.618   5.634  20.878  0.00  0.00    +0.000 C 
ATOM      5  C   UNL     1       1.116   4.680  19.793  0.00  0.00    +0.000 C 
ENDROOT
BRANCH   3   6
ATOM      6  C   UNL     1       1.892   7.857  19.745  0.00  0.00    +0.000 A 
ATOM      7  N   UNL     1       1.745   8.294  18.504  0.00  0.00    +0.000 NA
ATOM      8  N   UNL     1       1.093   9.494  18.527  0.00  0.00    +0.000 NA
ATOM      9  C   UNL     1       0.841   9.790  19.781  0.00  0.00    +0.000 A 
ATOM     10  N   UNL     1       1.303   8.774  20.579  0.00  0.00    +0.000 N 
ATOM     11  C   UNL     1       1.181   8.816  22.020  0.00  0.00    +0.000 C 
ATOM     12  C   UNL     1       0.172   9.890  22.439  0.00  0.00    +0.000 C 
ATOM     13  O   UNL     1       0.426  11.109  21.731  0.00  0.00    +0.000 OA
ATOM     14  C   UNL     1       0.137  10.978  20.326  0.00  0.00    +0.000 C 
ENDBRANCH   3   6
BRANCH   5  15
ATOM     15  O   UNL     1       0.469   3.533  20.310  0.00  0.00    +0.000 OA
ATOM     16  H   UNL     1       1.025   3.094  20.971  0.00  0.00    +0.000 HD
ENDBRANCH   5  15
BRANCH   1  17
ATOM     17  C   UNL     1       3.288   3.309  19.586  0.00  0.00    +0.000 C 
BRANCH  17  18
ATOM     18  N   UNL     1       4.282   2.797  18.661  0.00  0.00    +0.000 N 
ATOM     19  H   UNL     1       4.380   1.803  18.485  0.00  0.00    +0.000 HD
BRANCH  18  25
ATOM     20  C   UNL     1       7.950   5.809  19.078  0.00  0.00    +0.000 C 
ATOM     21  C   UNL     1       7.011   5.051  18.184  0.00  0.00    +0.000 A 
ATOM     22  C   UNL     1       7.127   5.164  16.806  0.00  0.00    +0.000 A 
ATOM     23  C   UNL     1       6.243   4.449  16.001  0.00  0.00    +0.000 A 
ATOM     24  C   UNL     1       5.276   3.652  16.621  0.00  0.00    +0.000 A 
ATOM     25  C   UNL     1       5.205   3.577  18.004  0.00  0.00    +0.000 A 
ATOM     26  N   UNL     1       6.066   4.273  18.777  0.00  0.00    +0.000 NA
BRANCH  23  27
ATOM     27  C   UNL     1       6.310   4.511  14.503  0.00  0.00    +0.000 C 
ATOM     28  F   UNL     1       7.317   5.297  14.031  0.00  0.00    +0.000 F 
ATOM     29  F   UNL     1       6.502   3.283  13.945  0.00  0.00    +0.000 F 
ATOM     30  F   UNL     1       5.164   4.995  13.951  0.00  0.00    +0.000 F 
ENDBRANCH  23  27
ENDBRANCH  18  25
ENDBRANCH  17  18
ENDBRANCH   1  17
TORSDOF 6
ENDMDL
MODEL 4
REMARK VINA RESULT:      -8.8      2.157      3.028
REMARK  Name = 
REMARK  7 active torsions:
REMARK  status: ('A' for Active; 'I' for Inactive)
REMARK    1  A    between atoms: C_1  and  C_2
REMARK    2  A    between atoms: C_4  and  C_5
REMARK    3  A    between atoms: C_10  and  N_11
REMARK    4  A    between atoms: N_11  and  C_12
REMARK    5  A    between atoms: C_12  and  C_13
REMARK    6  A    between atoms: C_15  and  C_16
REMARK    7  A    between atoms: C_26  and  O_27
REMARK                            x       y       z     vdW  Elec       q    Type
REMARK                         _______ _______ _______ _____ _____    ______ ____
ROOT
ATOM      1  C   UNL     1       2.007   4.277  18.496  0.00  0.00    +0.000 C 
ATOM      2  C   UNL     1       2.642   5.638  18.139  0.00  0.00    +0.000 C 
ATOM      3  C   UNL     1       2.696   6.484  19.441  0.00  0.00    +0.000 C 
ATOM      4  C   UNL     1       2.027   5.599  20.510  0.00  0.00    +0.000 C 
ATOM      5  C   UNL     1       1.137   4.649  19.709  0.00  0.00    +0.000 C 
ENDROOT
BRANCH   3   6
ATOM      6  C   UNL     1       1.961   7.785  19.279  0.00  0.00    +0.000 A 
ATOM      7  N   UNL     1       1.691   8.365  18.119  0.00  0.00    +0.000 NA
ATOM      8  N   UNL     1       1.034   9.540  18.351  0.00  0.00    +0.000 NA
ATOM      9  C   UNL     1       0.903   9.678  19.650  0.00  0.00    +0.000 A 
ATOM     10  N   UNL     1       1.449   8.582  20.270  0.00  0.00    +0.000 N 
ATOM     11  C   UNL     1       1.468   8.448  21.711  0.00  0.00    +0.000 C 
ATOM     12  C   UNL     1       0.495   9.443  22.352  0.00  0.00    +0.000 C 
ATOM     13  O   UNL     1       0.669  10.744  21.777  0.00  0.00    +0.000 OA
ATOM     14  C   UNL     1       0.245  10.777  20.401  0.00  0.00    +0.000 C 
ENDBRANCH   3   6
BRANCH   5  15
ATOM     15  O   UNL     1       0.674   3.544  20.460  0.00  0.00    +0.000 OA
ATOM     16  H   UNL     1       0.658   3.755  21.407  0.00  0.00    +0.000 HD
ENDBRANCH   5  15
BRANCH   1  17
ATOM     17  C   UNL     1       3.040   3.174  18.791  0.00  0.00    +0.000 C 
BRANCH  17  18
ATOM     18  N   UNL     1       3.913   2.893  17.666  0.00  0.00    +0.000 N 
ATOM     19  H   UNL     1       3.768   2.085  17.071  0.00  0.00    +0.000 HD
BRANCH  18  25
ATOM     20  C   UNL     1       6.684   4.595  14.185  0.00  0.00    +0.000 C 
ATOM     21  C   UNL     1       6.398   4.485  15.655  0.00  0.00    +0.000 A 
ATOM     22  C   UNL     1       7.228   5.117  16.570  0.00  0.00    +0.000 A 
ATOM     23  C   UNL     1       6.938   4.998  17.926  0.00  0.00    +0.000 A 
ATOM     24  C   UNL     1       5.824   4.244  18.305  0.00  0.00    +0.000 A 
ATOM     25  C   UNL     1       5.028   3.632  17.347  0.00  0.00    +0.000 A 
ATOM     26  N   UNL     1       5.316   3.753  16.033  0.00  0.00    +0.000 NA
BRANCH  23  27
ATOM     27  C   UNL     1       7.783   5.659  18.977  0.00  0.00    +0.000 C 
ATOM     28  F   UNL     1       7.135   5.852  20.159  0.00  0.00    +0.000 F 
ATOM     29  F   UNL     1       8.897   4.932  19.274  0.00  0.00    +0.000 F 
ATOM     30  F   UNL     1       8.231   6.884  18.589  0.00  0.00    +0.000 F 
ENDBRANCH  23  27
ENDBRANCH  18  25
ENDBRANCH  17  18
ENDBRANCH   1  17
TORSDOF 6
ENDMDL
MODEL 5
REMARK VINA RESULT:      -8.6      1.740      2.431
REMARK  Name = 
REMARK  7 active torsions:
REMARK  status: ('A' for Active; 'I' for Inactive)
REMARK    1  A    between atoms: C_1  and  C_2
REMARK    2  A    between atoms: C_4  and  C_5
REMARK    3  A    between atoms: C_10  and  N_11
REMARK    4  A    between atoms: N_11  and  C_12
REMARK    5  A    between atoms: C_12  and  C_13
REMARK    6  A    between atoms: C_15  and  C_16
REMARK    7  A    between atoms: C_26  and  O_27
REMARK                            x       y       z     vdW  Elec       q    Type
REMARK                         _______ _______ _______ _____ _____    ______ ____
ROOT
ATOM      1  C   UNL     1       1.868   3.841  18.241  0.00  0.00    +0.000 C 
ATOM      2  C   UNL     1       2.077   5.344  17.957  0.00  0.00    +0.000 C 
ATOM      3  C   UNL     1       2.850   5.945  19.162  0.00  0.00    +0.000 C 
ATOM      4  C   UNL     1       3.014   4.771  20.146  0.00  0.00    +0.000 C 
ATOM      5  C   UNL     1       1.880   3.812  19.779  0.00  0.00    +0.000 C 
ENDROOT
BRANCH   3   6
ATOM      6  C   UNL     1       2.088   7.076  19.792  0.00  0.00    +0.000 A 
ATOM      7  N   UNL     1       1.538   7.043  20.997  0.00  0.00    +0.000 NA
ATOM      8  N   UNL     1       0.909   8.233  21.233  0.00  0.00    +0.000 NA
ATOM      9  C   UNL     1       1.074   8.991  20.173  0.00  0.00    +0.000 A 
ATOM     10  N   UNL     1       1.833   8.312  19.255  0.00  0.00    +0.000 N 
ATOM     11  C   UNL     1       2.177   8.886  17.972  0.00  0.00    +0.000 C 
ATOM     12  C   UNL     1       1.928  10.397  17.979  0.00  0.00    +0.000 C 
ATOM     13  O   UNL     1       0.641  10.682  18.541  0.00  0.00    +0.000 OA
ATOM     14  C   UNL     1       0.596  10.379  19.948  0.00  0.00    +0.000 C 
ENDBRANCH   3   6
BRANCH   5  15
ATOM     15  O   UNL     1       2.031   2.522  20.340  0.00  0.00    +0.000 OA
ATOM     16  H   UNL     1       2.636   1.984  19.806  0.00  0.00    +0.000 HD
ENDBRANCH   5  15
BRANCH   1  17
ATOM     17  C   UNL     1       2.936   2.938  17.596  0.00  0.00    +0.000 C 
BRANCH  17  18
ATOM     18  N   UNL     1       4.289   3.274  18.003  0.00  0.00    +0.000 N 
ATOM     19  H   UNL     1       4.651   3.005  18.911  0.00  0.00    +0.000 HD
BRANCH  18  25
ATOM     20  C   UNL     1       6.332   3.895  13.745  0.00  0.00    +0.000 C 
ATOM     21  C   UNL     1       6.172   4.352  15.166  0.00  0.00    +0.000 A 
ATOM     22  C   UNL     1       6.871   5.461  15.619  0.00  0.00    +0.000 A 
ATOM     23  C   UNL     1       6.701   5.862  16.942  0.00  0.00    +0.000 A 
ATOM     24  C   UNL     1       5.835   5.125  17.755  0.00  0.00    +0.000 A 
ATOM     25  C   UNL     1       5.162   4.022  17.249  0.00  0.00    +0.000 A 
ATOM     26  N   UNL     1       5.331   3.640  15.965  0.00  0.00    +0.000 NA
BRANCH  23  27
ATOM     27  C   UNL     1       7.415   7.057  17.504  0.00  0.00    +0.000 C 
ATOM     28  F   UNL     1       6.582   8.068  17.877  0.00  0.00    +0.000 F 
ATOM     29  F   UNL     1       8.146   6.746  18.611  0.00  0.00    +0.000 F 
ATOM     30  F   UNL     1       8.295   7.601  16.619  0.00  0.00    +0.000 F 
ENDBRANCH  23  27
ENDBRANCH  18  25
ENDBRANCH  17  18
ENDBRANCH   1  17
TORSDOF 6
ENDMDL
MODEL 6
REMARK VINA RESULT:      -8.5      1.164      1.479
REMARK  Name = 
REMARK  7 active torsions:
REMARK  status: ('A' for Active; 'I' for Inactive)
REMARK    1  A    between atoms: C_1  and  C_2
REMARK    2  A    between atoms: C_4  and  C_5
REMARK    3  A    between atoms: C_10  and  N_11
REMARK    4  A    between atoms: N_11  and  C_12
REMARK    5  A    between atoms: C_12  and  C_13
REMARK    6  A    between atoms: C_15  and  C_16
REMARK    7  A    between atoms: C_26  and  O_27
REMARK                            x       y       z     vdW  Elec       q    Type
REMARK                         _______ _______ _______ _____ _____    ______ ____
ROOT
ATOM      1  C   UNL     1       2.097   3.627  18.591  0.00  0.00    +0.000 C 
ATOM      2  C   UNL     1       1.918   5.077  18.094  0.00  0.00    +0.000 C 
ATOM      3  C   UNL     1       2.888   5.974  18.911  0.00  0.00    +0.000 C 
ATOM      4  C   UNL     1       3.562   5.013  19.910  0.00  0.00    +0.000 C 
ATOM      5  C   UNL     1       2.576   3.851  20.036  0.00  0.00    +0.000 C 
ENDROOT
BRANCH   3   6
ATOM      6  C   UNL     1       2.148   7.068  19.629  0.00  0.00    +0.000 A 
ATOM      7  N   UNL     1       1.645   6.970  20.850  0.00  0.00    +0.000 NA
ATOM      8  N   UNL     1       1.023   8.143  21.172  0.00  0.00    +0.000 NA
ATOM      9  C   UNL     1       1.146   8.956  20.149  0.00  0.00    +0.000 A 
ATOM     10  N   UNL     1       1.871   8.329  19.167  0.00  0.00    +0.000 N 
ATOM     11  C   UNL     1       2.164   8.971  17.904  0.00  0.00    +0.000 C 
ATOM     12  C   UNL     1       1.913  10.479  18.000  0.00  0.00    +0.000 C 
ATOM     13  O   UNL     1       0.647  10.729  18.625  0.00  0.00    +0.000 OA
ATOM     14  C   UNL     1       0.657  10.352  20.015  0.00  0.00    +0.000 C 
ENDBRANCH   3   6
BRANCH   5  15
ATOM     15  O   UNL     1       3.133   2.707  20.654  0.00  0.00    +0.000 OA
ATOM     16  H   UNL     1       2.612   1.916  20.444  0.00  0.00    +0.000 HD
ENDBRANCH   5  15
BRANCH   1  17
ATOM     17  C   UNL     1       3.074   2.799  17.737  0.00  0.00    +0.000 C 
BRANCH  17  18
ATOM     18  N   UNL     1       4.464   3.164  17.943  0.00  0.00    +0.000 N 
ATOM     19  H   UNL     1       4.942   2.958  18.814  0.00  0.00    +0.000 HD
BRANCH  18  25
ATOM     20  C   UNL     1       7.538   6.738  17.256  0.00  0.00    +0.000 C 
ATOM     21  C   UNL     1       6.741   5.605  16.675  0.00  0.00    +0.000 A 
ATOM     22  C   UNL     1       6.822   5.328  15.318  0.00  0.00    +0.000 A 
ATOM     23  C   UNL     1       6.073   4.271  14.807  0.00  0.00    +0.000 A 
ATOM     24  C   UNL     1       5.269   3.539  15.687  0.00  0.00    +0.000 A 
ATOM     25  C   UNL     1       5.226   3.861  17.036  0.00  0.00    +0.000 A 
ATOM     26  N   UNL     1       5.956   4.887  17.523  0.00  0.00    +0.000 NA
BRANCH  23  27
ATOM     27  C   UNL     1       6.113   3.903  13.353  0.00  0.00    +0.000 C 
ATOM     28  F   UNL     1       6.440   2.600  13.126  0.00  0.00    +0.000 F 
ATOM     29  F   UNL     1       4.913   4.100  12.738  0.00  0.00    +0.000 F 
ATOM     30  F   UNL     1       7.015   4.644  12.653  0.00  0.00    +0.000 F 
ENDBRANCH  23  27
ENDBRANCH  18  25
ENDBRANCH  17  18
ENDBRANCH   1  17
TORSDOF 6
ENDMDL
MODEL 7
REMARK VINA RESULT:      -8.5      4.548      8.465
REMARK  Name = 
REMARK  7 active torsions:
REMARK  status: ('A' for Active; 'I' for Inactive)
REMARK    1  A    between atoms: C_1  and  C_2
REMARK    2  A    between atoms: C_4  and  C_5
REMARK    3  A    between atoms: C_10  and  N_11
REMARK    4  A    between atoms: N_11  and  C_12
REMARK    5  A    between atoms: C_12  and  C_13
REMARK    6  A    between atoms: C_15  and  C_16
REMARK    7  A    between atoms: C_26  and  O_27
REMARK                            x       y       z     vdW  Elec       q    Type
REMARK                         _______ _______ _______ _____ _____    ______ ____
ROOT
ATOM      1  C   UNL     1       2.310   8.428  18.846  0.00  0.00    +0.000 C 
ATOM      2  C   UNL     1       3.143   7.717  17.758  0.00  0.00    +0.000 C 
ATOM      3  C   UNL     1       3.029   6.188  18.007  0.00  0.00    +0.000 C 
ATOM      4  C   UNL     1       2.173   6.062  19.282  0.00  0.00    +0.000 C 
ATOM      5  C   UNL     1       2.358   7.403  19.993  0.00  0.00    +0.000 C 
ENDROOT
BRANCH   3   6
ATOM      6  C   UNL     1       4.381   5.562  18.200  0.00  0.00    +0.000 A 
ATOM      7  N   UNL     1       4.865   5.141  19.359  0.00  0.00    +0.000 NA
ATOM      8  N   UNL     1       6.126   4.651  19.165  0.00  0.00    +0.000 NA
ATOM      9  C   UNL     1       6.412   4.774  17.890  0.00  0.00    +0.000 A 
ATOM     10  N   UNL     1       5.332   5.317  17.242  0.00  0.00    +0.000 N 
ATOM     11  C   UNL     1       5.347   5.586  15.820  0.00  0.00    +0.000 C 
ATOM     12  C   UNL     1       6.509   4.846  15.150  0.00  0.00    +0.000 C 
ATOM     13  O   UNL     1       7.714   5.034  15.902  0.00  0.00    +0.000 OA
ATOM     14  C   UNL     1       7.652   4.371  17.179  0.00  0.00    +0.000 C 
ENDBRANCH   3   6
BRANCH   5  15
ATOM     15  O   UNL     1       1.414   7.629  21.021  0.00  0.00    +0.000 OA
ATOM     16  H   UNL     1       1.614   8.450  21.497  0.00  0.00    +0.000 HD
ENDBRANCH   5  15
BRANCH   1  17
ATOM     17  C   UNL     1       0.882   8.783  18.393  0.00  0.00    +0.000 C 
BRANCH  17  18
ATOM     18  N   UNL     1       0.316   9.907  19.117  0.00  0.00    +0.000 N 
ATOM     19  H   UNL     1       0.771  10.290  19.939  0.00  0.00    +0.000 HD
BRANCH  18  25
ATOM     20  C   UNL     1      -3.074  12.951  20.508  0.00  0.00    +0.000 C 
ATOM     21  C   UNL     1      -2.559  11.997  19.469  0.00  0.00    +0.000 A 
ATOM     22  C   UNL     1      -3.282  11.784  18.305  0.00  0.00    +0.000 A 
ATOM     23  C   UNL     1      -2.779  10.894  17.360  0.00  0.00    +0.000 A 
ATOM     24  C   UNL     1      -1.567  10.252  17.629  0.00  0.00    +0.000 A 
ATOM     25  C   UNL     1      -0.885  10.501  18.812  0.00  0.00    +0.000 A 
ATOM     26  N   UNL     1      -1.380  11.366  19.723  0.00  0.00    +0.000 NA
BRANCH  23  27
ATOM     27  C   UNL     1      -3.499  10.618  16.072  0.00  0.00    +0.000 C 
ATOM     28  F   UNL     1      -4.827  10.917  16.110  0.00  0.00    +0.000 F 
ATOM     29  F   UNL     1      -2.985  11.332  15.031  0.00  0.00    +0.000 F 
ATOM     30  F   UNL     1      -3.419   9.310  15.701  0.00  0.00    +0.000 F 
ENDBRANCH  23  27
ENDBRANCH  18  25
ENDBRANCH  17  18
ENDBRANCH   1  17
TORSDOF 6
ENDMDL
MODEL 8
REMARK VINA RESULT:      -8.5      1.345      2.056
REMARK  Name = 
REMARK  7 active torsions:
REMARK  status: ('A' for Active; 'I' for Inactive)
REMARK    1  A    between atoms: C_1  and  C_2
REMARK    2  A    between atoms: C_4  and  C_5
REMARK    3  A    between atoms: C_10  and  N_11
REMARK    4  A    between atoms: N_11  and  C_12
REMARK    5  A    between atoms: C_12  and  C_13
REMARK    6  A    between atoms: C_15  and  C_16
REMARK    7  A    between atoms: C_26  and  O_27
REMARK                            x       y       z     vdW  Elec       q    Type
REMARK                         _______ _______ _______ _____ _____    ______ ____
ROOT
ATOM      1  C   UNL     1       3.130   4.590  18.696  0.00  0.00    +0.000 C 
ATOM      2  C   UNL     1       3.565   6.021  19.076  0.00  0.00    +0.000 C 
ATOM      3  C   UNL     1       2.611   6.517  20.197  0.00  0.00    +0.000 C 
ATOM      4  C   UNL     1       1.603   5.368  20.390  0.00  0.00    +0.000 C 
ATOM      5  C   UNL     1       1.636   4.613  19.060  0.00  0.00    +0.000 C 
ENDROOT
BRANCH   3   6
ATOM      6  C   UNL     1       1.913   7.787  19.799  0.00  0.00    +0.000 A 
ATOM      7  N   UNL     1       1.773   8.219  18.554  0.00  0.00    +0.000 NA
ATOM      8  N   UNL     1       1.109   9.413  18.568  0.00  0.00    +0.000 NA
ATOM      9  C   UNL     1       0.845   9.710  19.819  0.00  0.00    +0.000 A 
ATOM     10  N   UNL     1       1.309   8.701  20.624  0.00  0.00    +0.000 N 
ATOM     11  C   UNL     1       1.174   8.746  22.064  0.00  0.00    +0.000 C 
ATOM     12  C   UNL     1       0.152   9.812  22.471  0.00  0.00    +0.000 C 
ATOM     13  O   UNL     1       0.401  11.031  21.761  0.00  0.00    +0.000 OA
ATOM     14  C   UNL     1       0.124  10.893  20.355  0.00  0.00    +0.000 C 
ENDBRANCH   3   6
BRANCH   5  15
ATOM     15  O   UNL     1       1.027   3.337  19.123  0.00  0.00    +0.000 OA
ATOM     16  H   UNL     1       1.661   2.669  19.426  0.00  0.00    +0.000 HD
ENDBRANCH   5  15
BRANCH   1  17
ATOM     17  C   UNL     1       3.927   3.490  19.421  0.00  0.00    +0.000 C 
BRANCH  17  18
ATOM     18  N   UNL     1       5.356   3.564  19.177  0.00  0.00    +0.000 N 
ATOM     19  H   UNL     1       6.020   3.070  19.763  0.00  0.00    +0.000 HD
BRANCH  18  25
ATOM     20  C   UNL     1       8.053   7.371  18.212  0.00  0.00    +0.000 C 
ATOM     21  C   UNL     1       7.265   6.199  17.703  0.00  0.00    +0.000 A 
ATOM     22  C   UNL     1       7.178   5.964  16.339  0.00  0.00    +0.000 A 
ATOM     23  C   UNL     1       6.441   4.869  15.895  0.00  0.00    +0.000 A 
ATOM     24  C   UNL     1       5.818   4.057  16.848  0.00  0.00    +0.000 A 
ATOM     25  C   UNL     1       5.937   4.340  18.201  0.00  0.00    +0.000 A 
ATOM     26  N   UNL     1       6.654   5.403  18.623  0.00  0.00    +0.000 NA
BRANCH  23  27
ATOM     27  C   UNL     1       6.308   4.543  14.436  0.00  0.00    +0.000 C 
ATOM     28  F   UNL     1       6.492   3.224  14.150  0.00  0.00    +0.000 F 
ATOM     29  F   UNL     1       5.077   4.864  13.947  0.00  0.00    +0.000 F 
ATOM     30  F   UNL     1       7.202   5.223  13.668  0.00  0.00    +0.000 F 
ENDBRANCH  23  27
ENDBRANCH  18  25
ENDBRANCH  17  18
ENDBRANCH   1  17
TORSDOF 6
ENDMDL
MODEL 9
REMARK VINA RESULT:      -8.5      4.771      8.052
REMARK  Name = 
REMARK  7 active torsions:
REMARK  status: ('A' for Active; 'I' for Inactive)
REMARK    1  A    between atoms: C_1  and  C_2
REMARK    2  A    between atoms: C_4  and  C_5
REMARK    3  A    between atoms: C_10  and  N_11
REMARK    4  A    between atoms: N_11  and  C_12
REMARK    5  A    between atoms: C_12  and  C_13
REMARK    6  A    between atoms: C_15  and  C_16
REMARK    7  A    between atoms: C_26  and  O_27
REMARK                            x       y       z     vdW  Elec       q    Type
REMARK                         _______ _______ _______ _____ _____    ______ ____
ROOT
ATOM      1  C   UNL     1       4.289   5.294  18.812  0.00  0.00    +0.000 C 
ATOM      2  C   UNL     1       4.347   5.928  17.407  0.00  0.00    +0.000 C 
ATOM      3  C   UNL     1       4.515   4.775  16.380  0.00  0.00    +0.000 C 
ATOM      4  C   UNL     1       4.612   3.499  17.237  0.00  0.00    +0.000 C 
ATOM      5  C   UNL     1       5.091   3.998  18.601  0.00  0.00    +0.000 C 
ENDROOT
BRANCH   3   6
ATOM      6  C   UNL     1       5.751   4.960  15.546  0.00  0.00    +0.000 A 
ATOM      7  N   UNL     1       6.830   5.629  15.925  0.00  0.00    +0.000 NA
ATOM      8  N   UNL     1       7.745   5.612  14.911  0.00  0.00    +0.000 NA
ATOM      9  C   UNL     1       7.226   4.934  13.913  0.00  0.00    +0.000 A 
ATOM     10  N   UNL     1       5.984   4.484  14.281  0.00  0.00    +0.000 N 
ATOM     11  C   UNL     1       5.153   3.711  13.383  0.00  0.00    +0.000 C 
ATOM     12  C   UNL     1       5.986   3.175  12.214  0.00  0.00    +0.000 C 
ATOM     13  O   UNL     1       6.804   4.219  11.672  0.00  0.00    +0.000 OA
ATOM     14  C   UNL     1       7.834   4.620  12.595  0.00  0.00    +0.000 C 
ENDBRANCH   3   6
BRANCH   5  15
ATOM     15  O   UNL     1       4.943   3.042  19.633  0.00  0.00    +0.000 OA
ATOM     16  H   UNL     1       4.348   3.372  20.324  0.00  0.00    +0.000 HD
ENDBRANCH   5  15
BRANCH   1  17
ATOM     17  C   UNL     1       2.855   5.058  19.323  0.00  0.00    +0.000 C 
BRANCH  17  18
ATOM     18  N   UNL     1       2.524   5.860  20.486  0.00  0.00    +0.000 N 
ATOM     19  H   UNL     1       2.645   5.503  21.428  0.00  0.00    +0.000 HD
BRANCH  18  25
ATOM     20  C   UNL     1       1.685   9.711  17.810  0.00  0.00    +0.000 C 
ATOM     21  C   UNL     1       1.540   9.015  19.133  0.00  0.00    +0.000 A 
ATOM     22  C   UNL     1       0.874   9.644  20.175  0.00  0.00    +0.000 A 
ATOM     23  C   UNL     1       0.754   8.974  21.390  0.00  0.00    +0.000 A 
ATOM     24  C   UNL     1       1.314   7.698  21.505  0.00  0.00    +0.000 A 
ATOM     25  C   UNL     1       1.970   7.117  20.429  0.00  0.00    +0.000 A 
ATOM     26  N   UNL     1       2.082   7.773  19.254  0.00  0.00    +0.000 NA
BRANCH  23  27
ATOM     27  C   UNL     1       0.041   9.584  22.562  0.00  0.00    +0.000 C 
ATOM     28  F   UNL     1      -1.167   9.012  22.826  0.00  0.00    +0.000 F 
ATOM     29  F   UNL     1       0.763   9.482  23.713  0.00  0.00    +0.000 F 
ATOM     30  F   UNL     1      -0.200  10.912  22.391  0.00  0.00    +0.000 F 
ENDBRANCH  23  27
ENDBRANCH  18  25
ENDBRANCH  17  18
ENDBRANCH   1  17
TORSDOF 6
ENDMDL
