MODEL 1
REMARK VINA RESULT:      -8.5      0.000      0.000
REMARK  Name = 
REMARK  5 active torsions:
REMARK  status: ('A' for Active; 'I' for Inactive)
REMARK    1  A    between atoms: C_2  and  C_3
REMARK    2  A    between atoms: C_7  and  C_8
REMARK    3  A    between atoms: C_11  and  C_12
REMARK    4  A    between atoms: C_22  and  C_23
REMARK    5  A    between atoms: C_26  and  O_27
REMARK                            x       y       z     vdW  Elec       q    Type
REMARK                         _______ _______ _______ _____ _____    ______ ____
ROOT
ATOM      1  O   UNL     1      -0.044   9.816  22.137  0.00  0.00    +0.000 OA
ATOM      2  C   UNL     1       0.411  10.356  21.127  0.00  0.00    +0.000 C 
ATOM      3  N   UNL     1       0.419  11.743  20.958  0.00  0.00    +0.000 N 
ATOM      4  C   UNL     1       1.113  12.514  19.937  0.00  0.00    +0.000 C 
ATOM      5  C   UNL     1       1.427  13.847  20.578  0.00  0.00    +0.000 C 
ATOM      6  C   UNL     1       0.296  14.054  21.570  0.00  0.00    +0.000 C 
ATOM      7  C   UNL     1      -0.172  12.634  21.962  0.00  0.00    +0.000 C 
ENDROOT
BRANCH   2   8
ATOM      8  C   UNL     1       1.019   9.482  20.076  0.00  0.00    +0.000 A 
ATOM      9  C   UNL     1       1.182   9.903  18.751  0.00  0.00    +0.000 A 
ATOM     10  C   UNL     1       1.906   9.133  17.842  0.00  0.00    +0.000 A 
ATOM     11  C   UNL     1       2.395   7.890  18.229  0.00  0.00    +0.000 A 
ATOM     12  C   UNL     1       2.131   7.384  19.511  0.00  0.00    +0.000 A 
ATOM     13  C   UNL     1       1.440   8.189  20.432  0.00  0.00    +0.000 A 
BRANCH  12  14
ATOM     14  C   UNL     1       2.556   6.033  19.859  0.00  0.00    +0.000 A 
ATOM     15  N   UNL     1       3.696   5.477  19.418  0.00  0.00    +0.000 NA
ATOM     16  O   UNL     1       3.642   4.173  19.893  0.00  0.00    +0.000 OA
ATOM     17  C   UNL     1       2.467   4.053  20.577  0.00  0.00    +0.000 A 
ATOM     18  N   UNL     1       1.781   5.181  20.612  0.00  0.00    +0.000 NA
BRANCH  17  19
ATOM     19  C   UNL     1       2.157   2.699  21.100  0.00  0.00    +0.000 C 
ATOM     20  F   UNL     1       3.197   2.150  21.788  0.00  0.00    +0.000 F 
ATOM     21  F   UNL     1       1.095   2.699  21.948  0.00  0.00    +0.000 F 
ATOM     22  F   UNL     1       1.860   1.822  20.103  0.00  0.00    +0.000 F 
ENDBRANCH  17  19
ENDBRANCH  12  14
ENDBRANCH   2   8
BRANCH   7  23
ATOM     23  C   UNL     1      -1.689  12.608  21.997  0.00  0.00    +0.000 A 
ATOM     24  C   UNL     1      -2.458  12.739  20.828  0.00  0.00    +0.000 A 
ATOM     25  C   UNL     1      -3.852  12.756  20.883  0.00  0.00    +0.000 A 
ATOM     26  C   UNL     1      -4.486  12.657  22.115  0.00  0.00    +0.000 A 
ATOM     27  C   UNL     1      -3.751  12.562  23.290  0.00  0.00    +0.000 A 
ATOM     28  C   UNL     1      -2.355  12.532  23.232  0.00  0.00    +0.000 A 
BRANCH  26  29
ATOM     29  O   UNL     1      -5.846  12.645  22.207  0.00  0.00    +0.000 OA
ATOM     30  H   UNL     1      -6.202  12.447  21.326  0.00  0.00    +0.000 HD
ENDBRANCH  26  29
ENDBRANCH   7  23
TORSDOF 5
ENDMDL
MODEL 2
REMARK VINA RESULT:      -8.5      0.377      1.188
REMARK  Name = 
REMARK  5 active torsions:
REMARK  status: ('A' for Active; 'I' for Inactive)
REMARK    1  A    between atoms: C_2  and  C_3
REMARK    2  A    between atoms: C_7  and  C_8
REMARK    3  A    between atoms: C_11  and  C_12
REMARK    4  A    between atoms: C_22  and  C_23
REMARK    5  A    between atoms: C_26  and  O_27
REMARK                            x       y       z     vdW  Elec       q    Type
REMARK                         _______ _______ _______ _____ _____    ______ ____
ROOT
ATOM      1  O   UNL     1       0.439  10.177  22.148  0.00  0.00    +0.000 OA
ATOM      2  C   UNL     1       0.683  10.600  21.015  0.00  0.00    +0.000 C 
ATOM      3  N   UNL     1       0.574  11.952  20.682  0.00  0.00    +0.000 N 
ATOM      4  C   UNL     1       1.037  12.613  19.471  0.00  0.00    +0.000 C 
ATOM      5  C   UNL     1       1.369  14.030  19.881  0.00  0.00    +0.000 C 
ATOM      6  C   UNL     1       0.411  14.316  21.024  0.00  0.00    +0.000 C 
ATOM      7  C   UNL     1       0.106  12.941  21.660  0.00  0.00    +0.000 C 
ENDROOT
BRANCH   2   8
ATOM      8  C   UNL     1       1.159   9.623  19.987  0.00  0.00    +0.000 A 
ATOM      9  C   UNL     1       1.226   9.940  18.625  0.00  0.00    +0.000 A 
ATOM     10  C   UNL     1       1.835   9.071  17.721  0.00  0.00    +0.000 A 
ATOM     11  C   UNL     1       2.299   7.835  18.160  0.00  0.00    +0.000 A 
ATOM     12  C   UNL     1       2.124   7.436  19.494  0.00  0.00    +0.000 A 
ATOM     13  C   UNL     1       1.551   8.339  20.405  0.00  0.00    +0.000 A 
BRANCH  12  14
ATOM     14  C   UNL     1       2.517   6.094  19.906  0.00  0.00    +0.000 A 
ATOM     15  N   UNL     1       3.689   5.528  19.575  0.00  0.00    +0.000 NA
ATOM     16  O   UNL     1       3.593   4.236  20.074  0.00  0.00    +0.000 OA
ATOM     17  C   UNL     1       2.365   4.132  20.660  0.00  0.00    +0.000 A 
ATOM     18  N   UNL     1       1.680   5.260  20.613  0.00  0.00    +0.000 NA
BRANCH  17  19
ATOM     19  C   UNL     1       2.011   2.789  21.187  0.00  0.00    +0.000 C 
ATOM     20  F   UNL     1       0.976   2.827  22.071  0.00  0.00    +0.000 F 
ATOM     21  F   UNL     1       1.644   1.926  20.204  0.00  0.00    +0.000 F 
ATOM     22  F   UNL     1       3.050   2.210  21.848  0.00  0.00    +0.000 F 
ENDBRANCH  17  19
ENDBRANCH  12  14
ENDBRANCH   2   8
BRANCH   7  23
ATOM     23  C   UNL     1      -1.379  12.856  21.963  0.00  0.00    +0.000 A 
ATOM     24  C   UNL     1      -1.855  12.528  23.244  0.00  0.00    +0.000 A 
ATOM     25  C   UNL     1      -3.222  12.412  23.494  0.00  0.00    +0.000 A 
ATOM     26  C   UNL     1      -4.123  12.608  22.456  0.00  0.00    +0.000 A 
ATOM     27  C   UNL     1      -3.680  12.899  21.172  0.00  0.00    +0.000 A 
ATOM     28  C   UNL     1      -2.311  13.028  20.926  0.00  0.00    +0.000 A 
BRANCH  26  29
ATOM     29  O   UNL     1      -5.467  12.528  22.669  0.00  0.00    +0.000 OA
ATOM     30  H   UNL     1      -5.839  11.923  22.007  0.00  0.00    +0.000 HD
ENDBRANCH  26  29
ENDBRANCH   7  23
TORSDOF 5
ENDMDL
MODEL 3
REMARK VINA RESULT:      -8.4      4.470      9.637
REMARK  Name = 
REMARK  5 active torsions:
REMARK  status: ('A' for Active; 'I' for Inactive)
REMARK    1  A    between atoms: C_2  and  C_3
REMARK    2  A    between atoms: C_7  and  C_8
REMARK    3  A    between atoms: C_11  and  C_12
REMARK    4  A    between atoms: C_22  and  C_23
REMARK    5  A    between atoms: C_26  and  O_27
REMARK                            x       y       z     vdW  Elec       q    Type
REMARK                         _______ _______ _______ _____ _____    ______ ____
ROOT
ATOM      1  O   UNL     1       4.253   6.893  19.475  0.00  0.00    +0.000 OA
ATOM      2  C   UNL     1       3.170   6.719  18.912  0.00  0.00    +0.000 C 
ATOM      3  N   UNL     1       2.776   5.474  18.415  0.00  0.00    +0.000 N 
ATOM      4  C   UNL     1       1.459   5.079  17.938  0.00  0.00    +0.000 C 
ATOM      5  C   UNL     1       1.349   3.598  18.226  0.00  0.00    +0.000 C 
ATOM      6  C   UNL     1       2.779   3.097  18.128  0.00  0.00    +0.000 C 
ATOM      7  C   UNL     1       3.666   4.309  18.489  0.00  0.00    +0.000 C 
ENDROOT
BRANCH   2   8
ATOM      8  C   UNL     1       2.234   7.882  18.812  0.00  0.00    +0.000 A 
ATOM      9  C   UNL     1       1.840   8.424  17.583  0.00  0.00    +0.000 A 
ATOM     10  C   UNL     1       0.838   9.391  17.520  0.00  0.00    +0.000 A 
ATOM     11  C   UNL     1       0.286   9.889  18.696  0.00  0.00    +0.000 A 
ATOM     12  C   UNL     1       0.758   9.460  19.946  0.00  0.00    +0.000 A 
ATOM     13  C   UNL     1       1.736   8.453  19.996  0.00  0.00    +0.000 A 
BRANCH  12  14
ATOM     14  C   UNL     1       0.246  10.076  21.164  0.00  0.00    +0.000 A 
ATOM     15  N   UNL     1       0.606   9.692  22.399  0.00  0.00    +0.000 NA
ATOM     16  O   UNL     1      -0.194  10.457  23.238  0.00  0.00    +0.000 OA
ATOM     17  C   UNL     1      -0.974  11.236  22.434  0.00  0.00    +0.000 A 
ATOM     18  N   UNL     1      -0.715  11.062  21.150  0.00  0.00    +0.000 NA
BRANCH  17  19
ATOM     19  C   UNL     1      -1.980  12.079  23.127  0.00  0.00    +0.000 C 
ATOM     20  F   UNL     1      -2.821  12.712  22.263  0.00  0.00    +0.000 F 
ATOM     21  F   UNL     1      -2.768  11.360  23.970  0.00  0.00    +0.000 F 
ATOM     22  F   UNL     1      -1.400  13.056  23.874  0.00  0.00    +0.000 F 
ENDBRANCH  17  19
ENDBRANCH  12  14
ENDBRANCH   2   8
BRANCH   7  23
ATOM     23  C   UNL     1       4.840   4.366  17.528  0.00  0.00    +0.000 A 
ATOM     24  C   UNL     1       6.164   4.476  17.985  0.00  0.00    +0.000 A 
ATOM     25  C   UNL     1       7.228   4.570  17.087  0.00  0.00    +0.000 A 
ATOM     26  C   UNL     1       6.969   4.571  15.723  0.00  0.00    +0.000 A 
ATOM     27  C   UNL     1       5.668   4.499  15.244  0.00  0.00    +0.000 A 
ATOM     28  C   UNL     1       4.604   4.392  16.144  0.00  0.00    +0.000 A 
BRANCH  26  29
ATOM     29  O   UNL     1       7.984   4.636  14.816  0.00  0.00    +0.000 OA
ATOM     30  H   UNL     1       7.642   4.325  13.962  0.00  0.00    +0.000 HD
ENDBRANCH  26  29
ENDBRANCH   7  23
TORSDOF 5
ENDMDL
MODEL 4
REMARK VINA RESULT:      -8.3      3.663      4.641
REMARK  Name = 
REMARK  5 active torsions:
REMARK  status: ('A' for Active; 'I' for Inactive)
REMARK    1  A    between atoms: C_2  and  C_3
REMARK    2  A    between atoms: C_7  and  C_8
REMARK    3  A    between atoms: C_11  and  C_12
REMARK    4  A    between atoms: C_22  and  C_23
REMARK    5  A    between atoms: C_26  and  O_27
REMARK                            x       y       z     vdW  Elec       q    Type
REMARK                         _______ _______ _______ _____ _____    ______ ____
ROOT
ATOM      1  O   UNL     1       0.116   8.970  20.950  0.00  0.00    +0.000 OA
ATOM      2  C   UNL     1       0.911   8.906  20.009  0.00  0.00    +0.000 C 
ATOM      3  N   UNL     1       1.121   9.973  19.133  0.00  0.00    +0.000 N 
ATOM      4  C   UNL     1       2.171  10.116  18.135  0.00  0.00    +0.000 C 
ATOM      5  C   UNL     1       2.420  11.602  18.016  0.00  0.00    +0.000 C 
ATOM      6  C   UNL     1       1.073  12.228  18.329  0.00  0.00    +0.000 C 
ATOM      7  C   UNL     1       0.356  11.219  19.255  0.00  0.00    +0.000 C 
ENDROOT
BRANCH   2   8
ATOM      8  C   UNL     1       1.708   7.651  19.847  0.00  0.00    +0.000 A 
ATOM      9  C   UNL     1       1.629   6.588  20.755  0.00  0.00    +0.000 A 
ATOM     10  C   UNL     1       2.251   5.371  20.483  0.00  0.00    +0.000 A 
ATOM     11  C   UNL     1       3.034   5.237  19.341  0.00  0.00    +0.000 A 
ATOM     12  C   UNL     1       3.240   6.328  18.482  0.00  0.00    +0.000 A 
ATOM     13  C   UNL     1       2.571   7.536  18.743  0.00  0.00    +0.000 A 
BRANCH  12  14
ATOM     14  C   UNL     1       4.153   6.199  17.353  0.00  0.00    +0.000 A 
ATOM     15  N   UNL     1       4.638   7.246  16.666  0.00  0.00    +0.000 NA
ATOM     16  O   UNL     1       5.359   6.666  15.631  0.00  0.00    +0.000 OA
ATOM     17  C   UNL     1       5.242   5.315  15.779  0.00  0.00    +0.000 A 
ATOM     18  N   UNL     1       4.537   4.978  16.845  0.00  0.00    +0.000 NA
BRANCH  17  19
ATOM     19  C   UNL     1       5.869   4.490  14.716  0.00  0.00    +0.000 C 
ATOM     20  F   UNL     1       5.015   4.215  13.691  0.00  0.00    +0.000 F 
ATOM     21  F   UNL     1       6.952   5.094  14.160  0.00  0.00    +0.000 F 
ATOM     22  F   UNL     1       6.293   3.286  15.187  0.00  0.00    +0.000 F 
ENDBRANCH  17  19
ENDBRANCH  12  14
ENDBRANCH   2   8
BRANCH   7  23
ATOM     23  C   UNL     1      -1.095  11.099  18.823  0.00  0.00    +0.000 A 
ATOM     24  C   UNL     1      -1.495  10.205  17.815  0.00  0.00    +0.000 A 
ATOM     25  C   UNL     1      -2.825  10.139  17.402  0.00  0.00    +0.000 A 
ATOM     26  C   UNL     1      -3.763  10.981  17.984  0.00  0.00    +0.000 A 
ATOM     27  C   UNL     1      -3.389  11.899  18.957  0.00  0.00    +0.000 A 
ATOM     28  C   UNL     1      -2.059  11.956  19.381  0.00  0.00    +0.000 A 
BRANCH  26  29
ATOM     29  O   UNL     1      -5.076  10.927  17.624  0.00  0.00    +0.000 OA
ATOM     30  H   UNL     1      -5.435  10.079  17.930  0.00  0.00    +0.000 HD
ENDBRANCH  26  29
ENDBRANCH   7  23
TORSDOF 5
ENDMDL
MODEL 5
REMARK VINA RESULT:      -8.3      5.094     10.063
REMARK  Name = 
REMARK  5 active torsions:
REMARK  status: ('A' for Active; 'I' for Inactive)
REMARK    1  A    between atoms: C_2  and  C_3
REMARK    2  A    between atoms: C_7  and  C_8
REMARK    3  A    between atoms: C_11  and  C_12
REMARK    4  A    between atoms: C_22  and  C_23
REMARK    5  A    between atoms: C_26  and  O_27
REMARK                            x       y       z     vdW  Elec       q    Type
REMARK                         _______ _______ _______ _____ _____    ______ ____
ROOT
ATOM      1  O   UNL     1       4.695   5.672  19.796  0.00  0.00    +0.000 OA
ATOM      2  C   UNL     1       3.545   5.507  19.383  0.00  0.00    +0.000 C 
ATOM      3  N   UNL     1       3.193   4.437  18.556  0.00  0.00    +0.000 N 
ATOM      4  C   UNL     1       1.856   4.000  18.183  0.00  0.00    +0.000 C 
ATOM      5  C   UNL     1       1.963   2.508  17.959  0.00  0.00    +0.000 C 
ATOM      6  C   UNL     1       3.388   2.311  17.475  0.00  0.00    +0.000 C 
ATOM      7  C   UNL     1       4.197   3.475  18.088  0.00  0.00    +0.000 C 
ENDROOT
BRANCH   2   8
ATOM      8  C   UNL     1       2.491   6.468  19.834  0.00  0.00    +0.000 A 
ATOM      9  C   UNL     1       1.575   6.157  20.846  0.00  0.00    +0.000 A 
ATOM     10  C   UNL     1       0.722   7.133  21.358  0.00  0.00    +0.000 A 
ATOM     11  C   UNL     1       0.716   8.406  20.798  0.00  0.00    +0.000 A 
ATOM     12  C   UNL     1       1.529   8.707  19.694  0.00  0.00    +0.000 A 
ATOM     13  C   UNL     1       2.416   7.729  19.216  0.00  0.00    +0.000 A 
BRANCH  12  14
ATOM     14  C   UNL     1       1.425  10.012  19.053  0.00  0.00    +0.000 A 
ATOM     15  N   UNL     1       2.198  10.398  18.024  0.00  0.00    +0.000 NA
ATOM     16  O   UNL     1       1.841  11.723  17.811  0.00  0.00    +0.000 OA
ATOM     17  C   UNL     1       0.884  12.025  18.736  0.00  0.00    +0.000 A 
ATOM     18  N   UNL     1       0.570  10.994  19.500  0.00  0.00    +0.000 NA
BRANCH  17  19
ATOM     19  C   UNL     1       0.418  13.434  18.749  0.00  0.00    +0.000 C 
ATOM     20  F   UNL     1      -0.075  13.815  19.960  0.00  0.00    +0.000 F 
ATOM     21  F   UNL     1       1.410  14.313  18.447  0.00  0.00    +0.000 F 
ATOM     22  F   UNL     1      -0.581  13.650  17.850  0.00  0.00    +0.000 F 
ENDBRANCH  17  19
ENDBRANCH  12  14
ENDBRANCH   2   8
BRANCH   7  23
ATOM     23  C   UNL     1       5.140   4.029  17.035  0.00  0.00    +0.000 A 
ATOM     24  C   UNL     1       4.731   4.223  15.704  0.00  0.00    +0.000 A 
ATOM     25  C   UNL     1       5.622   4.693  14.740  0.00  0.00    +0.000 A 
ATOM     26  C   UNL     1       6.938   4.955  15.100  0.00  0.00    +0.000 A 
ATOM     27  C   UNL     1       7.379   4.739  16.399  0.00  0.00    +0.000 A 
ATOM     28  C   UNL     1       6.481   4.282  17.366  0.00  0.00    +0.000 A 
BRANCH  26  29
ATOM     29  O   UNL     1       7.831   5.439  14.191  0.00  0.00    +0.000 OA
ATOM     30  H   UNL     1       7.743   6.405  14.170  0.00  0.00    +0.000 HD
ENDBRANCH  26  29
ENDBRANCH   7  23
TORSDOF 5
ENDMDL
MODEL 6
REMARK VINA RESULT:      -8.3      5.198     10.090
REMARK  Name = 
REMARK  5 active torsions:
REMARK  status: ('A' for Active; 'I' for Inactive)
REMARK    1  A    between atoms: C_2  and  C_3
REMARK    2  A    between atoms: C_7  and  C_8
REMARK    3  A    between atoms: C_11  and  C_12
REMARK    4  A    between atoms: C_22  and  C_23
REMARK    5  A    between atoms: C_26  and  O_27
REMARK                            x       y       z     vdW  Elec       q    Type
REMARK                         _______ _______ _______ _____ _____    ______ ____
ROOT
ATOM      1  O   UNL     1       4.704   5.620  19.818  0.00  0.00    +0.000 OA
ATOM      2  C   UNL     1       3.558   5.476  19.384  0.00  0.00    +0.000 C 
ATOM      3  N   UNL     1       3.198   4.404  18.563  0.00  0.00    +0.000 N 
ATOM      4  C   UNL     1       1.859   3.992  18.170  0.00  0.00    +0.000 C 
ATOM      5  C   UNL     1       1.937   2.496  17.965  0.00  0.00    +0.000 C 
ATOM      6  C   UNL     1       3.366   2.261  17.510  0.00  0.00    +0.000 C 
ATOM      7  C   UNL     1       4.189   3.415  18.125  0.00  0.00    +0.000 C 
ENDROOT
BRANCH   2   8
ATOM      8  C   UNL     1       2.518   6.465  19.804  0.00  0.00    +0.000 A 
ATOM      9  C   UNL     1       1.574   6.185  20.799  0.00  0.00    +0.000 A 
ATOM     10  C   UNL     1       0.733   7.185  21.284  0.00  0.00    +0.000 A 
ATOM     11  C   UNL     1       0.768   8.453  20.712  0.00  0.00    +0.000 A 
ATOM     12  C   UNL     1       1.611   8.724  19.624  0.00  0.00    +0.000 A 
ATOM     13  C   UNL     1       2.486   7.721  19.173  0.00  0.00    +0.000 A 
BRANCH  12  14
ATOM     14  C   UNL     1       1.552  10.025  18.968  0.00  0.00    +0.000 A 
ATOM     15  N   UNL     1       2.227  10.323  17.846  0.00  0.00    +0.000 NA
ATOM     16  O   UNL     1       1.971  11.673  17.646  0.00  0.00    +0.000 OA
ATOM     17  C   UNL     1       1.165  12.076  18.670  0.00  0.00    +0.000 A 
ATOM     18  N   UNL     1       0.852  11.089  19.491  0.00  0.00    +0.000 NA
BRANCH  17  19
ATOM     19  C   UNL     1       0.836  13.523  18.705  0.00  0.00    +0.000 C 
ATOM     20  F   UNL     1       1.801  14.296  18.133  0.00  0.00    +0.000 F 
ATOM     21  F   UNL     1      -0.321  13.809  18.051  0.00  0.00    +0.000 F 
ATOM     22  F   UNL     1       0.689  13.983  19.977  0.00  0.00    +0.000 F 
ENDBRANCH  17  19
ENDBRANCH  12  14
ENDBRANCH   2   8
BRANCH   7  23
ATOM     23  C   UNL     1       5.164   3.935  17.084  0.00  0.00    +0.000 A 
ATOM     24  C   UNL     1       6.491   4.263  17.413  0.00  0.00    +0.000 A 
ATOM     25  C   UNL     1       7.361   4.781  16.453  0.00  0.00    +0.000 A 
ATOM     26  C   UNL     1       6.901   4.989  15.160  0.00  0.00    +0.000 A 
ATOM     27  C   UNL     1       5.586   4.708  14.816  0.00  0.00    +0.000 A 
ATOM     28  C   UNL     1       4.719   4.177  15.774  0.00  0.00    +0.000 A 
BRANCH  26  29
ATOM     29  O   UNL     1       7.729   5.470  14.189  0.00  0.00    +0.000 OA
ATOM     30  H   UNL     1       7.411   6.350  13.934  0.00  0.00    +0.000 HD
ENDBRANCH  26  29
ENDBRANCH   7  23
TORSDOF 5
ENDMDL
MODEL 7
REMARK VINA RESULT:      -8.3      4.979      9.857
REMARK  Name = 
REMARK  5 active torsions:
REMARK  status: ('A' for Active; 'I' for Inactive)
REMARK    1  A    between atoms: C_2  and  C_3
REMARK    2  A    between atoms: C_7  and  C_8
REMARK    3  A    between atoms: C_11  and  C_12
REMARK    4  A    between atoms: C_22  and  C_23
REMARK    5  A    between atoms: C_26  and  O_27
REMARK                            x       y       z     vdW  Elec       q    Type
REMARK                         _______ _______ _______ _____ _____    ______ ____
ROOT
ATOM      1  O   UNL     1       3.929   7.244  16.831  0.00  0.00    +0.000 OA
ATOM      2  C   UNL     1       4.142   6.572  17.843  0.00  0.00    +0.000 C 
ATOM      3  N   UNL     1       5.388   6.002  18.115  0.00  0.00    +0.000 N 
ATOM      4  C   UNL     1       5.836   5.386  19.356  0.00  0.00    +0.000 C 
ATOM      5  C   UNL     1       7.329   5.617  19.409  0.00  0.00    +0.000 C 
ATOM      6  C   UNL     1       7.749   5.646  17.950  0.00  0.00    +0.000 C 
ATOM      7  C   UNL     1       6.505   6.129  17.172  0.00  0.00    +0.000 C 
ENDROOT
BRANCH   2   8
ATOM      8  C   UNL     1       3.028   6.415  18.828  0.00  0.00    +0.000 A 
ATOM      9  C   UNL     1       2.399   5.185  19.061  0.00  0.00    +0.000 A 
ATOM     10  C   UNL     1       1.487   5.038  20.105  0.00  0.00    +0.000 A 
ATOM     11  C   UNL     1       1.129   6.145  20.868  0.00  0.00    +0.000 A 
ATOM     12  C   UNL     1       1.642   7.417  20.570  0.00  0.00    +0.000 A 
ATOM     13  C   UNL     1       2.595   7.544  19.545  0.00  0.00    +0.000 A 
BRANCH  12  14
ATOM     14  C   UNL     1       1.168   8.580  21.309  0.00  0.00    +0.000 A 
ATOM     15  N   UNL     1       1.558   8.876  22.560  0.00  0.00    +0.000 NA
ATOM     16  O   UNL     1       0.787   9.979  22.902  0.00  0.00    +0.000 OA
ATOM     17  C   UNL     1      -0.008  10.252  21.827  0.00  0.00    +0.000 A 
ATOM     18  N   UNL     1       0.215   9.439  20.810  0.00  0.00    +0.000 NA
BRANCH  17  19
ATOM     19  C   UNL     1      -0.988  11.351  22.010  0.00  0.00    +0.000 C 
ATOM     20  F   UNL     1      -1.858  11.117  23.031  0.00  0.00    +0.000 F 
ATOM     21  F   UNL     1      -0.391  12.541  22.282  0.00  0.00    +0.000 F 
ATOM     22  F   UNL     1      -1.752  11.543  20.900  0.00  0.00    +0.000 F 
ENDBRANCH  17  19
ENDBRANCH  12  14
ENDBRANCH   2   8
BRANCH   7  23
ATOM     23  C   UNL     1       6.352   5.290  15.916  0.00  0.00    +0.000 A 
ATOM     24  C   UNL     1       5.486   4.184  15.866  0.00  0.00    +0.000 A 
ATOM     25  C   UNL     1       5.390   3.399  14.717  0.00  0.00    +0.000 A 
ATOM     26  C   UNL     1       6.175   3.707  13.615  0.00  0.00    +0.000 A 
ATOM     27  C   UNL     1       7.066   4.772  13.648  0.00  0.00    +0.000 A 
ATOM     28  C   UNL     1       7.152   5.566  14.794  0.00  0.00    +0.000 A 
BRANCH  26  29
ATOM     29  O   UNL     1       6.091   2.977  12.466  0.00  0.00    +0.000 OA
ATOM     30  H   UNL     1       5.327   2.383  12.545  0.00  0.00    +0.000 HD
ENDBRANCH  26  29
ENDBRANCH   7  23
TORSDOF 5
ENDMDL
MODEL 8
REMARK VINA RESULT:      -8.2      3.723      5.201
REMARK  Name = 
REMARK  5 active torsions:
REMARK  status: ('A' for Active; 'I' for Inactive)
REMARK    1  A    between atoms: C_2  and  C_3
REMARK    2  A    between atoms: C_7  and  C_8
REMARK    3  A    between atoms: C_11  and  C_12
REMARK    4  A    between atoms: C_22  and  C_23
REMARK    5  A    between atoms: C_26  and  O_27
REMARK                            x       y       z     vdW  Elec       q    Type
REMARK                         _______ _______ _______ _____ _____    ______ ____
ROOT
ATOM      1  O   UNL     1       0.545   9.660  18.327  0.00  0.00    +0.000 OA
ATOM      2  C   UNL     1       0.966   9.251  19.411  0.00  0.00    +0.000 C 
ATOM      3  N   UNL     1       0.658   9.880  20.620  0.00  0.00    +0.000 N 
ATOM      4  C   UNL     1       0.895   9.388  21.968  0.00  0.00    +0.000 C 
ATOM      5  C   UNL     1      -0.202   9.986  22.819  0.00  0.00    +0.000 C 
ATOM      6  C   UNL     1      -0.512  11.309  22.143  0.00  0.00    +0.000 C 
ATOM      7  C   UNL     1      -0.146  11.107  20.655  0.00  0.00    +0.000 C 
ENDROOT
BRANCH   2   8
ATOM      8  C   UNL     1       1.794   8.005  19.418  0.00  0.00    +0.000 A 
ATOM      9  C   UNL     1       1.738   7.073  20.462  0.00  0.00    +0.000 A 
ATOM     10  C   UNL     1       2.389   5.845  20.355  0.00  0.00    +0.000 A 
ATOM     11  C   UNL     1       3.178   5.578  19.241  0.00  0.00    +0.000 A 
ATOM     12  C   UNL     1       3.359   6.547  18.243  0.00  0.00    +0.000 A 
ATOM     13  C   UNL     1       2.661   7.763  18.339  0.00  0.00    +0.000 A 
BRANCH  12  14
ATOM     14  C   UNL     1       4.278   6.289  17.141  0.00  0.00    +0.000 A 
ATOM     15  N   UNL     1       4.772   7.251  16.344  0.00  0.00    +0.000 NA
ATOM     16  O   UNL     1       5.496   6.557  15.384  0.00  0.00    +0.000 OA
ATOM     17  C   UNL     1       5.371   5.231  15.682  0.00  0.00    +0.000 A 
ATOM     18  N   UNL     1       4.659   5.018  16.774  0.00  0.00    +0.000 NA
BRANCH  17  19
ATOM     19  C   UNL     1       6.000   4.290  14.720  0.00  0.00    +0.000 C 
ATOM     20  F   UNL     1       5.257   4.116  13.592  0.00  0.00    +0.000 F 
ATOM     21  F   UNL     1       7.226   4.708  14.310  0.00  0.00    +0.000 F 
ATOM     22  F   UNL     1       6.168   3.050  15.256  0.00  0.00    +0.000 F 
ENDBRANCH  17  19
ENDBRANCH  12  14
ENDBRANCH   2   8
BRANCH   7  23
ATOM     23  C   UNL     1       0.584  12.340  20.154  0.00  0.00    +0.000 A 
ATOM     24  C   UNL     1       1.777  12.785  20.748  0.00  0.00    +0.000 A 
ATOM     25  C   UNL     1       2.412  13.944  20.303  0.00  0.00    +0.000 A 
ATOM     26  C   UNL     1       1.845  14.677  19.268  0.00  0.00    +0.000 A 
ATOM     27  C   UNL     1       0.647  14.281  18.687  0.00  0.00    +0.000 A 
ATOM     28  C   UNL     1       0.019  13.112  19.125  0.00  0.00    +0.000 A 
BRANCH  26  29
ATOM     29  O   UNL     1       2.449  15.801  18.790  0.00  0.00    +0.000 OA
ATOM     30  H   UNL     1       3.087  16.104  19.455  0.00  0.00    +0.000 HD
ENDBRANCH  26  29
ENDBRANCH   7  23
TORSDOF 5
ENDMDL
MODEL 9
REMARK VINA RESULT:      -8.2      3.610      4.574
REMARK  Name = 
REMARK  5 active torsions:
REMARK  status: ('A' for Active; 'I' for Inactive)
REMARK    1  A    between atoms: C_2  and  C_3
REMARK    2  A    between atoms: C_7  and  C_8
REMARK    3  A    between atoms: C_11  and  C_12
REMARK    4  A    between atoms: C_22  and  C_23
REMARK    5  A    between atoms: C_26  and  O_27
REMARK                            x       y       z     vdW  Elec       q    Type
REMARK                         _______ _______ _______ _____ _____    ______ ____
ROOT
ATOM      1  O   UNL     1       0.030   9.131  20.943  0.00  0.00    +0.000 OA
ATOM      2  C   UNL     1       0.846   9.050  20.022  0.00  0.00    +0.000 C 
ATOM      3  N   UNL     1       1.092  10.108  19.144  0.00  0.00    +0.000 N 
ATOM      4  C   UNL     1       2.167  10.229  18.171  0.00  0.00    +0.000 C 
ATOM      5  C   UNL     1       2.441  11.711  18.048  0.00  0.00    +0.000 C 
ATOM      6  C   UNL     1       1.096  12.358  18.325  0.00  0.00    +0.000 C 
ATOM      7  C   UNL     1       0.343  11.366  19.240  0.00  0.00    +0.000 C 
ENDROOT
BRANCH   2   8
ATOM      8  C   UNL     1       1.629   7.783  19.887  0.00  0.00    +0.000 A 
ATOM      9  C   UNL     1       1.530   6.736  20.812  0.00  0.00    +0.000 A 
ATOM     10  C   UNL     1       2.139   5.507  20.565  0.00  0.00    +0.000 A 
ATOM     11  C   UNL     1       2.928   5.345  19.432  0.00  0.00    +0.000 A 
ATOM     12  C   UNL     1       3.153   6.418  18.556  0.00  0.00    +0.000 A 
ATOM     13  C   UNL     1       2.498   7.638  18.791  0.00  0.00    +0.000 A 
BRANCH  12  14
ATOM     14  C   UNL     1       4.073   6.258  17.436  0.00  0.00    +0.000 A 
ATOM     15  N   UNL     1       4.507   7.280  16.680  0.00  0.00    +0.000 NA
ATOM     16  O   UNL     1       5.257   6.668  15.684  0.00  0.00    +0.000 OA
ATOM     17  C   UNL     1       5.206   5.326  15.922  0.00  0.00    +0.000 A 
ATOM     18  N   UNL     1       4.517   5.027  17.009  0.00  0.00    +0.000 NA
BRANCH  17  19
ATOM     19  C   UNL     1       5.873   4.463  14.915  0.00  0.00    +0.000 C 
ATOM     20  F   UNL     1       7.077   4.957  14.514  0.00  0.00    +0.000 F 
ATOM     21  F   UNL     1       6.110   3.208  15.380  0.00  0.00    +0.000 F 
ATOM     22  F   UNL     1       5.126   4.326  13.785  0.00  0.00    +0.000 F 
ENDBRANCH  17  19
ENDBRANCH  12  14
ENDBRANCH   2   8
BRANCH   7  23
ATOM     23  C   UNL     1      -1.099  11.264  18.775  0.00  0.00    +0.000 A 
ATOM     24  C   UNL     1      -2.117  12.046  19.346  0.00  0.00    +0.000 A 
ATOM     25  C   UNL     1      -3.444  11.909  18.937  0.00  0.00    +0.000 A 
ATOM     26  C   UNL     1      -3.762  10.972  17.963  0.00  0.00    +0.000 A 
ATOM     27  C   UNL     1      -2.782  10.160  17.407  0.00  0.00    +0.000 A 
ATOM     28  C   UNL     1      -1.452  10.308  17.808  0.00  0.00    +0.000 A 
BRANCH  26  29
ATOM     29  O   UNL     1      -5.043  10.827  17.520  0.00  0.00    +0.000 OA
ATOM     30  H   UNL     1      -5.449  11.707  17.487  0.00  0.00    +0.000 HD
ENDBRANCH  26  29
ENDBRANCH   7  23
TORSDOF 5
ENDMDL
