MODEL 1
REMARK VINA RESULT:      -8.4      0.000      0.000
REMARK  Name = 
REMARK  7 active torsions:
REMARK  status: ('A' for Active; 'I' for Inactive)
REMARK    1  A    between atoms: C_1  and  C_2
REMARK    2  A    between atoms: C_4  and  C_5
REMARK    3  A    between atoms: N_6  and  C_7
REMARK    4  A    between atoms: C_10  and  C_11
REMARK    5  A    between atoms: N_13  and  C_14
REMARK    6  A    between atoms: C_17  and  S_18
REMARK    7  A    between atoms: S_18  and  N_21
REMARK                            x       y       z     vdW  Elec       q    Type
REMARK                         _______ _______ _______ _____ _____    ______ ____
ROOT
ATOM      1  C   UNL     1       0.973   9.269  21.304  0.00  0.00    +0.000 C 
ATOM      2  O   UNL     1       1.733   8.994  22.229  0.00  0.00    +0.000 OA
ATOM      3  N   UNL     1       1.041   8.766  20.013  0.00  0.00    +0.000 N 
ATOM      4  H   UNL     1       0.518   9.248  19.292  0.00  0.00    +0.000 HD
ENDROOT
BRANCH   1   8
ATOM      5  C   UNL     1      -2.193  12.015  22.217  0.00  0.00    +0.000 A 
ATOM      6  C   UNL     1      -1.611  11.224  23.211  0.00  0.00    +0.000 A 
ATOM      7  C   UNL     1      -0.564  10.359  22.891  0.00  0.00    +0.000 A 
ATOM      8  C   UNL     1      -0.084  10.273  21.578  0.00  0.00    +0.000 A 
ATOM      9  C   UNL     1      -0.677  11.042  20.573  0.00  0.00    +0.000 A 
ATOM     10  C   UNL     1      -1.736  11.904  20.892  0.00  0.00    +0.000 A 
BRANCH   5  16
ATOM     11  C   UNL     1      -6.809  13.288  22.691  0.00  0.00    +0.000 C 
ATOM     12  C   UNL     1      -5.335  13.429  22.750  0.00  0.00    +0.000 A 
ATOM     13  C   UNL     1      -4.590  14.476  23.320  0.00  0.00    +0.000 A 
ATOM     14  C   UNL     1      -3.268  14.143  23.113  0.00  0.00    +0.000 A 
ATOM     15  C   UNL     1      -2.061  14.969  23.369  0.00  0.00    +0.000 C 
ATOM     16  N   UNL     1      -3.277  12.888  22.514  0.00  0.00    +0.000 N 
ATOM     17  N   UNL     1      -4.544  12.508  22.195  0.00  0.00    +0.000 NA
ENDBRANCH   5  16
ENDBRANCH   1   8
BRANCH   3  18
ATOM     18  C   UNL     1       1.946   7.763  19.588  0.00  0.00    +0.000 A 
ATOM     19  C   UNL     1       2.638   7.842  18.376  0.00  0.00    +0.000 A 
ATOM     20  C   UNL     1       3.478   6.810  17.957  0.00  0.00    +0.000 A 
ATOM     21  C   UNL     1       3.675   5.695  18.768  0.00  0.00    +0.000 A 
ATOM     22  C   UNL     1       3.003   5.606  19.996  0.00  0.00    +0.000 A 
ATOM     23  C   UNL     1       2.152   6.647  20.411  0.00  0.00    +0.000 A 
BRANCH  21  24
ATOM     24  S   UNL     1       4.662   4.343  18.159  0.00  0.00    +0.000 S 
ATOM     25  O   UNL     1       5.199   4.749  16.879  0.00  0.00    +0.000 OA
ATOM     26  O   UNL     1       5.537   3.940  19.239  0.00  0.00    +0.000 OA
BRANCH  24  27
ATOM     27  N   UNL     1       3.555   3.096  17.898  0.00  0.00    +0.000 NA
ATOM     28  C   UNL     1       2.265   3.397  17.263  0.00  0.00    +0.000 C 
ATOM     29  C   UNL     1       1.254   3.183  18.370  0.00  0.00    +0.000 C 
ATOM     30  C   UNL     1       1.830   2.032  19.177  0.00  0.00    +0.000 C 
ATOM     31  C   UNL     1       3.341   2.084  18.952  0.00  0.00    +0.000 C 
ENDBRANCH  24  27
ENDBRANCH  21  24
ENDBRANCH   3  18
TORSDOF 5
ENDMDL
MODEL 2
REMARK VINA RESULT:      -8.3      3.775     10.955
REMARK  Name = 
REMARK  7 active torsions:
REMARK  status: ('A' for Active; 'I' for Inactive)
REMARK    1  A    between atoms: C_1  and  C_2
REMARK    2  A    between atoms: C_4  and  C_5
REMARK    3  A    between atoms: N_6  and  C_7
REMARK    4  A    between atoms: C_10  and  C_11
REMARK    5  A    between atoms: N_13  and  C_14
REMARK    6  A    between atoms: C_17  and  S_18
REMARK    7  A    between atoms: S_18  and  N_21
REMARK                            x       y       z     vdW  Elec       q    Type
REMARK                         _______ _______ _______ _____ _____    ______ ____
ROOT
ATOM      1  C   UNL     1       0.446   9.947  19.986  0.00  0.00    +0.000 C 
ATOM      2  O   UNL     1      -0.403  10.338  19.188  0.00  0.00    +0.000 OA
ATOM      3  N   UNL     1       0.659  10.445  21.263  0.00  0.00    +0.000 N 
ATOM      4  H   UNL     1       1.531  10.210  21.721  0.00  0.00    +0.000 HD
ENDROOT
BRANCH   1   8
ATOM      5  C   UNL     1       2.982   6.850  18.447  0.00  0.00    +0.000 A 
ATOM      6  C   UNL     1       2.632   7.954  17.666  0.00  0.00    +0.000 A 
ATOM      7  C   UNL     1       1.828   8.961  18.201  0.00  0.00    +0.000 A 
ATOM      8  C   UNL     1       1.365   8.879  19.521  0.00  0.00    +0.000 A 
ATOM      9  C   UNL     1       1.689   7.766  20.300  0.00  0.00    +0.000 A 
ATOM     10  C   UNL     1       2.488   6.749  19.759  0.00  0.00    +0.000 A 
BRANCH   5  16
ATOM     11  C   UNL     1       7.060   4.681  17.096  0.00  0.00    +0.000 C 
ATOM     12  C   UNL     1       5.608   4.835  17.349  0.00  0.00    +0.000 A 
ATOM     13  C   UNL     1       4.611   3.846  17.286  0.00  0.00    +0.000 A 
ATOM     14  C   UNL     1       3.433   4.491  17.600  0.00  0.00    +0.000 A 
ATOM     15  C   UNL     1       2.048   3.960  17.527  0.00  0.00    +0.000 C 
ATOM     16  N   UNL     1       3.782   5.799  17.916  0.00  0.00    +0.000 N 
ATOM     17  N   UNL     1       5.097   6.030  17.654  0.00  0.00    +0.000 NA
ENDBRANCH   5  16
ENDBRANCH   1   8
BRANCH   3  18
ATOM     18  C   UNL     1      -0.153  11.422  21.889  0.00  0.00    +0.000 A 
ATOM     19  C   UNL     1      -1.198  11.086  22.755  0.00  0.00    +0.000 A 
ATOM     20  C   UNL     1      -2.018  12.068  23.310  0.00  0.00    +0.000 A 
ATOM     21  C   UNL     1      -1.777  13.414  23.042  0.00  0.00    +0.000 A 
ATOM     22  C   UNL     1      -0.722  13.772  22.192  0.00  0.00    +0.000 A 
ATOM     23  C   UNL     1       0.098  12.776  21.629  0.00  0.00    +0.000 A 
BRANCH  21  24
ATOM     24  S   UNL     1      -2.907  14.639  23.673  0.00  0.00    +0.000 S 
ATOM     25  O   UNL     1      -3.369  14.172  24.962  0.00  0.00    +0.000 OA
ATOM     26  O   UNL     1      -2.254  15.924  23.538  0.00  0.00    +0.000 OA
BRANCH  24  27
ATOM     27  N   UNL     1      -4.208  14.605  22.599  0.00  0.00    +0.000 NA
ATOM     28  C   UNL     1      -5.286  13.628  22.802  0.00  0.00    +0.000 C 
ATOM     29  C   UNL     1      -5.141  12.675  21.633  0.00  0.00    +0.000 C 
ATOM     30  C   UNL     1      -4.673  13.563  20.492  0.00  0.00    +0.000 C 
ATOM     31  C   UNL     1      -3.957  14.741  21.150  0.00  0.00    +0.000 C 
ENDBRANCH  24  27
ENDBRANCH  21  24
ENDBRANCH   3  18
TORSDOF 5
ENDMDL
MODEL 3
REMARK VINA RESULT:      -8.2      1.300      1.732
REMARK  Name = 
REMARK  7 active torsions:
REMARK  status: ('A' for Active; 'I' for Inactive)
REMARK    1  A    between atoms: C_1  and  C_2
REMARK    2  A    between atoms: C_4  and  C_5
REMARK    3  A    between atoms: N_6  and  C_7
REMARK    4  A    between atoms: C_10  and  C_11
REMARK    5  A    between atoms: N_13  and  C_14
REMARK    6  A    between atoms: C_17  and  S_18
REMARK    7  A    between atoms: S_18  and  N_21
REMARK                            x       y       z     vdW  Elec       q    Type
REMARK                         _______ _______ _______ _____ _____    ______ ____
ROOT
ATOM      1  C   UNL     1       0.214  10.612  21.057  0.00  0.00    +0.000 C 
ATOM      2  O   UNL     1       1.300  11.099  21.361  0.00  0.00    +0.000 OA
ATOM      3  N   UNL     1       0.011   9.516  20.232  0.00  0.00    +0.000 N 
ATOM      4  H   UNL     1      -0.922   9.366  19.869  0.00  0.00    +0.000 HD
ENDROOT
BRANCH   1   8
ATOM      5  C   UNL     1      -3.235  12.760  22.430  0.00  0.00    +0.000 A 
ATOM      6  C   UNL     1      -2.920  12.688  21.071  0.00  0.00    +0.000 A 
ATOM      7  C   UNL     1      -1.808  11.959  20.649  0.00  0.00    +0.000 A 
ATOM      8  C   UNL     1      -0.997  11.293  21.578  0.00  0.00    +0.000 A 
ATOM      9  C   UNL     1      -1.289  11.382  22.941  0.00  0.00    +0.000 A 
ATOM     10  C   UNL     1      -2.401  12.123  23.366  0.00  0.00    +0.000 A 
BRANCH   5  16
ATOM     11  C   UNL     1      -7.656  13.439  24.206  0.00  0.00    +0.000 C 
ATOM     12  C   UNL     1      -6.308  13.801  23.707  0.00  0.00    +0.000 A 
ATOM     13  C   UNL     1      -5.691  15.064  23.727  0.00  0.00    +0.000 A 
ATOM     14  C   UNL     1      -4.454  14.879  23.147  0.00  0.00    +0.000 A 
ATOM     15  C   UNL     1      -3.453  15.908  22.769  0.00  0.00    +0.000 C 
ATOM     16  N   UNL     1      -4.351  13.517  22.887  0.00  0.00    +0.000 N 
ATOM     17  N   UNL     1      -5.530  12.883  23.130  0.00  0.00    +0.000 NA
ENDBRANCH   5  16
ENDBRANCH   1   8
BRANCH   3  18
ATOM     18  C   UNL     1       1.046   8.714  19.693  0.00  0.00    +0.000 A 
ATOM     19  C   UNL     1       1.588   8.943  18.424  0.00  0.00    +0.000 A 
ATOM     20  C   UNL     1       2.565   8.101  17.895  0.00  0.00    +0.000 A 
ATOM     21  C   UNL     1       3.052   7.034  18.648  0.00  0.00    +0.000 A 
ATOM     22  C   UNL     1       2.534   6.800  19.929  0.00  0.00    +0.000 A 
ATOM     23  C   UNL     1       1.544   7.649  20.455  0.00  0.00    +0.000 A 
BRANCH  21  24
ATOM     24  S   UNL     1       4.217   5.909  17.905  0.00  0.00    +0.000 S 
ATOM     25  O   UNL     1       4.770   6.570  16.743  0.00  0.00    +0.000 OA
ATOM     26  O   UNL     1       5.076   5.429  18.968  0.00  0.00    +0.000 OA
BRANCH  24  27
ATOM     27  N   UNL     1       3.274   4.613  17.378  0.00  0.00    +0.000 NA
ATOM     28  C   UNL     1       1.844   4.577  17.713  0.00  0.00    +0.000 C 
ATOM     29  C   UNL     1       1.725   3.421  18.686  0.00  0.00    +0.000 C 
ATOM     30  C   UNL     1       2.756   2.419  18.193  0.00  0.00    +0.000 C 
ATOM     31  C   UNL     1       3.816   3.241  17.460  0.00  0.00    +0.000 C 
ENDBRANCH  24  27
ENDBRANCH  21  24
ENDBRANCH   3  18
TORSDOF 5
ENDMDL
MODEL 4
REMARK VINA RESULT:      -8.2      0.746      1.628
REMARK  Name = 
REMARK  7 active torsions:
REMARK  status: ('A' for Active; 'I' for Inactive)
REMARK    1  A    between atoms: C_1  and  C_2
REMARK    2  A    between atoms: C_4  and  C_5
REMARK    3  A    between atoms: N_6  and  C_7
REMARK    4  A    between atoms: C_10  and  C_11
REMARK    5  A    between atoms: N_13  and  C_14
REMARK    6  A    between atoms: C_17  and  S_18
REMARK    7  A    between atoms: S_18  and  N_21
REMARK                            x       y       z     vdW  Elec       q    Type
REMARK                         _______ _______ _______ _____ _____    ______ ____
ROOT
ATOM      1  C   UNL     1       0.901   9.446  21.415  0.00  0.00    +0.000 C 
ATOM      2  O   UNL     1       1.845   9.411  22.201  0.00  0.00    +0.000 OA
ATOM      3  N   UNL     1       0.807   8.750  20.219  0.00  0.00    +0.000 N 
ATOM      4  H   UNL     1       0.102   9.048  19.555  0.00  0.00    +0.000 HD
ENDROOT
BRANCH   1   8
ATOM      5  C   UNL     1      -2.215  12.255  22.305  0.00  0.00    +0.000 A 
ATOM      6  C   UNL     1      -1.566  12.261  21.068  0.00  0.00    +0.000 A 
ATOM      7  C   UNL     1      -0.575  11.318  20.794  0.00  0.00    +0.000 A 
ATOM      8  C   UNL     1      -0.220  10.358  21.751  0.00  0.00    +0.000 A 
ATOM      9  C   UNL     1      -0.846  10.361  23.000  0.00  0.00    +0.000 A 
ATOM     10  C   UNL     1      -1.835  11.315  23.279  0.00  0.00    +0.000 A 
BRANCH   5  16
ATOM     11  C   UNL     1      -4.061  16.122  24.496  0.00  0.00    +0.000 C 
ATOM     12  C   UNL     1      -4.009  14.962  23.575  0.00  0.00    +0.000 A 
ATOM     13  C   UNL     1      -4.938  14.608  22.581  0.00  0.00    +0.000 A 
ATOM     14  C   UNL     1      -4.442  13.456  22.008  0.00  0.00    +0.000 A 
ATOM     15  C   UNL     1      -5.099  12.565  21.018  0.00  0.00    +0.000 C 
ATOM     16  N   UNL     1      -3.214  13.221  22.616  0.00  0.00    +0.000 N 
ATOM     17  N   UNL     1      -3.008  14.083  23.648  0.00  0.00    +0.000 NA
ENDBRANCH   5  16
ENDBRANCH   1   8
BRANCH   3  18
ATOM     18  C   UNL     1       1.753   7.799  19.767  0.00  0.00    +0.000 A 
ATOM     19  C   UNL     1       2.416   7.924  18.542  0.00  0.00    +0.000 A 
ATOM     20  C   UNL     1       3.298   6.941  18.096  0.00  0.00    +0.000 A 
ATOM     21  C   UNL     1       3.568   5.829  18.892  0.00  0.00    +0.000 A 
ATOM     22  C   UNL     1       2.927   5.696  20.132  0.00  0.00    +0.000 A 
ATOM     23  C   UNL     1       2.033   6.688  20.573  0.00  0.00    +0.000 A 
BRANCH  21  24
ATOM     24  S   UNL     1       4.611   4.535  18.250  0.00  0.00    +0.000 S 
ATOM     25  O   UNL     1       5.091   4.975  16.958  0.00  0.00    +0.000 OA
ATOM     26  O   UNL     1       5.535   4.176  19.305  0.00  0.00    +0.000 OA
BRANCH  24  27
ATOM     27  N   UNL     1       3.567   3.232  18.012  0.00  0.00    +0.000 NA
ATOM     28  C   UNL     1       2.303   3.441  17.293  0.00  0.00    +0.000 C 
ATOM     29  C   UNL     1       1.241   3.255  18.358  0.00  0.00    +0.000 C 
ATOM     30  C   UNL     1       1.815   2.179  19.264  0.00  0.00    +0.000 C 
ATOM     31  C   UNL     1       3.333   2.278  19.115  0.00  0.00    +0.000 C 
ENDBRANCH  24  27
ENDBRANCH  21  24
ENDBRANCH   3  18
TORSDOF 5
ENDMDL
MODEL 5
REMARK VINA RESULT:      -8.2      0.657      1.408
REMARK  Name = 
REMARK  7 active torsions:
REMARK  status: ('A' for Active; 'I' for Inactive)
REMARK    1  A    between atoms: C_1  and  C_2
REMARK    2  A    between atoms: C_4  and  C_5
REMARK    3  A    between atoms: N_6  and  C_7
REMARK    4  A    between atoms: C_10  and  C_11
REMARK    5  A    between atoms: N_13  and  C_14
REMARK    6  A    between atoms: C_17  and  S_18
REMARK    7  A    between atoms: S_18  and  N_21
REMARK                            x       y       z     vdW  Elec       q    Type
REMARK                         _______ _______ _______ _____ _____    ______ ____
ROOT
ATOM      1  C   UNL     1       0.941   9.431  21.493  0.00  0.00    +0.000 C 
ATOM      2  O   UNL     1       1.821   9.234  22.327  0.00  0.00    +0.000 OA
ATOM      3  N   UNL     1       0.853   8.840  20.241  0.00  0.00    +0.000 N 
ATOM      4  H   UNL     1       0.229   9.262  19.563  0.00  0.00    +0.000 HD
ENDROOT
BRANCH   1   8
ATOM      5  C   UNL     1      -1.904  12.499  22.436  0.00  0.00    +0.000 A 
ATOM      6  C   UNL     1      -1.118  12.569  21.283  0.00  0.00    +0.000 A 
ATOM      7  C   UNL     1      -0.221  11.543  20.985  0.00  0.00    +0.000 A 
ATOM      8  C   UNL     1      -0.096  10.436  21.834  0.00  0.00    +0.000 A 
ATOM      9  C   UNL     1      -0.859  10.370  23.003  0.00  0.00    +0.000 A 
ATOM     10  C   UNL     1      -1.753  11.406  23.307  0.00  0.00    +0.000 A 
BRANCH   5  16
ATOM     11  C   UNL     1      -6.112  14.832  22.454  0.00  0.00    +0.000 C 
ATOM     12  C   UNL     1      -4.698  14.554  22.797  0.00  0.00    +0.000 A 
ATOM     13  C   UNL     1      -3.895  15.207  23.748  0.00  0.00    +0.000 A 
ATOM     14  C   UNL     1      -2.667  14.584  23.684  0.00  0.00    +0.000 A 
ATOM     15  C   UNL     1      -1.402  14.975  24.357  0.00  0.00    +0.000 C 
ATOM     16  N   UNL     1      -2.810  13.544  22.773  0.00  0.00    +0.000 N 
ATOM     17  N   UNL     1      -4.020  13.601  22.153  0.00  0.00    +0.000 NA
ENDBRANCH   5  16
ENDBRANCH   1   8
BRANCH   3  18
ATOM     18  C   UNL     1       1.721   7.824  19.770  0.00  0.00    +0.000 A 
ATOM     19  C   UNL     1       1.953   6.646  20.486  0.00  0.00    +0.000 A 
ATOM     20  C   UNL     1       2.858   5.690  20.026  0.00  0.00    +0.000 A 
ATOM     21  C   UNL     1       3.517   5.877  18.812  0.00  0.00    +0.000 A 
ATOM     22  C   UNL     1       3.283   7.044  18.072  0.00  0.00    +0.000 A 
ATOM     23  C   UNL     1       2.374   8.008  18.544  0.00  0.00    +0.000 A 
BRANCH  21  24
ATOM     24  S   UNL     1       4.751   4.696  18.305  0.00  0.00    +0.000 S 
ATOM     25  O   UNL     1       5.289   5.155  17.043  0.00  0.00    +0.000 OA
ATOM     26  O   UNL     1       5.615   4.472  19.445  0.00  0.00    +0.000 OA
BRANCH  24  27
ATOM     27  N   UNL     1       3.885   3.275  18.026  0.00  0.00    +0.000 NA
ATOM     28  C   UNL     1       2.682   3.316  17.184  0.00  0.00    +0.000 C 
ATOM     29  C   UNL     1       1.549   3.044  18.153  0.00  0.00    +0.000 C 
ATOM     30  C   UNL     1       2.146   2.071  19.154  0.00  0.00    +0.000 C 
ATOM     31  C   UNL     1       3.652   2.337  19.143  0.00  0.00    +0.000 C 
ENDBRANCH  24  27
ENDBRANCH  21  24
ENDBRANCH   3  18
TORSDOF 5
ENDMDL
MODEL 6
REMARK VINA RESULT:      -8.2      1.769      2.455
REMARK  Name = 
REMARK  7 active torsions:
REMARK  status: ('A' for Active; 'I' for Inactive)
REMARK    1  A    between atoms: C_1  and  C_2
REMARK    2  A    between atoms: C_4  and  C_5
REMARK    3  A    between atoms: N_6  and  C_7
REMARK    4  A    between atoms: C_10  and  C_11
REMARK    5  A    between atoms: N_13  and  C_14
REMARK    6  A    between atoms: C_17  and  S_18
REMARK    7  A    between atoms: S_18  and  N_21
REMARK                            x       y       z     vdW  Elec       q    Type
REMARK                         _______ _______ _______ _____ _____    ______ ____
ROOT
ATOM      1  C   UNL     1       0.948   9.244  21.301  0.00  0.00    +0.000 C 
ATOM      2  O   UNL     1       1.680   8.890  22.222  0.00  0.00    +0.000 OA
ATOM      3  N   UNL     1       1.016   8.806  19.987  0.00  0.00    +0.000 N 
ATOM      4  H   UNL     1       0.526   9.346  19.284  0.00  0.00    +0.000 HD
ENDROOT
BRANCH   1   8
ATOM      5  C   UNL     1      -2.109  12.076  22.316  0.00  0.00    +0.000 A 
ATOM      6  C   UNL     1      -1.553  11.233  23.282  0.00  0.00    +0.000 A 
ATOM      7  C   UNL     1      -0.540  10.341  22.930  0.00  0.00    +0.000 A 
ATOM      8  C   UNL     1      -0.069  10.278  21.612  0.00  0.00    +0.000 A 
ATOM      9  C   UNL     1      -0.638  11.099  20.635  0.00  0.00    +0.000 A 
ATOM     10  C   UNL     1      -1.663  11.989  20.986  0.00  0.00    +0.000 A 
BRANCH   5  16
ATOM     11  C   UNL     1      -6.566  13.354  23.606  0.00  0.00    +0.000 C 
ATOM     12  C   UNL     1      -5.138  13.530  23.251  0.00  0.00    +0.000 A 
ATOM     13  C   UNL     1      -4.368  14.703  23.326  0.00  0.00    +0.000 A 
ATOM     14  C   UNL     1      -3.111  14.348  22.883  0.00  0.00    +0.000 A 
ATOM     15  C   UNL     1      -1.951  15.232  22.605  0.00  0.00    +0.000 C 
ATOM     16  N   UNL     1      -3.159  12.979  22.646  0.00  0.00    +0.000 N 
ATOM     17  N   UNL     1      -4.430  12.507  22.767  0.00  0.00    +0.000 NA
ENDBRANCH   5  16
ENDBRANCH   1   8
BRANCH   3  18
ATOM     18  C   UNL     1       1.884   7.787  19.524  0.00  0.00    +0.000 A 
ATOM     19  C   UNL     1       2.088   6.598  20.230  0.00  0.00    +0.000 A 
ATOM     20  C   UNL     1       2.995   5.639  19.779  0.00  0.00    +0.000 A 
ATOM     21  C   UNL     1       3.686   5.835  18.585  0.00  0.00    +0.000 A 
ATOM     22  C   UNL     1       3.481   7.014  17.854  0.00  0.00    +0.000 A 
ATOM     23  C   UNL     1       2.569   7.981  18.317  0.00  0.00    +0.000 A 
BRANCH  21  24
ATOM     24  S   UNL     1       4.920   4.649  18.092  0.00  0.00    +0.000 S 
ATOM     25  O   UNL     1       6.015   4.755  19.031  0.00  0.00    +0.000 OA
ATOM     26  O   UNL     1       4.235   3.390  17.886  0.00  0.00    +0.000 OA
BRANCH  24  27
ATOM     27  N   UNL     1       5.456   5.197  16.589  0.00  0.00    +0.000 NA
ATOM     28  C   UNL     1       5.009   4.512  15.369  0.00  0.00    +0.000 C 
ATOM     29  C   UNL     1       6.264   3.846  14.844  0.00  0.00    +0.000 C 
ATOM     30  C   UNL     1       7.374   4.818  15.204  0.00  0.00    +0.000 C 
ATOM     31  C   UNL     1       6.870   5.591  16.423  0.00  0.00    +0.000 C 
ENDBRANCH  24  27
ENDBRANCH  21  24
ENDBRANCH   3  18
TORSDOF 5
ENDMDL
MODEL 7
REMARK VINA RESULT:      -8.2      0.675      1.108
REMARK  Name = 
REMARK  7 active torsions:
REMARK  status: ('A' for Active; 'I' for Inactive)
REMARK    1  A    between atoms: C_1  and  C_2
REMARK    2  A    between atoms: C_4  and  C_5
REMARK    3  A    between atoms: N_6  and  C_7
REMARK    4  A    between atoms: C_10  and  C_11
REMARK    5  A    between atoms: N_13  and  C_14
REMARK    6  A    between atoms: C_17  and  S_18
REMARK    7  A    between atoms: S_18  and  N_21
REMARK                            x       y       z     vdW  Elec       q    Type
REMARK                         _______ _______ _______ _____ _____    ______ ____
ROOT
ATOM      1  C   UNL     1       0.733   9.768  21.361  0.00  0.00    +0.000 C 
ATOM      2  O   UNL     1       1.583   9.561  22.223  0.00  0.00    +0.000 OA
ATOM      3  N   UNL     1       0.696   9.198  20.096  0.00  0.00    +0.000 N 
ATOM      4  H   UNL     1       0.094   9.628  19.404  0.00  0.00    +0.000 HD
ENDROOT
BRANCH   1   8
ATOM      5  C   UNL     1      -2.443  12.465  22.378  0.00  0.00    +0.000 A 
ATOM      6  C   UNL     1      -1.958  11.536  23.301  0.00  0.00    +0.000 A 
ATOM      7  C   UNL     1      -0.905  10.689  22.954  0.00  0.00    +0.000 A 
ATOM      8  C   UNL     1      -0.323  10.759  21.681  0.00  0.00    +0.000 A 
ATOM      9  C   UNL     1      -0.818  11.668  20.743  0.00  0.00    +0.000 A 
ATOM     10  C   UNL     1      -1.883  12.512  21.089  0.00  0.00    +0.000 A 
BRANCH   5  16
ATOM     11  C   UNL     1      -6.979  14.064  22.223  0.00  0.00    +0.000 C 
ATOM     12  C   UNL     1      -5.560  14.004  22.647  0.00  0.00    +0.000 A 
ATOM     13  C   UNL     1      -4.937  14.725  23.679  0.00  0.00    +0.000 A 
ATOM     14  C   UNL     1      -3.619  14.319  23.669  0.00  0.00    +0.000 A 
ATOM     15  C   UNL     1      -2.480  14.875  24.442  0.00  0.00    +0.000 C 
ATOM     16  N   UNL     1      -3.531  13.324  22.702  0.00  0.00    +0.000 N 
ATOM     17  N   UNL     1      -4.695  13.215  22.006  0.00  0.00    +0.000 NA
ENDBRANCH   5  16
ENDBRANCH   1   8
BRANCH   3  18
ATOM     18  C   UNL     1       1.587   8.197  19.640  0.00  0.00    +0.000 A 
ATOM     19  C   UNL     1       1.903   7.071  20.405  0.00  0.00    +0.000 A 
ATOM     20  C   UNL     1       2.830   6.130  19.955  0.00  0.00    +0.000 A 
ATOM     21  C   UNL     1       3.427   6.280  18.705  0.00  0.00    +0.000 A 
ATOM     22  C   UNL     1       3.109   7.394  17.915  0.00  0.00    +0.000 A 
ATOM     23  C   UNL     1       2.177   8.342  18.378  0.00  0.00    +0.000 A 
BRANCH  21  24
ATOM     24  S   UNL     1       4.690   5.127  18.204  0.00  0.00    +0.000 S 
ATOM     25  O   UNL     1       5.128   5.520  16.882  0.00  0.00    +0.000 OA
ATOM     26  O   UNL     1       5.630   5.029  19.300  0.00  0.00    +0.000 OA
BRANCH  24  27
ATOM     27  N   UNL     1       3.886   3.649  18.079  0.00  0.00    +0.000 NA
ATOM     28  C   UNL     1       2.690   3.547  17.232  0.00  0.00    +0.000 C 
ATOM     29  C   UNL     1       1.561   3.335  18.220  0.00  0.00    +0.000 C 
ATOM     30  C   UNL     1       2.190   2.502  19.324  0.00  0.00    +0.000 C 
ATOM     31  C   UNL     1       3.682   2.829  19.290  0.00  0.00    +0.000 C 
ENDBRANCH  24  27
ENDBRANCH  21  24
ENDBRANCH   3  18
TORSDOF 5
ENDMDL
MODEL 8
REMARK VINA RESULT:      -8.1      3.827     11.198
REMARK  Name = 
REMARK  7 active torsions:
REMARK  status: ('A' for Active; 'I' for Inactive)
REMARK    1  A    between atoms: C_1  and  C_2
REMARK    2  A    between atoms: C_4  and  C_5
REMARK    3  A    between atoms: N_6  and  C_7
REMARK    4  A    between atoms: C_10  and  C_11
REMARK    5  A    between atoms: N_13  and  C_14
REMARK    6  A    between atoms: C_17  and  S_18
REMARK    7  A    between atoms: S_18  and  N_21
REMARK                            x       y       z     vdW  Elec       q    Type
REMARK                         _______ _______ _______ _____ _____    ______ ____
ROOT
ATOM      1  C   UNL     1       0.710  10.575  19.877  0.00  0.00    +0.000 C 
ATOM      2  O   UNL     1       1.218  11.659  19.598  0.00  0.00    +0.000 OA
ATOM      3  N   UNL     1      -0.377  10.373  20.714  0.00  0.00    +0.000 N 
ATOM      4  H   UNL     1      -0.544   9.433  21.051  0.00  0.00    +0.000 HD
ENDROOT
BRANCH   1   8
ATOM      5  C   UNL     1       2.700   7.069  18.414  0.00  0.00    +0.000 A 
ATOM      6  C   UNL     1       2.247   7.148  19.733  0.00  0.00    +0.000 A 
ATOM      7  C   UNL     1       1.578   8.289  20.175  0.00  0.00    +0.000 A 
ATOM      8  C   UNL     1       1.352   9.365  19.307  0.00  0.00    +0.000 A 
ATOM      9  C   UNL     1       1.824   9.305  17.993  0.00  0.00    +0.000 A 
ATOM     10  C   UNL     1       2.506   8.163  17.552  0.00  0.00    +0.000 A 
BRANCH   5  16
ATOM     11  C   UNL     1       6.566   4.510  17.125  0.00  0.00    +0.000 C 
ATOM     12  C   UNL     1       5.139   4.789  17.406  0.00  0.00    +0.000 A 
ATOM     13  C   UNL     1       4.073   3.874  17.450  0.00  0.00    +0.000 A 
ATOM     14  C   UNL     1       2.954   4.625  17.744  0.00  0.00    +0.000 A 
ATOM     15  C   UNL     1       1.533   4.193  17.753  0.00  0.00    +0.000 C 
ATOM     16  N   UNL     1       3.405   5.924  17.946  0.00  0.00    +0.000 N 
ATOM     17  N   UNL     1       4.723   6.038  17.629  0.00  0.00    +0.000 NA
ENDBRANCH   5  16
ENDBRANCH   1   8
BRANCH   3  18
ATOM     18  C   UNL     1      -1.144  11.410  21.300  0.00  0.00    +0.000 A 
ATOM     19  C   UNL     1      -1.092  11.700  22.667  0.00  0.00    +0.000 A 
ATOM     20  C   UNL     1      -1.903  12.688  23.225  0.00  0.00    +0.000 A 
ATOM     21  C   UNL     1      -2.753  13.437  22.413  0.00  0.00    +0.000 A 
ATOM     22  C   UNL     1      -2.804  13.173  21.037  0.00  0.00    +0.000 A 
ATOM     23  C   UNL     1      -1.989  12.171  20.481  0.00  0.00    +0.000 A 
BRANCH  21  24
ATOM     24  S   UNL     1      -3.858  14.613  23.167  0.00  0.00    +0.000 S 
ATOM     25  O   UNL     1      -3.644  14.546  24.597  0.00  0.00    +0.000 OA
ATOM     26  O   UNL     1      -3.700  15.860  22.449  0.00  0.00    +0.000 OA
BRANCH  24  27
ATOM     27  N   UNL     1      -5.400  14.017  22.833  0.00  0.00    +0.000 NA
ATOM     28  C   UNL     1      -6.524  14.954  22.699  0.00  0.00    +0.000 C 
ATOM     29  C   UNL     1      -7.386  14.667  23.911  0.00  0.00    +0.000 C 
ATOM     30  C   UNL     1      -7.234  13.171  24.124  0.00  0.00    +0.000 C 
ATOM     31  C   UNL     1      -5.875  12.803  23.529  0.00  0.00    +0.000 C 
ENDBRANCH  24  27
ENDBRANCH  21  24
ENDBRANCH   3  18
TORSDOF 5
ENDMDL
MODEL 9
REMARK VINA RESULT:      -8.1      1.162      1.378
REMARK  Name = 
REMARK  7 active torsions:
REMARK  status: ('A' for Active; 'I' for Inactive)
REMARK    1  A    between atoms: C_1  and  C_2
REMARK    2  A    between atoms: C_4  and  C_5
REMARK    3  A    between atoms: N_6  and  C_7
REMARK    4  A    between atoms: C_10  and  C_11
REMARK    5  A    between atoms: N_13  and  C_14
REMARK    6  A    between atoms: C_17  and  S_18
REMARK    7  A    between atoms: S_18  and  N_21
REMARK                            x       y       z     vdW  Elec       q    Type
REMARK                         _______ _______ _______ _____ _____    ______ ____
ROOT
ATOM      1  C   UNL     1       0.188  10.415  21.277  0.00  0.00    +0.000 C 
ATOM      2  O   UNL     1       1.102  10.343  22.095  0.00  0.00    +0.000 OA
ATOM      3  N   UNL     1       0.145   9.787  20.041  0.00  0.00    +0.000 N 
ATOM      4  H   UNL     1      -0.537  10.116  19.369  0.00  0.00    +0.000 HD
ENDROOT
BRANCH   1   8
ATOM      5  C   UNL     1      -3.202  12.798  22.382  0.00  0.00    +0.000 A 
ATOM      6  C   UNL     1      -2.528  12.016  23.324  0.00  0.00    +0.000 A 
ATOM      7  C   UNL     1      -1.411  11.273  22.943  0.00  0.00    +0.000 A 
ATOM      8  C   UNL     1      -0.953  11.300  21.619  0.00  0.00    +0.000 A 
ATOM      9  C   UNL     1      -1.636  12.059  20.666  0.00  0.00    +0.000 A 
ATOM     10  C   UNL     1      -2.764  12.798  21.046  0.00  0.00    +0.000 A 
BRANCH   5  16
ATOM     11  C   UNL     1      -7.912  13.638  22.903  0.00  0.00    +0.000 C 
ATOM     12  C   UNL     1      -6.455  13.894  22.996  0.00  0.00    +0.000 A 
ATOM     13  C   UNL     1      -5.804  14.941  23.670  0.00  0.00    +0.000 A 
ATOM     14  C   UNL     1      -4.458  14.738  23.453  0.00  0.00    +0.000 A 
ATOM     15  C   UNL     1      -3.325  15.634  23.802  0.00  0.00    +0.000 C 
ATOM     16  N   UNL     1      -4.358  13.548  22.742  0.00  0.00    +0.000 N 
ATOM     17  N   UNL     1      -5.586  13.097  22.371  0.00  0.00    +0.000 NA
ENDBRANCH   5  16
ENDBRANCH   1   8
BRANCH   3  18
ATOM     18  C   UNL     1       1.116   8.868  19.573  0.00  0.00    +0.000 A 
ATOM     19  C   UNL     1       1.719   8.989  18.317  0.00  0.00    +0.000 A 
ATOM     20  C   UNL     1       2.628   8.036  17.859  0.00  0.00    +0.000 A 
ATOM     21  C   UNL     1       2.985   6.962  18.672  0.00  0.00    +0.000 A 
ATOM     22  C   UNL     1       2.404   6.834  19.942  0.00  0.00    +0.000 A 
ATOM     23  C   UNL     1       1.483   7.795  20.396  0.00  0.00    +0.000 A 
BRANCH  21  24
ATOM     24  S   UNL     1       4.059   5.700  18.019  0.00  0.00    +0.000 S 
ATOM     25  O   UNL     1       4.779   6.283  16.908  0.00  0.00    +0.000 OA
ATOM     26  O   UNL     1       4.767   5.125  19.144  0.00  0.00    +0.000 OA
BRANCH  24  27
ATOM     27  N   UNL     1       3.012   4.525  17.414  0.00  0.00    +0.000 NA
ATOM     28  C   UNL     1       1.585   4.581  17.761  0.00  0.00    +0.000 C 
ATOM     29  C   UNL     1       1.378   3.373  18.652  0.00  0.00    +0.000 C 
ATOM     30  C   UNL     1       2.320   2.328  18.079  0.00  0.00    +0.000 C 
ATOM     31  C   UNL     1       3.440   3.111  17.394  0.00  0.00    +0.000 C 
ENDBRANCH  24  27
ENDBRANCH  21  24
ENDBRANCH   3  18
TORSDOF 5
ENDMDL
