MODEL 1
REMARK VINA RESULT:      -7.3      0.000      0.000
REMARK  Name = 
REMARK  5 active torsions:
REMARK  status: ('A' for Active; 'I' for Inactive)
REMARK    1  A    between atoms: C_1  and  C_2
REMARK    2  A    between atoms: C_4  and  C_5
REMARK    3  A    between atoms: C_22  and  C_23
REMARK    4  A    between atoms: C_23  and  C_24
REMARK    5  A    between atoms: C_23  and  C_25
REMARK                            x       y       z     vdW  Elec       q    Type
REMARK                         _______ _______ _______ _____ _____    ______ ____
ROOT
ATOM      1  C   UNL     1       8.293  13.661  17.764  0.00  0.00    +0.000 C 
ATOM      2  O   UNL     1       7.933  12.612  17.230  0.00  0.00    +0.000 OA
ATOM      3  N   UNL     1       9.668  14.086  17.710  0.00  0.00    +0.000 N 
ATOM      4  C   UNL     1      10.683  13.278  17.016  0.00  0.00    +0.000 C 
ATOM      5  C   UNL     1      11.485  12.360  17.948  0.00  0.00    +0.000 C 
ATOM      6  C   UNL     1      10.604  11.185  18.398  0.00  0.00    +0.000 C 
ATOM      7  C   UNL     1      10.249  11.560  19.817  0.00  0.00    +0.000 C 
ATOM      8  C   UNL     1      11.585  12.052  20.318  0.00  0.00    +0.000 C 
ATOM      9  N   UNL     1      12.019  12.892  19.205  0.00  0.00    +0.000 NA
ATOM     10  C   UNL     1      12.186  14.302  19.505  0.00  0.00    +0.000 C 
ATOM     11  C   UNL     1      11.349  15.423  18.921  0.00  0.00    +0.000 A 
ATOM     12  C   UNL     1      11.764  16.717  19.318  0.00  0.00    +0.000 A 
ATOM     13  C   UNL     1      11.147  17.872  18.843  0.00  0.00    +0.000 A 
ATOM     14  C   UNL     1      10.106  17.767  17.933  0.00  0.00    +0.000 A 
ATOM     15  C   UNL     1       9.641  16.509  17.557  0.00  0.00    +0.000 A 
ATOM     16  C   UNL     1      10.211  15.336  18.089  0.00  0.00    +0.000 A 
ENDROOT
BRANCH   1  20
ATOM     17  C   UNL     1       3.735  15.483  17.498  0.00  0.00    +0.000 C 
ATOM     18  C   UNL     1       4.975  15.347  18.339  0.00  0.00    +0.000 A 
ATOM     19  C   UNL     1       6.182  15.027  17.741  0.00  0.00    +0.000 A 
ATOM     20  C   UNL     1       7.223  14.438  18.491  0.00  0.00    +0.000 A 
ATOM     21  C   UNL     1       7.141  14.628  19.913  0.00  0.00    +0.000 A 
ATOM     22  C   UNL     1       7.855  14.459  21.171  0.00  0.00    +0.000 A 
ATOM     23  N   UNL     1       7.110  14.880  22.208  0.00  0.00    +0.000 NA
ATOM     24  O   UNL     1       5.916  15.283  21.703  0.00  0.00    +0.000 OA
ATOM     25  C   UNL     1       5.914  15.142  20.366  0.00  0.00    +0.000 A 
ATOM     26  N   UNL     1       4.816  15.429  19.651  0.00  0.00    +0.000 NA
BRANCH  22  27
ATOM     27  C   UNL     1       9.203  13.910  21.582  0.00  0.00    +0.000 C 
ATOM     28  C   UNL     1      10.122  14.993  22.197  0.00  0.00    +0.000 C 
ATOM     29  C   UNL     1       9.014  12.808  22.644  0.00  0.00    +0.000 C 
ENDBRANCH  22  27
ENDBRANCH   1  20
TORSDOF 2
ENDMDL
MODEL 2
REMARK VINA RESULT:      -7.0      1.908      3.730
REMARK  Name = 
REMARK  5 active torsions:
REMARK  status: ('A' for Active; 'I' for Inactive)
REMARK    1  A    between atoms: C_1  and  C_2
REMARK    2  A    between atoms: C_4  and  C_5
REMARK    3  A    between atoms: C_22  and  C_23
REMARK    4  A    between atoms: C_23  and  C_24
REMARK    5  A    between atoms: C_23  and  C_25
REMARK                            x       y       z     vdW  Elec       q    Type
REMARK                         _______ _______ _______ _____ _____    ______ ____
ROOT
ATOM      1  C   UNL     1       9.354  14.385  18.571  0.00  0.00    +0.000 C 
ATOM      2  O   UNL     1      10.079  14.458  17.580  0.00  0.00    +0.000 OA
ATOM      3  N   UNL     1       9.748  13.613  19.722  0.00  0.00    +0.000 N 
ATOM      4  C   UNL     1      11.028  12.889  19.745  0.00  0.00    +0.000 C 
ATOM      5  C   UNL     1      10.907  11.406  19.367  0.00  0.00    +0.000 C 
ATOM      6  C   UNL     1      10.659  11.277  17.857  0.00  0.00    +0.000 C 
ATOM      7  C   UNL     1       9.187  10.948  17.788  0.00  0.00    +0.000 C 
ATOM      8  C   UNL     1       9.074   9.939  18.905  0.00  0.00    +0.000 C 
ATOM      9  N   UNL     1       9.843  10.593  19.962  0.00  0.00    +0.000 NA
ATOM     10  C   UNL     1       9.100  10.943  21.159  0.00  0.00    +0.000 C 
ATOM     11  C   UNL     1       8.837  12.358  21.639  0.00  0.00    +0.000 A 
ATOM     12  C   UNL     1       8.152  12.425  22.875  0.00  0.00    +0.000 A 
ATOM     13  C   UNL     1       7.867  13.639  23.499  0.00  0.00    +0.000 A 
ATOM     14  C   UNL     1       8.281  14.824  22.911  0.00  0.00    +0.000 A 
ATOM     15  C   UNL     1       8.916  14.796  21.671  0.00  0.00    +0.000 A 
ATOM     16  C   UNL     1       9.143  13.579  21.000  0.00  0.00    +0.000 A 
ENDROOT
BRANCH   1  20
ATOM     17  C   UNL     1       4.484  13.909  18.099  0.00  0.00    +0.000 C 
ATOM     18  C   UNL     1       5.634  14.869  18.239  0.00  0.00    +0.000 A 
ATOM     19  C   UNL     1       6.920  14.451  17.941  0.00  0.00    +0.000 A 
ATOM     20  C   UNL     1       8.037  15.118  18.489  0.00  0.00    +0.000 A 
ATOM     21  C   UNL     1       7.792  16.459  18.944  0.00  0.00    +0.000 A 
ATOM     22  C   UNL     1       8.427  17.677  19.428  0.00  0.00    +0.000 A 
ATOM     23  N   UNL     1       7.510  18.622  19.699  0.00  0.00    +0.000 NA
ATOM     24  O   UNL     1       6.291  18.077  19.457  0.00  0.00    +0.000 OA
ATOM     25  C   UNL     1       6.435  16.815  19.017  0.00  0.00    +0.000 A 
ATOM     26  N   UNL     1       5.359  16.054  18.761  0.00  0.00    +0.000 NA
BRANCH  22  27
ATOM     27  C   UNL     1       9.845  18.115  19.717  0.00  0.00    +0.000 C 
ATOM     28  C   UNL     1      10.421  17.457  20.995  0.00  0.00    +0.000 C 
ATOM     29  C   UNL     1      10.762  17.721  18.542  0.00  0.00    +0.000 C 
ENDBRANCH  22  27
ENDBRANCH   1  20
TORSDOF 2
ENDMDL
MODEL 3
REMARK VINA RESULT:      -6.8      1.683      4.921
REMARK  Name = 
REMARK  5 active torsions:
REMARK  status: ('A' for Active; 'I' for Inactive)
REMARK    1  A    between atoms: C_1  and  C_2
REMARK    2  A    between atoms: C_4  and  C_5
REMARK    3  A    between atoms: C_22  and  C_23
REMARK    4  A    between atoms: C_23  and  C_24
REMARK    5  A    between atoms: C_23  and  C_25
REMARK                            x       y       z     vdW  Elec       q    Type
REMARK                         _______ _______ _______ _____ _____    ______ ____
ROOT
ATOM      1  C   UNL     1      10.153  14.726  21.586  0.00  0.00    +0.000 C 
ATOM      2  O   UNL     1      10.763  15.647  22.128  0.00  0.00    +0.000 OA
ATOM      3  N   UNL     1      10.698  14.053  20.436  0.00  0.00    +0.000 N 
ATOM      4  C   UNL     1      11.999  14.446  19.874  0.00  0.00    +0.000 C 
ATOM      5  C   UNL     1      11.892  15.410  18.684  0.00  0.00    +0.000 C 
ATOM      6  C   UNL     1      11.488  16.805  19.183  0.00  0.00    +0.000 C 
ATOM      7  C   UNL     1      10.030  16.886  18.798  0.00  0.00    +0.000 C 
ATOM      8  C   UNL     1      10.076  16.301  17.407  0.00  0.00    +0.000 C 
ATOM      9  N   UNL     1      10.930  15.134  17.614  0.00  0.00    +0.000 NA
ATOM     10  C   UNL     1      10.308  13.846  17.367  0.00  0.00    +0.000 C 
ATOM     11  C   UNL     1      10.047  12.787  18.422  0.00  0.00    +0.000 A 
ATOM     12  C   UNL     1       9.498  11.589  17.908  0.00  0.00    +0.000 A 
ATOM     13  C   UNL     1       9.236  10.486  18.719  0.00  0.00    +0.000 A 
ATOM     14  C   UNL     1       9.541  10.542  20.070  0.00  0.00    +0.000 A 
ATOM     15  C   UNL     1      10.038  11.723  20.618  0.00  0.00    +0.000 A 
ATOM     16  C   UNL     1      10.236  12.866  19.819  0.00  0.00    +0.000 A 
ENDROOT
BRANCH   1  20
ATOM     17  C   UNL     1       7.707  13.668  25.717  0.00  0.00    +0.000 C 
ATOM     18  C   UNL     1       7.617  13.843  24.226  0.00  0.00    +0.000 A 
ATOM     19  C   UNL     1       8.763  13.773  23.453  0.00  0.00    +0.000 A 
ATOM     20  C   UNL     1       8.809  14.379  22.179  0.00  0.00    +0.000 A 
ATOM     21  C   UNL     1       7.532  14.630  21.569  0.00  0.00    +0.000 A 
ATOM     22  C   UNL     1       6.870  15.042  20.339  0.00  0.00    +0.000 A 
ATOM     23  N   UNL     1       5.535  15.070  20.497  0.00  0.00    +0.000 NA
ATOM     24  O   UNL     1       5.279  14.736  21.787  0.00  0.00    +0.000 OA
ATOM     25  C   UNL     1       6.432  14.477  22.430  0.00  0.00    +0.000 A 
ATOM     26  N   UNL     1       6.432  14.175  23.737  0.00  0.00    +0.000 NA
BRANCH  22  27
ATOM     27  C   UNL     1       7.321  15.462  18.959  0.00  0.00    +0.000 C 
ATOM     28  C   UNL     1       6.858  14.478  17.858  0.00  0.00    +0.000 C 
ATOM     29  C   UNL     1       6.734  16.846  18.617  0.00  0.00    +0.000 C 
ENDBRANCH  22  27
ENDBRANCH   1  20
TORSDOF 2
ENDMDL
MODEL 4
REMARK VINA RESULT:      -6.8      1.972      5.091
REMARK  Name = 
REMARK  5 active torsions:
REMARK  status: ('A' for Active; 'I' for Inactive)
REMARK    1  A    between atoms: C_1  and  C_2
REMARK    2  A    between atoms: C_4  and  C_5
REMARK    3  A    between atoms: C_22  and  C_23
REMARK    4  A    between atoms: C_23  and  C_24
REMARK    5  A    between atoms: C_23  and  C_25
REMARK                            x       y       z     vdW  Elec       q    Type
REMARK                         _______ _______ _______ _____ _____    ______ ____
ROOT
ATOM      1  C   UNL     1       9.333  14.276  22.137  0.00  0.00    +0.000 C 
ATOM      2  O   UNL     1       9.799  15.117  22.904  0.00  0.00    +0.000 OA
ATOM      3  N   UNL     1       9.996  13.953  20.900  0.00  0.00    +0.000 N 
ATOM      4  C   UNL     1      11.250  14.620  20.517  0.00  0.00    +0.000 C 
ATOM      5  C   UNL     1      11.052  15.809  19.566  0.00  0.00    +0.000 C 
ATOM      6  C   UNL     1      10.452  16.993  20.338  0.00  0.00    +0.000 C 
ATOM      7  C   UNL     1       9.009  16.982  19.895  0.00  0.00    +0.000 C 
ATOM      8  C   UNL     1       9.174  16.739  18.414  0.00  0.00    +0.000 C 
ATOM      9  N   UNL     1      10.167  15.668  18.407  0.00  0.00    +0.000 NA
ATOM     10  C   UNL     1       9.729  14.404  17.844  0.00  0.00    +0.000 C 
ATOM     11  C   UNL     1       9.578  13.110  18.621  0.00  0.00    +0.000 A 
ATOM     12  C   UNL     1       9.208  12.002  17.823  0.00  0.00    +0.000 A 
ATOM     13  C   UNL     1       9.070  10.720  18.352  0.00  0.00    +0.000 A 
ATOM     14  C   UNL     1       9.324  10.504  19.698  0.00  0.00    +0.000 A 
ATOM     15  C   UNL     1       9.644  11.581  20.522  0.00  0.00    +0.000 A 
ATOM     16  C   UNL     1       9.714  12.891  20.010  0.00  0.00    +0.000 A 
ENDROOT
BRANCH   1  20
ATOM     17  C   UNL     1       7.016  11.751  25.662  0.00  0.00    +0.000 C 
ATOM     18  C   UNL     1       6.902  12.381  24.301  0.00  0.00    +0.000 A 
ATOM     19  C   UNL     1       8.045  12.662  23.572  0.00  0.00    +0.000 A 
ATOM     20  C   UNL     1       8.029  13.643  22.558  0.00  0.00    +0.000 A 
ATOM     21  C   UNL     1       6.731  13.961  22.029  0.00  0.00    +0.000 A 
ATOM     22  C   UNL     1       6.027  14.683  20.979  0.00  0.00    +0.000 A 
ATOM     23  N   UNL     1       4.696  14.542  21.106  0.00  0.00    +0.000 NA
ATOM     24  O   UNL     1       4.479  13.794  22.218  0.00  0.00    +0.000 OA
ATOM     25  C   UNL     1       5.654  13.447  22.771  0.00  0.00    +0.000 A 
ATOM     26  N   UNL     1       5.689  12.746  23.915  0.00  0.00    +0.000 NA
BRANCH  22  27
ATOM     27  C   UNL     1       6.430  15.558  19.813  0.00  0.00    +0.000 C 
ATOM     28  C   UNL     1       6.208  14.865  18.446  0.00  0.00    +0.000 C 
ATOM     29  C   UNL     1       5.591  16.851  19.817  0.00  0.00    +0.000 C 
ENDBRANCH  22  27
ENDBRANCH   1  20
TORSDOF 2
ENDMDL
MODEL 5
REMARK VINA RESULT:      -6.7      1.864      3.873
REMARK  Name = 
REMARK  5 active torsions:
REMARK  status: ('A' for Active; 'I' for Inactive)
REMARK    1  A    between atoms: C_1  and  C_2
REMARK    2  A    between atoms: C_4  and  C_5
REMARK    3  A    between atoms: C_22  and  C_23
REMARK    4  A    between atoms: C_23  and  C_24
REMARK    5  A    between atoms: C_23  and  C_25
REMARK                            x       y       z     vdW  Elec       q    Type
REMARK                         _______ _______ _______ _____ _____    ______ ____
ROOT
ATOM      1  C   UNL     1       9.437  15.665  20.722  0.00  0.00    +0.000 C 
ATOM      2  O   UNL     1       9.837  16.749  21.146  0.00  0.00    +0.000 OA
ATOM      3  N   UNL     1      10.343  14.730  20.107  0.00  0.00    +0.000 N 
ATOM      4  C   UNL     1      11.773  15.043  19.967  0.00  0.00    +0.000 C 
ATOM      5  C   UNL     1      12.150  15.606  18.590  0.00  0.00    +0.000 C 
ATOM      6  C   UNL     1      11.642  17.050  18.465  0.00  0.00    +0.000 C 
ATOM      7  C   UNL     1      10.435  16.902  17.571  0.00  0.00    +0.000 C 
ATOM      8  C   UNL     1      10.971  15.943  16.536  0.00  0.00    +0.000 C 
ATOM      9  N   UNL     1      11.643  14.956  17.378  0.00  0.00    +0.000 NA
ATOM     10  C   UNL     1      11.110  13.608  17.320  0.00  0.00    +0.000 C 
ATOM     11  C   UNL     1      10.437  12.886  18.473  0.00  0.00    +0.000 A 
ATOM     12  C   UNL     1      10.073  11.551  18.178  0.00  0.00    +0.000 A 
ATOM     13  C   UNL     1       9.489  10.715  19.129  0.00  0.00    +0.000 A 
ATOM     14  C   UNL     1       9.274  11.187  20.415  0.00  0.00    +0.000 A 
ATOM     15  C   UNL     1       9.576  12.511  20.725  0.00  0.00    +0.000 A 
ATOM     16  C   UNL     1      10.098  13.384  19.750  0.00  0.00    +0.000 A 
ENDROOT
BRANCH   1  20
ATOM     17  C   UNL     1       5.176  15.174  18.318  0.00  0.00    +0.000 C 
ATOM     18  C   UNL     1       5.857  15.178  19.660  0.00  0.00    +0.000 A 
ATOM     19  C   UNL     1       7.098  15.773  19.802  0.00  0.00    +0.000 A 
ATOM     20  C   UNL     1       7.957  15.403  20.860  0.00  0.00    +0.000 A 
ATOM     21  C   UNL     1       7.315  14.776  21.983  0.00  0.00    +0.000 A 
ATOM     22  C   UNL     1       7.513  14.313  23.349  0.00  0.00    +0.000 A 
ATOM     23  N   UNL     1       6.386  13.767  23.840  0.00  0.00    +0.000 NA
ATOM     24  O   UNL     1       5.459  13.807  22.849  0.00  0.00    +0.000 OA
ATOM     25  C   UNL     1       5.983  14.390  21.757  0.00  0.00    +0.000 A 
ATOM     26  N   UNL     1       5.265  14.495  20.628  0.00  0.00    +0.000 NA
BRANCH  22  27
ATOM     27  C   UNL     1       8.670  14.279  24.322  0.00  0.00    +0.000 C 
ATOM     28  C   UNL     1       9.232  15.689  24.625  0.00  0.00    +0.000 C 
ATOM     29  C   UNL     1       8.209  13.668  25.660  0.00  0.00    +0.000 C 
ENDBRANCH  22  27
ENDBRANCH   1  20
TORSDOF 2
ENDMDL
MODEL 6
REMARK VINA RESULT:      -6.6      8.322     11.799
REMARK  Name = 
REMARK  5 active torsions:
REMARK  status: ('A' for Active; 'I' for Inactive)
REMARK    1  A    between atoms: C_1  and  C_2
REMARK    2  A    between atoms: C_4  and  C_5
REMARK    3  A    between atoms: C_22  and  C_23
REMARK    4  A    between atoms: C_23  and  C_24
REMARK    5  A    between atoms: C_23  and  C_25
REMARK                            x       y       z     vdW  Elec       q    Type
REMARK                         _______ _______ _______ _____ _____    ______ ____
ROOT
ATOM      1  C   UNL     1      -1.860  14.566  21.590  0.00  0.00    +0.000 C 
ATOM      2  O   UNL     1      -1.874  15.795  21.614  0.00  0.00    +0.000 OA
ATOM      3  N   UNL     1      -0.628  13.836  21.753  0.00  0.00    +0.000 N 
ATOM      4  C   UNL     1       0.648  14.541  21.951  0.00  0.00    +0.000 C 
ATOM      5  C   UNL     1       1.462  14.720  20.662  0.00  0.00    +0.000 C 
ATOM      6  C   UNL     1       0.805  15.793  19.782  0.00  0.00    +0.000 C 
ATOM      7  C   UNL     1       0.133  14.975  18.706  0.00  0.00    +0.000 C 
ATOM      8  C   UNL     1       1.215  13.966  18.406  0.00  0.00    +0.000 C 
ATOM      9  N   UNL     1       1.635  13.585  19.752  0.00  0.00    +0.000 NA
ATOM     10  C   UNL     1       1.425  12.194  20.109  0.00  0.00    +0.000 C 
ATOM     11  C   UNL     1       0.471  11.704  21.182  0.00  0.00    +0.000 A 
ATOM     12  C   UNL     1       0.508  10.304  21.386  0.00  0.00    +0.000 A 
ATOM     13  C   UNL     1      -0.262   9.677  22.364  0.00  0.00    +0.000 A 
ATOM     14  C   UNL     1      -1.078  10.440  23.185  0.00  0.00    +0.000 A 
ATOM     15  C   UNL     1      -1.175  11.814  22.980  0.00  0.00    +0.000 A 
ATOM     16  C   UNL     1      -0.456  12.446  21.946  0.00  0.00    +0.000 A 
ENDROOT
BRANCH   1  20
ATOM     17  C   UNL     1      -4.390  11.548  18.646  0.00  0.00    +0.000 C 
ATOM     18  C   UNL     1      -4.430  12.409  19.880  0.00  0.00    +0.000 A 
ATOM     19  C   UNL     1      -3.480  13.400  20.060  0.00  0.00    +0.000 A 
ATOM     20  C   UNL     1      -3.187  13.889  21.352  0.00  0.00    +0.000 A 
ATOM     21  C   UNL     1      -4.206  13.665  22.341  0.00  0.00    +0.000 A 
ATOM     22  C   UNL     1      -4.625  13.985  23.698  0.00  0.00    +0.000 A 
ATOM     23  N   UNL     1      -5.779  13.365  24.004  0.00  0.00    +0.000 NA
ATOM     24  O   UNL     1      -6.125  12.613  22.928  0.00  0.00    +0.000 OA
ATOM     25  C   UNL     1      -5.219  12.774  21.948  0.00  0.00    +0.000 A 
ATOM     26  N   UNL     1      -5.325  12.086  20.800  0.00  0.00    +0.000 NA
BRANCH  22  27
ATOM     27  C   UNL     1      -4.070  14.814  24.833  0.00  0.00    +0.000 C 
ATOM     28  C   UNL     1      -2.541  14.638  25.005  0.00  0.00    +0.000 C 
ATOM     29  C   UNL     1      -4.335  16.309  24.565  0.00  0.00    +0.000 C 
ENDBRANCH  22  27
ENDBRANCH   1  20
TORSDOF 2
ENDMDL
MODEL 7
REMARK VINA RESULT:      -6.6      2.380      4.229
REMARK  Name = 
REMARK  5 active torsions:
REMARK  status: ('A' for Active; 'I' for Inactive)
REMARK    1  A    between atoms: C_1  and  C_2
REMARK    2  A    between atoms: C_4  and  C_5
REMARK    3  A    between atoms: C_22  and  C_23
REMARK    4  A    between atoms: C_23  and  C_24
REMARK    5  A    between atoms: C_23  and  C_25
REMARK                            x       y       z     vdW  Elec       q    Type
REMARK                         _______ _______ _______ _____ _____    ______ ____
ROOT
ATOM      1  C   UNL     1       9.337  13.160  21.438  0.00  0.00    +0.000 C 
ATOM      2  O   UNL     1       9.578  12.008  21.795  0.00  0.00    +0.000 OA
ATOM      3  N   UNL     1       9.027  13.459  20.063  0.00  0.00    +0.000 N 
ATOM      4  C   UNL     1       8.991  12.397  19.047  0.00  0.00    +0.000 C 
ATOM      5  C   UNL     1      10.292  12.266  18.243  0.00  0.00    +0.000 C 
ATOM      6  C   UNL     1      11.380  11.631  19.122  0.00  0.00    +0.000 C 
ATOM      7  C   UNL     1      12.251  12.811  19.478  0.00  0.00    +0.000 C 
ATOM      8  C   UNL     1      12.332  13.511  18.142  0.00  0.00    +0.000 C 
ATOM      9  N   UNL     1      10.937  13.469  17.710  0.00  0.00    +0.000 NA
ATOM     10  C   UNL     1      10.288  14.756  17.545  0.00  0.00    +0.000 C 
ATOM     11  C   UNL     1       9.130  15.263  18.385  0.00  0.00    +0.000 A 
ATOM     12  C   UNL     1       8.630  16.520  17.971  0.00  0.00    +0.000 A 
ATOM     13  C   UNL     1       7.536  17.122  18.591  0.00  0.00    +0.000 A 
ATOM     14  C   UNL     1       6.894  16.469  19.632  0.00  0.00    +0.000 A 
ATOM     15  C   UNL     1       7.390  15.252  20.095  0.00  0.00    +0.000 A 
ATOM     16  C   UNL     1       8.539  14.672  19.523  0.00  0.00    +0.000 A 
ENDROOT
BRANCH   1  20
ATOM     17  C   UNL     1      10.482  17.839  22.419  0.00  0.00    +0.000 C 
ATOM     18  C   UNL     1      10.001  16.530  22.983  0.00  0.00    +0.000 A 
ATOM     19  C   UNL     1      10.225  15.355  22.284  0.00  0.00    +0.000 A 
ATOM     20  C   UNL     1       9.417  14.220  22.509  0.00  0.00    +0.000 A 
ATOM     21  C   UNL     1       8.717  14.201  23.764  0.00  0.00    +0.000 A 
ATOM     22  C   UNL     1       7.910  13.378  24.655  0.00  0.00    +0.000 A 
ATOM     23  N   UNL     1       7.554  14.066  25.754  0.00  0.00    +0.000 NA
ATOM     24  O   UNL     1       8.052  15.321  25.618  0.00  0.00    +0.000 OA
ATOM     25  C   UNL     1       8.733  15.420  24.463  0.00  0.00    +0.000 A 
ATOM     26  N   UNL     1       9.273  16.589  24.087  0.00  0.00    +0.000 NA
BRANCH  22  27
ATOM     27  C   UNL     1       7.366  11.968  24.625  0.00  0.00    +0.000 C 
ATOM     28  C   UNL     1       6.691  11.564  25.959  0.00  0.00    +0.000 C 
ATOM     29  C   UNL     1       6.304  11.842  23.514  0.00  0.00    +0.000 C 
ENDBRANCH  22  27
ENDBRANCH   1  20
TORSDOF 2
ENDMDL
MODEL 8
REMARK VINA RESULT:      -6.6      1.930      5.619
REMARK  Name = 
REMARK  5 active torsions:
REMARK  status: ('A' for Active; 'I' for Inactive)
REMARK    1  A    between atoms: C_1  and  C_2
REMARK    2  A    between atoms: C_4  and  C_5
REMARK    3  A    between atoms: C_22  and  C_23
REMARK    4  A    between atoms: C_23  and  C_24
REMARK    5  A    between atoms: C_23  and  C_25
REMARK                            x       y       z     vdW  Elec       q    Type
REMARK                         _______ _______ _______ _____ _____    ______ ____
ROOT
ATOM      1  C   UNL     1       7.861  14.680  19.034  0.00  0.00    +0.000 C 
ATOM      2  O   UNL     1       7.024  13.987  18.456  0.00  0.00    +0.000 OA
ATOM      3  N   UNL     1       7.676  15.074  20.407  0.00  0.00    +0.000 N 
ATOM      4  C   UNL     1       6.480  14.661  21.158  0.00  0.00    +0.000 C 
ATOM      5  C   UNL     1       5.371  15.721  21.186  0.00  0.00    +0.000 C 
ATOM      6  C   UNL     1       4.695  15.798  19.809  0.00  0.00    +0.000 C 
ATOM      7  C   UNL     1       5.269  17.067  19.227  0.00  0.00    +0.000 C 
ATOM      8  C   UNL     1       5.194  17.982  20.425  0.00  0.00    +0.000 C 
ATOM      9  N   UNL     1       5.711  17.116  21.482  0.00  0.00    +0.000 NA
ATOM     10  C   UNL     1       6.940  17.555  22.114  0.00  0.00    +0.000 C 
ATOM     11  C   UNL     1       8.270  16.829  22.033  0.00  0.00    +0.000 A 
ATOM     12  C   UNL     1       9.297  17.427  22.801  0.00  0.00    +0.000 A 
ATOM     13  C   UNL     1      10.574  16.874  22.890  0.00  0.00    +0.000 A 
ATOM     14  C   UNL     1      10.853  15.688  22.229  0.00  0.00    +0.000 A 
ATOM     15  C   UNL     1       9.879  15.098  21.426  0.00  0.00    +0.000 A 
ATOM     16  C   UNL     1       8.610  15.689  21.272  0.00  0.00    +0.000 A 
ENDROOT
BRANCH   1  20
ATOM     17  C   UNL     1      10.394  18.503  17.261  0.00  0.00    +0.000 C 
ATOM     18  C   UNL     1      10.287  17.003  17.331  0.00  0.00    +0.000 A 
ATOM     19  C   UNL     1       9.085  16.414  17.685  0.00  0.00    +0.000 A 
ATOM     20  C   UNL     1       9.054  15.105  18.213  0.00  0.00    +0.000 A 
ATOM     21  C   UNL     1      10.206  14.297  17.923  0.00  0.00    +0.000 A 
ATOM     22  C   UNL     1      10.753  12.949  17.999  0.00  0.00    +0.000 A 
ATOM     23  N   UNL     1      12.005  12.910  17.511  0.00  0.00    +0.000 NA
ATOM     24  O   UNL     1      12.333  14.177  17.151  0.00  0.00    +0.000 OA
ATOM     25  C   UNL     1      11.297  15.001  17.386  0.00  0.00    +0.000 A 
ATOM     26  N   UNL     1      11.406  16.319  17.157  0.00  0.00    +0.000 NA
BRANCH  22  27
ATOM     27  C   UNL     1      10.265  11.612  18.510  0.00  0.00    +0.000 C 
ATOM     28  C   UNL     1      10.097  11.590  20.048  0.00  0.00    +0.000 C 
ATOM     29  C   UNL     1       8.892  11.287  17.890  0.00  0.00    +0.000 C 
ENDBRANCH  22  27
ENDBRANCH   1  20
TORSDOF 2
ENDMDL
MODEL 9
REMARK VINA RESULT:      -6.5      2.427      4.009
REMARK  Name = 
REMARK  5 active torsions:
REMARK  status: ('A' for Active; 'I' for Inactive)
REMARK    1  A    between atoms: C_1  and  C_2
REMARK    2  A    between atoms: C_4  and  C_5
REMARK    3  A    between atoms: C_22  and  C_23
REMARK    4  A    between atoms: C_23  and  C_24
REMARK    5  A    between atoms: C_23  and  C_25
REMARK                            x       y       z     vdW  Elec       q    Type
REMARK                         _______ _______ _______ _____ _____    ______ ____
ROOT
ATOM      1  C   UNL     1       9.221  13.686  20.756  0.00  0.00    +0.000 C 
ATOM      2  O   UNL     1       8.972  12.513  21.030  0.00  0.00    +0.000 OA
ATOM      3  N   UNL     1       9.123  14.167  19.402  0.00  0.00    +0.000 N 
ATOM      4  C   UNL     1       8.723  13.269  18.307  0.00  0.00    +0.000 C 
ATOM      5  C   UNL     1       9.907  12.684  17.525  0.00  0.00    +0.000 C 
ATOM      6  C   UNL     1      10.612  11.617  18.376  0.00  0.00    +0.000 C 
ATOM      7  C   UNL     1      11.858  12.333  18.840  0.00  0.00    +0.000 C 
ATOM      8  C   UNL     1      12.274  13.023  17.563  0.00  0.00    +0.000 C 
ATOM      9  N   UNL     1      10.999  13.563  17.099  0.00  0.00    +0.000 NA
ATOM     10  C   UNL     1      10.917  15.009  17.017  0.00  0.00    +0.000 C 
ATOM     11  C   UNL     1      10.011  15.880  17.867  0.00  0.00    +0.000 A 
ATOM     12  C   UNL     1      10.067  17.256  17.540  0.00  0.00    +0.000 A 
ATOM     13  C   UNL     1       9.268  18.203  18.179  0.00  0.00    +0.000 A 
ATOM     14  C   UNL     1       8.370  17.795  19.153  0.00  0.00    +0.000 A 
ATOM     15  C   UNL     1       8.324  16.455  19.533  0.00  0.00    +0.000 A 
ATOM     16  C   UNL     1       9.179  15.504  18.944  0.00  0.00    +0.000 A 
ENDROOT
BRANCH   1  20
ATOM     17  C   UNL     1      11.878  17.607  22.073  0.00  0.00    +0.000 C 
ATOM     18  C   UNL     1      10.987  16.490  22.545  0.00  0.00    +0.000 A 
ATOM     19  C   UNL     1      10.800  15.374  21.747  0.00  0.00    +0.000 A 
ATOM     20  C   UNL     1       9.658  14.560  21.906  0.00  0.00    +0.000 A 
ATOM     21  C   UNL     1       8.997  14.667  23.178  0.00  0.00    +0.000 A 
ATOM     22  C   UNL     1       7.964  14.089  24.025  0.00  0.00    +0.000 A 
ATOM     23  N   UNL     1       7.865  14.757  25.188  0.00  0.00    +0.000 NA
ATOM     24  O   UNL     1       8.755  15.780  25.137  0.00  0.00    +0.000 OA
ATOM     25  C   UNL     1       9.425  15.745  23.972  0.00  0.00    +0.000 A 
ATOM     26  N   UNL     1      10.326  16.694  23.673  0.00  0.00    +0.000 NA
BRANCH  22  27
ATOM     27  C   UNL     1       6.976  12.951  23.900  0.00  0.00    +0.000 C 
ATOM     28  C   UNL     1       7.626  11.570  24.163  0.00  0.00    +0.000 C 
ATOM     29  C   UNL     1       5.841  13.130  24.929  0.00  0.00    +0.000 C 
ENDBRANCH  22  27
ENDBRANCH   1  20
TORSDOF 2
ENDMDL
