MODEL 1
REMARK VINA RESULT:      -9.0      0.000      0.000
REMARK  Name = 
REMARK  7 active torsions:
REMARK  status: ('A' for Active; 'I' for Inactive)
REMARK    1  A    between atoms: C_1  and  C_2
REMARK    2  A    between atoms: C_4  and  C_5
REMARK    3  A    between atoms: N_6  and  C_7
REMARK    4  A    between atoms: C_7  and  C_8
REMARK    5  A    between atoms: C_12  and  C_13
REMARK    6  A    between atoms: N_21  and  C_22
REMARK    7  A    between atoms: C_22  and  C_23
REMARK                            x       y       z     vdW  Elec       q    Type
REMARK                         _______ _______ _______ _____ _____    ______ ____
ROOT
ATOM      1  C   UNL     1       2.099   7.339  19.502  0.00  0.00    +0.000 C 
ATOM      2  O   UNL     1       2.033   7.045  20.692  0.00  0.00    +0.000 OA
ATOM      3  N   UNL     1       1.647   8.556  19.009  0.00  0.00    +0.000 N 
ATOM      4  C   UNL     1       1.907   9.150  17.695  0.00  0.00    +0.000 C 
ATOM      5  C   UNL     1       1.486  10.614  17.813  0.00  0.00    +0.000 C 
ATOM      6  O   UNL     1       2.608  11.406  18.226  0.00  0.00    +0.000 OA
ATOM      7  C   UNL     1       2.197  12.718  18.626  0.00  0.00    +0.000 C 
ATOM      8  C   UNL     1       1.150  12.653  19.749  0.00  0.00    +0.000 C 
ATOM      9  N   UNL     1      -0.055  11.865  19.405  0.00  0.00    +0.000 NA
ATOM     10  C   UNL     1       0.376  10.541  18.890  0.00  0.00    +0.000 C 
ATOM     11  C   UNL     1       0.987   9.527  19.881  0.00  0.00    +0.000 C 
ENDROOT
BRANCH   1  16
ATOM     12  C   UNL     1       4.443   5.722  16.970  0.00  0.00    +0.000 A 
ATOM     13  C   UNL     1       3.919   4.425  16.934  0.00  0.00    +0.000 A 
ATOM     14  C   UNL     1       2.760   4.111  17.648  0.00  0.00    +0.000 A 
ATOM     15  C   UNL     1       2.160   5.067  18.470  0.00  0.00    +0.000 A 
ATOM     16  C   UNL     1       2.703   6.353  18.559  0.00  0.00    +0.000 A 
ATOM     17  C   UNL     1       3.782   6.689  17.737  0.00  0.00    +0.000 A 
BRANCH  12  18
ATOM     18  C   UNL     1       5.687   6.107  16.210  0.00  0.00    +0.000 C 
BRANCH  18  24
ATOM     19  C   UNL     1       8.465   9.572  18.154  0.00  0.00    +0.000 C 
ATOM     20  C   UNL     1       7.895   8.220  17.936  0.00  0.00    +0.000 A 
ATOM     21  C   UNL     1       8.239   7.023  18.597  0.00  0.00    +0.000 A 
ATOM     22  C   UNL     1       7.438   6.049  18.044  0.00  0.00    +0.000 A 
ATOM     23  C   UNL     1       7.336   4.603  18.343  0.00  0.00    +0.000 C 
ATOM     24  N   UNL     1       6.698   6.690  17.080  0.00  0.00    +0.000 N 
ATOM     25  N   UNL     1       6.935   8.019  17.023  0.00  0.00    +0.000 NA
ENDBRANCH  18  24
ENDBRANCH  12  18
ENDBRANCH   1  16
BRANCH   9  26
ATOM     26  C   UNL     1      -0.882  12.520  18.362  0.00  0.00    +0.000 C 
BRANCH  26  27
ATOM     27  C   UNL     1      -2.254  11.929  18.140  0.00  0.00    +0.000 A 
ATOM     28  C   UNL     1      -3.270  12.120  19.090  0.00  0.00    +0.000 A 
ATOM     29  C   UNL     1      -4.552  11.615  18.871  0.00  0.00    +0.000 A 
ATOM     30  C   UNL     1      -4.833  10.920  17.697  0.00  0.00    +0.000 A 
ATOM     31  C   UNL     1      -3.832  10.726  16.746  0.00  0.00    +0.000 A 
ATOM     32  C   UNL     1      -2.547  11.224  16.966  0.00  0.00    +0.000 A 
ENDBRANCH  26  27
ENDBRANCH   9  26
TORSDOF 5
ENDMDL
MODEL 2
REMARK VINA RESULT:      -8.7      1.505      2.462
REMARK  Name = 
REMARK  7 active torsions:
REMARK  status: ('A' for Active; 'I' for Inactive)
REMARK    1  A    between atoms: C_1  and  C_2
REMARK    2  A    between atoms: C_4  and  C_5
REMARK    3  A    between atoms: N_6  and  C_7
REMARK    4  A    between atoms: C_7  and  C_8
REMARK    5  A    between atoms: C_12  and  C_13
REMARK    6  A    between atoms: N_21  and  C_22
REMARK    7  A    between atoms: C_22  and  C_23
REMARK                            x       y       z     vdW  Elec       q    Type
REMARK                         _______ _______ _______ _____ _____    ______ ____
ROOT
ATOM      1  C   UNL     1       2.047   6.781  19.925  0.00  0.00    +0.000 C 
ATOM      2  O   UNL     1       2.126   6.644  21.143  0.00  0.00    +0.000 OA
ATOM      3  N   UNL     1       1.584   7.948  19.334  0.00  0.00    +0.000 N 
ATOM      4  C   UNL     1       1.693   8.355  17.931  0.00  0.00    +0.000 C 
ATOM      5  C   UNL     1       1.350   9.843  17.904  0.00  0.00    +0.000 C 
ATOM      6  O   UNL     1       2.546  10.617  18.066  0.00  0.00    +0.000 OA
ATOM      7  C   UNL     1       2.243  11.990  18.335  0.00  0.00    +0.000 C 
ATOM      8  C   UNL     1       1.350  12.128  19.579  0.00  0.00    +0.000 C 
ATOM      9  N   UNL     1       0.079  11.371  19.495  0.00  0.00    +0.000 NA
ATOM     10  C   UNL     1       0.387   9.970  19.111  0.00  0.00    +0.000 C 
ATOM     11  C   UNL     1       1.082   9.057  20.144  0.00  0.00    +0.000 C 
ENDROOT
BRANCH   1  16
ATOM     12  C   UNL     1       4.251   4.290  18.064  0.00  0.00    +0.000 A 
ATOM     13  C   UNL     1       3.278   3.417  17.564  0.00  0.00    +0.000 A 
ATOM     14  C   UNL     1       1.921   3.693  17.745  0.00  0.00    +0.000 A 
ATOM     15  C   UNL     1       1.523   4.798  18.501  0.00  0.00    +0.000 A 
ATOM     16  C   UNL     1       2.484   5.650  19.054  0.00  0.00    +0.000 A 
ATOM     17  C   UNL     1       3.832   5.436  18.751  0.00  0.00    +0.000 A 
BRANCH  12  18
ATOM     18  C   UNL     1       5.726   4.036  17.884  0.00  0.00    +0.000 C 
BRANCH  18  24
ATOM     19  C   UNL     1       6.327   3.613  13.092  0.00  0.00    +0.000 C 
ATOM     20  C   UNL     1       6.421   4.207  14.448  0.00  0.00    +0.000 A 
ATOM     21  C   UNL     1       7.054   5.412  14.819  0.00  0.00    +0.000 A 
ATOM     22  C   UNL     1       6.869   5.526  16.178  0.00  0.00    +0.000 A 
ATOM     23  C   UNL     1       7.292   6.585  17.121  0.00  0.00    +0.000 C 
ATOM     24  N   UNL     1       6.181   4.395  16.548  0.00  0.00    +0.000 N 
ATOM     25  N   UNL     1       5.867   3.598  15.504  0.00  0.00    +0.000 NA
ENDBRANCH  18  24
ENDBRANCH  12  18
ENDBRANCH   1  16
BRANCH   9  26
ATOM     26  C   UNL     1      -0.850  11.934  18.485  0.00  0.00    +0.000 C 
BRANCH  26  27
ATOM     27  C   UNL     1      -2.299  12.028  18.901  0.00  0.00    +0.000 A 
ATOM     28  C   UNL     1      -2.647  12.625  20.122  0.00  0.00    +0.000 A 
ATOM     29  C   UNL     1      -3.986  12.756  20.493  0.00  0.00    +0.000 A 
ATOM     30  C   UNL     1      -4.990  12.297  19.643  0.00  0.00    +0.000 A 
ATOM     31  C   UNL     1      -4.655  11.704  18.426  0.00  0.00    +0.000 A 
ATOM     32  C   UNL     1      -3.316  11.566  18.057  0.00  0.00    +0.000 A 
ENDBRANCH  26  27
ENDBRANCH   9  26
TORSDOF 5
ENDMDL
MODEL 3
REMARK VINA RESULT:      -8.4      1.985      9.387
REMARK  Name = 
REMARK  7 active torsions:
REMARK  status: ('A' for Active; 'I' for Inactive)
REMARK    1  A    between atoms: C_1  and  C_2
REMARK    2  A    between atoms: C_4  and  C_5
REMARK    3  A    between atoms: N_6  and  C_7
REMARK    4  A    between atoms: C_7  and  C_8
REMARK    5  A    between atoms: C_12  and  C_13
REMARK    6  A    between atoms: N_21  and  C_22
REMARK    7  A    between atoms: C_22  and  C_23
REMARK                            x       y       z     vdW  Elec       q    Type
REMARK                         _______ _______ _______ _____ _____    ______ ____
ROOT
ATOM      1  C   UNL     1       1.338   8.589  20.416  0.00  0.00    +0.000 C 
ATOM      2  O   UNL     1       1.117   8.437  21.614  0.00  0.00    +0.000 OA
ATOM      3  N   UNL     1       1.981   7.628  19.649  0.00  0.00    +0.000 N 
ATOM      4  C   UNL     1       2.064   7.546  18.188  0.00  0.00    +0.000 C 
ATOM      5  C   UNL     1       2.561   6.134  17.881  0.00  0.00    +0.000 C 
ATOM      6  O   UNL     1       1.441   5.254  17.716  0.00  0.00    +0.000 OA
ATOM      7  C   UNL     1       1.855   3.883  17.716  0.00  0.00    +0.000 C 
ATOM      8  C   UNL     1       2.620   3.534  19.002  0.00  0.00    +0.000 C 
ATOM      9  N   UNL     1       3.807   4.385  19.248  0.00  0.00    +0.000 NA
ATOM     10  C   UNL     1       3.397   5.808  19.143  0.00  0.00    +0.000 C 
ATOM     11  C   UNL     1       2.505   6.404  20.254  0.00  0.00    +0.000 C 
ENDROOT
BRANCH   1  16
ATOM     12  C   UNL     1      -0.872  11.473  19.268  0.00  0.00    +0.000 A 
ATOM     13  C   UNL     1       0.088  12.312  18.690  0.00  0.00    +0.000 A 
ATOM     14  C   UNL     1       1.418  11.898  18.587  0.00  0.00    +0.000 A 
ATOM     15  C   UNL     1       1.818  10.678  19.136  0.00  0.00    +0.000 A 
ATOM     16  C   UNL     1       0.882   9.852  19.765  0.00  0.00    +0.000 A 
ATOM     17  C   UNL     1      -0.466  10.219  19.740  0.00  0.00    +0.000 A 
BRANCH  12  18
ATOM     18  C   UNL     1      -2.320  11.876  19.392  0.00  0.00    +0.000 C 
BRANCH  18  24
ATOM     19  C   UNL     1      -3.078  10.417  14.831  0.00  0.00    +0.000 C 
ATOM     20  C   UNL     1      -3.396  10.909  16.194  0.00  0.00    +0.000 A 
ATOM     21  C   UNL     1      -4.664  11.241  16.716  0.00  0.00    +0.000 A 
ATOM     22  C   UNL     1      -4.437  11.644  18.013  0.00  0.00    +0.000 A 
ATOM     23  C   UNL     1      -5.382  12.093  19.060  0.00  0.00    +0.000 C 
ATOM     24  N   UNL     1      -3.076  11.568  18.186  0.00  0.00    +0.000 N 
ATOM     25  N   UNL     1      -2.428  11.087  17.103  0.00  0.00    +0.000 NA
ENDBRANCH  18  24
ENDBRANCH  12  18
ENDBRANCH   1  16
BRANCH   9  26
ATOM     26  C   UNL     1       4.891   4.142  18.266  0.00  0.00    +0.000 C 
BRANCH  26  27
ATOM     27  C   UNL     1       6.027   5.139  18.277  0.00  0.00    +0.000 A 
ATOM     28  C   UNL     1       6.144   6.090  17.251  0.00  0.00    +0.000 A 
ATOM     29  C   UNL     1       7.164   7.041  17.278  0.00  0.00    +0.000 A 
ATOM     30  C   UNL     1       8.072   7.056  18.334  0.00  0.00    +0.000 A 
ATOM     31  C   UNL     1       7.964   6.117  19.359  0.00  0.00    +0.000 A 
ATOM     32  C   UNL     1       6.948   5.160  19.330  0.00  0.00    +0.000 A 
ENDBRANCH  26  27
ENDBRANCH   9  26
TORSDOF 5
ENDMDL
MODEL 4
REMARK VINA RESULT:      -8.4      0.885      1.472
REMARK  Name = 
REMARK  7 active torsions:
REMARK  status: ('A' for Active; 'I' for Inactive)
REMARK    1  A    between atoms: C_1  and  C_2
REMARK    2  A    between atoms: C_4  and  C_5
REMARK    3  A    between atoms: N_6  and  C_7
REMARK    4  A    between atoms: C_7  and  C_8
REMARK    5  A    between atoms: C_12  and  C_13
REMARK    6  A    between atoms: N_21  and  C_22
REMARK    7  A    between atoms: C_22  and  C_23
REMARK                            x       y       z     vdW  Elec       q    Type
REMARK                         _______ _______ _______ _____ _____    ______ ____
ROOT
ATOM      1  C   UNL     1       2.110   7.550  19.862  0.00  0.00    +0.000 C 
ATOM      2  O   UNL     1       2.275   7.320  21.058  0.00  0.00    +0.000 OA
ATOM      3  N   UNL     1       1.458   8.687  19.406  0.00  0.00    +0.000 N 
ATOM      4  C   UNL     1       1.431   9.226  18.043  0.00  0.00    +0.000 C 
ATOM      5  C   UNL     1       0.886  10.648  18.172  0.00  0.00    +0.000 C 
ATOM      6  O   UNL     1       1.973  11.566  18.352  0.00  0.00    +0.000 OA
ATOM      7  C   UNL     1       1.501  12.853  18.763  0.00  0.00    +0.000 C 
ATOM      8  C   UNL     1       0.670  12.755  20.052  0.00  0.00    +0.000 C 
ATOM      9  N   UNL     1      -0.488  11.837  19.954  0.00  0.00    +0.000 NA
ATOM     10  C   UNL     1      -0.014  10.532  19.427  0.00  0.00    +0.000 C 
ATOM     11  C   UNL     1       0.857   9.640  20.338  0.00  0.00    +0.000 C 
ENDROOT
BRANCH   1  16
ATOM     12  C   UNL     1       4.247   5.972  17.130  0.00  0.00    +0.000 A 
ATOM     13  C   UNL     1       3.750   4.664  17.146  0.00  0.00    +0.000 A 
ATOM     14  C   UNL     1       2.669   4.329  17.964  0.00  0.00    +0.000 A 
ATOM     15  C   UNL     1       2.126   5.275  18.835  0.00  0.00    +0.000 A 
ATOM     16  C   UNL     1       2.646   6.573  18.871  0.00  0.00    +0.000 A 
ATOM     17  C   UNL     1       3.637   6.929  17.952  0.00  0.00    +0.000 A 
BRANCH  12  18
ATOM     18  C   UNL     1       5.406   6.381  16.257  0.00  0.00    +0.000 C 
BRANCH  18  24
ATOM     19  C   UNL     1       8.481   9.634  18.119  0.00  0.00    +0.000 C 
ATOM     20  C   UNL     1       7.857   8.313  17.864  0.00  0.00    +0.000 A 
ATOM     21  C   UNL     1       8.250   7.061  18.380  0.00  0.00    +0.000 A 
ATOM     22  C   UNL     1       7.365   6.148  17.853  0.00  0.00    +0.000 A 
ATOM     23  C   UNL     1       7.265   4.683  18.046  0.00  0.00    +0.000 C 
ATOM     24  N   UNL     1       6.529   6.876  17.041  0.00  0.00    +0.000 N 
ATOM     25  N   UNL     1       6.789   8.201  17.063  0.00  0.00    +0.000 NA
ENDBRANCH  18  24
ENDBRANCH  12  18
ENDBRANCH   1  16
BRANCH   9  26
ATOM     26  C   UNL     1      -1.541  12.348  19.044  0.00  0.00    +0.000 C 
BRANCH  26  27
ATOM     27  C   UNL     1      -2.933  12.432  19.625  0.00  0.00    +0.000 A 
ATOM     28  C   UNL     1      -4.046  12.058  18.855  0.00  0.00    +0.000 A 
ATOM     29  C   UNL     1      -5.330  12.090  19.400  0.00  0.00    +0.000 A 
ATOM     30  C   UNL     1      -5.513  12.489  20.722  0.00  0.00    +0.000 A 
ATOM     31  C   UNL     1      -4.415  12.861  21.496  0.00  0.00    +0.000 A 
ATOM     32  C   UNL     1      -3.130  12.836  20.951  0.00  0.00    +0.000 A 
ENDBRANCH  26  27
ENDBRANCH   9  26
TORSDOF 5
ENDMDL
MODEL 5
REMARK VINA RESULT:      -8.3      0.939      1.239
REMARK  Name = 
REMARK  7 active torsions:
REMARK  status: ('A' for Active; 'I' for Inactive)
REMARK    1  A    between atoms: C_1  and  C_2
REMARK    2  A    between atoms: C_4  and  C_5
REMARK    3  A    between atoms: N_6  and  C_7
REMARK    4  A    between atoms: C_7  and  C_8
REMARK    5  A    between atoms: C_12  and  C_13
REMARK    6  A    between atoms: N_21  and  C_22
REMARK    7  A    between atoms: C_22  and  C_23
REMARK                            x       y       z     vdW  Elec       q    Type
REMARK                         _______ _______ _______ _____ _____    ______ ____
ROOT
ATOM      1  C   UNL     1       1.828   7.123  19.993  0.00  0.00    +0.000 C 
ATOM      2  O   UNL     1       1.727   7.011  21.213  0.00  0.00    +0.000 OA
ATOM      3  N   UNL     1       1.471   8.283  19.320  0.00  0.00    +0.000 N 
ATOM      4  C   UNL     1       1.788   8.659  17.939  0.00  0.00    +0.000 C 
ATOM      5  C   UNL     1       1.474  10.150  17.834  0.00  0.00    +0.000 C 
ATOM      6  O   UNL     1       2.646  10.913  18.152  0.00  0.00    +0.000 OA
ATOM      7  C   UNL     1       2.328  12.294  18.348  0.00  0.00    +0.000 C 
ATOM      8  C   UNL     1       1.267  12.469  19.446  0.00  0.00    +0.000 C 
ATOM      9  N   UNL     1       0.011  11.727  19.194  0.00  0.00    +0.000 NA
ATOM     10  C   UNL     1       0.350  10.314  18.887  0.00  0.00    +0.000 C 
ATOM     11  C   UNL     1       0.875   9.415  20.027  0.00  0.00    +0.000 C 
ENDROOT
BRANCH   1  16
ATOM     12  C   UNL     1       4.245   4.592  18.485  0.00  0.00    +0.000 A 
ATOM     13  C   UNL     1       3.341   3.696  17.903  0.00  0.00    +0.000 A 
ATOM     14  C   UNL     1       1.971   3.967  17.917  0.00  0.00    +0.000 A 
ATOM     15  C   UNL     1       1.482   5.092  18.584  0.00  0.00    +0.000 A 
ATOM     16  C   UNL     1       2.368   5.969  19.217  0.00  0.00    +0.000 A 
ATOM     17  C   UNL     1       3.743   5.757  19.080  0.00  0.00    +0.000 A 
BRANCH  12  18
ATOM     18  C   UNL     1       5.732   4.345  18.487  0.00  0.00    +0.000 C 
BRANCH  18  24
ATOM     19  C   UNL     1       8.198   8.480  17.915  0.00  0.00    +0.000 C 
ATOM     20  C   UNL     1       7.553   7.195  17.548  0.00  0.00    +0.000 A 
ATOM     21  C   UNL     1       7.474   6.605  16.270  0.00  0.00    +0.000 A 
ATOM     22  C   UNL     1       6.781   5.428  16.447  0.00  0.00    +0.000 A 
ATOM     23  C   UNL     1       6.405   4.378  15.473  0.00  0.00    +0.000 C 
ATOM     24  N   UNL     1       6.458   5.392  17.782  0.00  0.00    +0.000 N 
ATOM     25  N   UNL     1       6.951   6.440  18.477  0.00  0.00    +0.000 NA
ENDBRANCH  18  24
ENDBRANCH  12  18
ENDBRANCH   1  16
BRANCH   9  26
ATOM     26  C   UNL     1      -0.754  12.278  18.050  0.00  0.00    +0.000 C 
BRANCH  26  27
ATOM     27  C   UNL     1      -2.183  11.804  17.921  0.00  0.00    +0.000 A 
ATOM     28  C   UNL     1      -3.103  12.038  18.955  0.00  0.00    +0.000 A 
ATOM     29  C   UNL     1      -4.434  11.642  18.825  0.00  0.00    +0.000 A 
ATOM     30  C   UNL     1      -4.861  11.015  17.656  0.00  0.00    +0.000 A 
ATOM     31  C   UNL     1      -3.956  10.779  16.622  0.00  0.00    +0.000 A 
ATOM     32  C   UNL     1      -2.622  11.168  16.753  0.00  0.00    +0.000 A 
ENDBRANCH  26  27
ENDBRANCH   9  26
TORSDOF 5
ENDMDL
MODEL 6
REMARK VINA RESULT:      -8.2      1.049      1.605
REMARK  Name = 
REMARK  7 active torsions:
REMARK  status: ('A' for Active; 'I' for Inactive)
REMARK    1  A    between atoms: C_1  and  C_2
REMARK    2  A    between atoms: C_4  and  C_5
REMARK    3  A    between atoms: N_6  and  C_7
REMARK    4  A    between atoms: C_7  and  C_8
REMARK    5  A    between atoms: C_12  and  C_13
REMARK    6  A    between atoms: N_21  and  C_22
REMARK    7  A    between atoms: C_22  and  C_23
REMARK                            x       y       z     vdW  Elec       q    Type
REMARK                         _______ _______ _______ _____ _____    ______ ____
ROOT
ATOM      1  C   UNL     1       1.990   6.889  19.994  0.00  0.00    +0.000 C 
ATOM      2  O   UNL     1       1.976   6.754  21.215  0.00  0.00    +0.000 OA
ATOM      3  N   UNL     1       1.533   8.039  19.366  0.00  0.00    +0.000 N 
ATOM      4  C   UNL     1       1.740   8.451  17.975  0.00  0.00    +0.000 C 
ATOM      5  C   UNL     1       1.346   9.925  17.917  0.00  0.00    +0.000 C 
ATOM      6  O   UNL     1       2.497  10.743  18.173  0.00  0.00    +0.000 OA
ATOM      7  C   UNL     1       2.123  12.103  18.414  0.00  0.00    +0.000 C 
ATOM      8  C   UNL     1       1.129  12.207  19.581  0.00  0.00    +0.000 C 
ATOM      9  N   UNL     1      -0.103  11.405  19.398  0.00  0.00    +0.000 NA
ATOM     10  C   UNL     1       0.286  10.017  19.043  0.00  0.00    +0.000 C 
ATOM     11  C   UNL     1       0.929   9.129  20.131  0.00  0.00    +0.000 C 
ENDROOT
BRANCH   1  16
ATOM     12  C   UNL     1       4.425   4.485  18.317  0.00  0.00    +0.000 A 
ATOM     13  C   UNL     1       3.528   3.574  17.747  0.00  0.00    +0.000 A 
ATOM     14  C   UNL     1       2.151   3.797  17.824  0.00  0.00    +0.000 A 
ATOM     15  C   UNL     1       1.654   4.886  18.542  0.00  0.00    +0.000 A 
ATOM     16  C   UNL     1       2.536   5.776  19.164  0.00  0.00    +0.000 A 
ATOM     17  C   UNL     1       3.910   5.614  18.965  0.00  0.00    +0.000 A 
BRANCH  12  18
ATOM     18  C   UNL     1       5.918   4.288  18.251  0.00  0.00    +0.000 C 
BRANCH  18  24
ATOM     19  C   UNL     1       8.563   8.336  18.611  0.00  0.00    +0.000 C 
ATOM     20  C   UNL     1       7.780   7.251  17.971  0.00  0.00    +0.000 A 
ATOM     21  C   UNL     1       7.472   7.103  16.602  0.00  0.00    +0.000 A 
ATOM     22  C   UNL     1       6.730   5.947  16.511  0.00  0.00    +0.000 A 
ATOM     23  C   UNL     1       6.140   5.273  15.333  0.00  0.00    +0.000 C 
ATOM     24  N   UNL     1       6.606   5.491  17.802  0.00  0.00    +0.000 N 
ATOM     25  N   UNL     1       7.269   6.250  18.700  0.00  0.00    +0.000 NA
ENDBRANCH  18  24
ENDBRANCH  12  18
ENDBRANCH   1  16
BRANCH   9  26
ATOM     26  C   UNL     1      -0.967  11.934  18.315  0.00  0.00    +0.000 C 
BRANCH  26  27
ATOM     27  C   UNL     1      -2.444  12.003  18.624  0.00  0.00    +0.000 A 
ATOM     28  C   UNL     1      -3.382  11.481  17.719  0.00  0.00    +0.000 A 
ATOM     29  C   UNL     1      -4.745  11.501  18.017  0.00  0.00    +0.000 A 
ATOM     30  C   UNL     1      -5.183  12.036  19.227  0.00  0.00    +0.000 A 
ATOM     31  C   UNL     1      -4.260  12.555  20.134  0.00  0.00    +0.000 A 
ATOM     32  C   UNL     1      -2.897  12.542  19.835  0.00  0.00    +0.000 A 
ENDBRANCH  26  27
ENDBRANCH   9  26
TORSDOF 5
ENDMDL
MODEL 7
REMARK VINA RESULT:      -8.2      2.888      4.466
REMARK  Name = 
REMARK  7 active torsions:
REMARK  status: ('A' for Active; 'I' for Inactive)
REMARK    1  A    between atoms: C_1  and  C_2
REMARK    2  A    between atoms: C_4  and  C_5
REMARK    3  A    between atoms: N_6  and  C_7
REMARK    4  A    between atoms: C_7  and  C_8
REMARK    5  A    between atoms: C_12  and  C_13
REMARK    6  A    between atoms: N_21  and  C_22
REMARK    7  A    between atoms: C_22  and  C_23
REMARK                            x       y       z     vdW  Elec       q    Type
REMARK                         _______ _______ _______ _____ _____    ______ ____
ROOT
ATOM      1  C   UNL     1       0.749   9.846  21.285  0.00  0.00    +0.000 C 
ATOM      2  O   UNL     1       1.184   9.740  22.428  0.00  0.00    +0.000 OA
ATOM      3  N   UNL     1      -0.270  10.729  20.954  0.00  0.00    +0.000 N 
ATOM      4  C   UNL     1      -0.693  11.161  19.620  0.00  0.00    +0.000 C 
ATOM      5  C   UNL     1      -1.587  12.379  19.844  0.00  0.00    +0.000 C 
ATOM      6  O   UNL     1      -0.792  13.573  19.814  0.00  0.00    +0.000 OA
ATOM      7  C   UNL     1      -1.529  14.699  20.301  0.00  0.00    +0.000 C 
ATOM      8  C   UNL     1      -2.053  14.446  21.724  0.00  0.00    +0.000 C 
ATOM      9  N   UNL     1      -2.900  13.238  21.848  0.00  0.00    +0.000 NA
ATOM     10  C   UNL     1      -2.177  12.089  21.246  0.00  0.00    +0.000 C 
ATOM     11  C   UNL     1      -0.940  11.528  21.980  0.00  0.00    +0.000 C 
ENDROOT
BRANCH   1  16
ATOM     12  C   UNL     1       2.322   6.892  19.462  0.00  0.00    +0.000 A 
ATOM     13  C   UNL     1       2.320   7.377  18.149  0.00  0.00    +0.000 A 
ATOM     14  C   UNL     1       1.906   8.683  17.878  0.00  0.00    +0.000 A 
ATOM     15  C   UNL     1       1.410   9.490  18.904  0.00  0.00    +0.000 A 
ATOM     16  C   UNL     1       1.354   9.002  20.213  0.00  0.00    +0.000 A 
ATOM     17  C   UNL     1       1.896   7.744  20.489  0.00  0.00    +0.000 A 
BRANCH  12  18
ATOM     18  C   UNL     1       2.768   5.493  19.801  0.00  0.00    +0.000 C 
BRANCH  18  24
ATOM     19  C   UNL     1       7.237   4.931  18.008  0.00  0.00    +0.000 C 
ATOM     20  C   UNL     1       5.769   4.765  18.131  0.00  0.00    +0.000 A 
ATOM     21  C   UNL     1       4.913   4.017  17.296  0.00  0.00    +0.000 A 
ATOM     22  C   UNL     1       3.650   4.176  17.820  0.00  0.00    +0.000 A 
ATOM     23  C   UNL     1       2.350   3.618  17.383  0.00  0.00    +0.000 C 
ATOM     24  N   UNL     1       3.804   5.018  18.895  0.00  0.00    +0.000 N 
ATOM     25  N   UNL     1       5.091   5.358  19.123  0.00  0.00    +0.000 NA
ENDBRANCH  18  24
ENDBRANCH  12  18
ENDBRANCH   1  16
BRANCH   9  26
ATOM     26  C   UNL     1      -4.200  13.383  21.150  0.00  0.00    +0.000 C 
BRANCH  26  27
ATOM     27  C   UNL     1      -5.422  12.970  21.937  0.00  0.00    +0.000 A 
ATOM     28  C   UNL     1      -5.426  13.063  23.338  0.00  0.00    +0.000 A 
ATOM     29  C   UNL     1      -6.566  12.726  24.069  0.00  0.00    +0.000 A 
ATOM     30  C   UNL     1      -7.714  12.299  23.406  0.00  0.00    +0.000 A 
ATOM     31  C   UNL     1      -7.721  12.204  22.015  0.00  0.00    +0.000 A 
ATOM     32  C   UNL     1      -6.580  12.534  21.282  0.00  0.00    +0.000 A 
ENDBRANCH  26  27
ENDBRANCH   9  26
TORSDOF 5
ENDMDL
MODEL 8
REMARK VINA RESULT:      -8.2      3.552      5.517
REMARK  Name = 
REMARK  7 active torsions:
REMARK  status: ('A' for Active; 'I' for Inactive)
REMARK    1  A    between atoms: C_1  and  C_2
REMARK    2  A    between atoms: C_4  and  C_5
REMARK    3  A    between atoms: N_6  and  C_7
REMARK    4  A    between atoms: C_7  and  C_8
REMARK    5  A    between atoms: C_12  and  C_13
REMARK    6  A    between atoms: N_21  and  C_22
REMARK    7  A    between atoms: C_22  and  C_23
REMARK                            x       y       z     vdW  Elec       q    Type
REMARK                         _______ _______ _______ _____ _____    ______ ____
ROOT
ATOM      1  C   UNL     1       0.404   9.395  21.618  0.00  0.00    +0.000 C 
ATOM      2  O   UNL     1       0.546   8.736  22.645  0.00  0.00    +0.000 OA
ATOM      3  N   UNL     1      -0.346  10.563  21.580  0.00  0.00    +0.000 N 
ATOM      4  C   UNL     1      -0.377  11.582  20.528  0.00  0.00    +0.000 C 
ATOM      5  C   UNL     1      -1.073  12.793  21.146  0.00  0.00    +0.000 C 
ATOM      6  O   UNL     1      -0.098  13.656  21.747  0.00  0.00    +0.000 OA
ATOM      7  C   UNL     1      -0.720  14.641  22.579  0.00  0.00    +0.000 C 
ATOM      8  C   UNL     1      -1.586  13.984  23.665  0.00  0.00    +0.000 C 
ATOM      9  N   UNL     1      -2.636  13.083  23.135  0.00  0.00    +0.000 NA
ATOM     10  C   UNL     1      -2.005  12.127  22.189  0.00  0.00    +0.000 C 
ATOM     11  C   UNL     1      -1.081  11.028  22.756  0.00  0.00    +0.000 C 
ENDROOT
BRANCH   1  16
ATOM     12  C   UNL     1       2.455   7.296  19.188  0.00  0.00    +0.000 A 
ATOM     13  C   UNL     1       2.189   7.967  17.989  0.00  0.00    +0.000 A 
ATOM     14  C   UNL     1       1.436   9.143  17.990  0.00  0.00    +0.000 A 
ATOM     15  C   UNL     1       0.869   9.615  19.176  0.00  0.00    +0.000 A 
ATOM     16  C   UNL     1       1.080   8.925  20.374  0.00  0.00    +0.000 A 
ATOM     17  C   UNL     1       1.945   7.828  20.379  0.00  0.00    +0.000 A 
BRANCH  12  18
ATOM     18  C   UNL     1       3.270   6.029  19.235  0.00  0.00    +0.000 C 
BRANCH  18  24
ATOM     19  C   UNL     1       1.371   2.607  22.097  0.00  0.00    +0.000 C 
ATOM     20  C   UNL     1       1.621   3.392  20.864  0.00  0.00    +0.000 A 
ATOM     21  C   UNL     1       1.070   3.183  19.582  0.00  0.00    +0.000 A 
ATOM     22  C   UNL     1       1.608   4.165  18.782  0.00  0.00    +0.000 A 
ATOM     23  C   UNL     1       1.391   4.464  17.348  0.00  0.00    +0.000 C 
ATOM     24  N   UNL     1       2.459   4.873  19.596  0.00  0.00    +0.000 N 
ATOM     25  N   UNL     1       2.454   4.442  20.875  0.00  0.00    +0.000 NA
ENDBRANCH  18  24
ENDBRANCH  12  18
ENDBRANCH   1  16
BRANCH   9  26
ATOM     26  C   UNL     1      -3.700  13.817  22.410  0.00  0.00    +0.000 C 
BRANCH  26  27
ATOM     27  C   UNL     1      -5.100  13.269  22.560  0.00  0.00    +0.000 A 
ATOM     28  C   UNL     1      -5.757  12.694  21.460  0.00  0.00    +0.000 A 
ATOM     29  C   UNL     1      -7.032  12.146  21.601  0.00  0.00    +0.000 A 
ATOM     30  C   UNL     1      -7.660  12.161  22.845  0.00  0.00    +0.000 A 
ATOM     31  C   UNL     1      -7.016  12.728  23.944  0.00  0.00    +0.000 A 
ATOM     32  C   UNL     1      -5.743  13.284  23.803  0.00  0.00    +0.000 A 
ENDBRANCH  26  27
ENDBRANCH   9  26
TORSDOF 5
ENDMDL
MODEL 9
REMARK VINA RESULT:      -8.2      1.624      2.714
REMARK  Name = 
REMARK  7 active torsions:
REMARK  status: ('A' for Active; 'I' for Inactive)
REMARK    1  A    between atoms: C_1  and  C_2
REMARK    2  A    between atoms: C_4  and  C_5
REMARK    3  A    between atoms: N_6  and  C_7
REMARK    4  A    between atoms: C_7  and  C_8
REMARK    5  A    between atoms: C_12  and  C_13
REMARK    6  A    between atoms: N_21  and  C_22
REMARK    7  A    between atoms: C_22  and  C_23
REMARK                            x       y       z     vdW  Elec       q    Type
REMARK                         _______ _______ _______ _____ _____    ______ ____
ROOT
ATOM      1  C   UNL     1       1.368   8.214  20.463  0.00  0.00    +0.000 C 
ATOM      2  O   UNL     1       1.422   8.156  21.689  0.00  0.00    +0.000 OA
ATOM      3  N   UNL     1       0.598   9.156  19.795  0.00  0.00    +0.000 N 
ATOM      4  C   UNL     1       0.648   9.522  18.377  0.00  0.00    +0.000 C 
ATOM      5  C   UNL     1      -0.137  10.827  18.258  0.00  0.00    +0.000 C 
ATOM      6  O   UNL     1       0.752  11.940  18.423  0.00  0.00    +0.000 OA
ATOM      7  C   UNL     1       0.026  13.160  18.607  0.00  0.00    +0.000 C 
ATOM      8  C   UNL     1      -0.929  13.062  19.808  0.00  0.00    +0.000 C 
ATOM      9  N   UNL     1      -1.897  11.945  19.718  0.00  0.00    +0.000 NA
ATOM     10  C   UNL     1      -1.152  10.696  19.420  0.00  0.00    +0.000 C 
ATOM     11  C   UNL     1      -0.263  10.085  20.526  0.00  0.00    +0.000 C 
ENDROOT
BRANCH   1  16
ATOM     12  C   UNL     1       3.801   6.764  17.913  0.00  0.00    +0.000 A 
ATOM     13  C   UNL     1       3.819   5.424  18.317  0.00  0.00    +0.000 A 
ATOM     14  C   UNL     1       2.976   4.982  19.339  0.00  0.00    +0.000 A 
ATOM     15  C   UNL     1       2.167   5.890  20.025  0.00  0.00    +0.000 A 
ATOM     16  C   UNL     1       2.177   7.243  19.670  0.00  0.00    +0.000 A 
ATOM     17  C   UNL     1       2.924   7.644  18.559  0.00  0.00    +0.000 A 
BRANCH  12  18
ATOM     18  C   UNL     1       4.687   7.282  16.810  0.00  0.00    +0.000 C 
BRANCH  18  24
ATOM     19  C   UNL     1       6.179   3.789  13.797  0.00  0.00    +0.000 C 
ATOM     20  C   UNL     1       6.211   4.729  14.944  0.00  0.00    +0.000 A 
ATOM     21  C   UNL     1       7.218   4.860  15.923  0.00  0.00    +0.000 A 
ATOM     22  C   UNL     1       6.788   5.860  16.766  0.00  0.00    +0.000 A 
ATOM     23  C   UNL     1       7.428   6.449  17.964  0.00  0.00    +0.000 C 
ATOM     24  N   UNL     1       5.561   6.243  16.281  0.00  0.00    +0.000 N 
ATOM     25  N   UNL     1       5.208   5.593  15.151  0.00  0.00    +0.000 NA
ENDBRANCH  18  24
ENDBRANCH  12  18
ENDBRANCH   1  16
BRANCH   9  26
ATOM     26  C   UNL     1      -2.901  12.151  18.646  0.00  0.00    +0.000 C 
BRANCH  26  27
ATOM     27  C   UNL     1      -4.340  11.900  19.032  0.00  0.00    +0.000 A 
ATOM     28  C   UNL     1      -5.153  11.077  18.237  0.00  0.00    +0.000 A 
ATOM     29  C   UNL     1      -6.470  10.806  18.611  0.00  0.00    +0.000 A 
ATOM     30  C   UNL     1      -6.984  11.348  19.786  0.00  0.00    +0.000 A 
ATOM     31  C   UNL     1      -6.184  12.166  20.584  0.00  0.00    +0.000 A 
ATOM     32  C   UNL     1      -4.869  12.444  20.208  0.00  0.00    +0.000 A 
ENDBRANCH  26  27
ENDBRANCH   9  26
TORSDOF 5
ENDMDL
