MODEL 1
REMARK VINA RESULT:      -8.3      0.000      0.000
REMARK  Name = 
REMARK  3 active torsions:
REMARK  status: ('A' for Active; 'I' for Inactive)
REMARK    1  A    between atoms: C_2  and  C_15
REMARK    2  A    between atoms: N_3  and  C_4
REMARK    3  A    between atoms: C_6  and  C_7
REMARK                            x       y       z     vdW  Elec       q    Type
REMARK                         _______ _______ _______ _____ _____    ______ ____
ROOT
ATOM      1  O   UNL     1       4.255   5.010  18.390  0.00  0.00    +0.000 OA
ATOM      2  C   UNL     1       4.206   5.840  17.497  0.00  0.00    +0.000 C 
ATOM      3  N   UNL     1       3.375   7.012  17.614  0.00  0.00    +0.000 N 
ATOM      4  H   UNL     1       3.348   7.611  16.792  0.00  0.00    +0.000 HD
ENDROOT
BRANCH   2   5
ATOM      5  C   UNL     1       5.003   5.760  16.196  0.00  0.00    +0.000 C 
ATOM      6  C   UNL     1       6.431   6.261  16.427  0.00  0.00    +0.000 C 
ATOM      7  O   UNL     1       7.443   5.713  15.572  0.00  0.00    +0.000 OA
ATOM      8  C   UNL     1       6.953   4.993  14.523  0.00  0.00    +0.000 A 
ATOM      9  C   UNL     1       7.734   4.911  13.375  0.00  0.00    +0.000 A 
ATOM     10  C   UNL     1       7.253   4.220  12.262  0.00  0.00    +0.000 A 
ATOM     11  C   UNL     1       6.015   3.575  12.318  0.00  0.00    +0.000 A 
ATOM     12  C   UNL     1       5.256   3.614  13.490  0.00  0.00    +0.000 A 
ATOM     13  C   UNL     1       5.722   4.342  14.580  0.00  0.00    +0.000 A 
ATOM     14  O   UNL     1       4.949   4.409  15.709  0.00  0.00    +0.000 OA
ENDBRANCH   2   5
BRANCH   3  15
ATOM     15  C   UNL     1       2.673   7.398  18.748  0.00  0.00    +0.000 A 
ATOM     16  C   UNL     1       2.002   8.566  19.038  0.00  0.00    +0.000 A 
ATOM     17  C   UNL     1       1.413   8.370  20.331  0.00  0.00    +0.000 A 
ATOM     18  N   UNL     1       1.737   7.153  20.801  0.00  0.00    +0.000 NA
ATOM     19  N   UNL     1       2.490   6.606  19.846  0.00  0.00    +0.000 N 
ATOM     20  H   UNL     1       2.835   5.667  20.005  0.00  0.00    +0.000 HD
BRANCH  17  21
ATOM     21  C   UNL     1       0.551   9.275  21.117  0.00  0.00    +0.000 A 
ATOM     22  C   UNL     1       0.254   9.026  22.463  0.00  0.00    +0.000 A 
ATOM     23  C   UNL     1      -0.556   9.909  23.192  0.00  0.00    +0.000 A 
ATOM     24  C   UNL     1      -1.082  11.049  22.589  0.00  0.00    +0.000 A 
ATOM     25  C   UNL     1      -0.792  11.314  21.254  0.00  0.00    +0.000 A 
ATOM     26  C   UNL     1       0.015  10.434  20.526  0.00  0.00    +0.000 A 
ENDBRANCH  17  21
ENDBRANCH   3  15
TORSDOF 3
ENDMDL
MODEL 2
REMARK VINA RESULT:      -8.2      0.343      1.039
REMARK  Name = 
REMARK  3 active torsions:
REMARK  status: ('A' for Active; 'I' for Inactive)
REMARK    1  A    between atoms: C_2  and  C_15
REMARK    2  A    between atoms: N_3  and  C_4
REMARK    3  A    between atoms: C_6  and  C_7
REMARK                            x       y       z     vdW  Elec       q    Type
REMARK                         _______ _______ _______ _____ _____    ______ ____
ROOT
ATOM      1  O   UNL     1       5.159   5.727  18.755  0.00  0.00    +0.000 OA
ATOM      2  C   UNL     1       4.672   6.108  17.703  0.00  0.00    +0.000 C 
ATOM      3  N   UNL     1       3.406   6.798  17.675  0.00  0.00    +0.000 N 
ATOM      4  H   UNL     1       3.050   7.017  16.748  0.00  0.00    +0.000 HD
ENDROOT
BRANCH   2   5
ATOM      5  C   UNL     1       5.323   5.929  16.333  0.00  0.00    +0.000 C 
ATOM      6  C   UNL     1       6.811   6.277  16.413  0.00  0.00    +0.000 C 
ATOM      7  O   UNL     1       7.670   5.615  15.475  0.00  0.00    +0.000 OA
ATOM      8  C   UNL     1       7.006   4.940  14.494  0.00  0.00    +0.000 A 
ATOM      9  C   UNL     1       7.656   4.763  13.277  0.00  0.00    +0.000 A 
ATOM     10  C   UNL     1       6.997   4.115  12.232  0.00  0.00    +0.000 A 
ATOM     11  C   UNL     1       5.709   3.606  12.422  0.00  0.00    +0.000 A 
ATOM     12  C   UNL     1       5.079   3.739  13.661  0.00  0.00    +0.000 A 
ATOM     13  C   UNL     1       5.725   4.425  14.685  0.00  0.00    +0.000 A 
ATOM     14  O   UNL     1       5.079   4.586  15.883  0.00  0.00    +0.000 OA
ENDBRANCH   2   5
BRANCH   3  15
ATOM     15  C   UNL     1       2.687   7.219  18.786  0.00  0.00    +0.000 A 
ATOM     16  C   UNL     1       2.079   8.423  19.062  0.00  0.00    +0.000 A 
ATOM     17  C   UNL     1       1.431   8.256  20.330  0.00  0.00    +0.000 A 
ATOM     18  N   UNL     1       1.662   7.018  20.801  0.00  0.00    +0.000 NA
ATOM     19  N   UNL     1       2.415   6.432  19.869  0.00  0.00    +0.000 N 
ATOM     20  H   UNL     1       2.696   5.472  20.032  0.00  0.00    +0.000 HD
BRANCH  17  21
ATOM     21  C   UNL     1       0.597   9.206  21.092  0.00  0.00    +0.000 A 
ATOM     22  C   UNL     1      -0.008  10.312  20.479  0.00  0.00    +0.000 A 
ATOM     23  C   UNL     1      -0.807  11.193  21.223  0.00  0.00    +0.000 A 
ATOM     24  C   UNL     1      -1.012  10.985  22.584  0.00  0.00    +0.000 A 
ATOM     25  C   UNL     1      -0.423   9.888  23.207  0.00  0.00    +0.000 A 
ATOM     26  C   UNL     1       0.375   9.010  22.467  0.00  0.00    +0.000 A 
ENDBRANCH  17  21
ENDBRANCH   3  15
TORSDOF 3
ENDMDL
MODEL 3
REMARK VINA RESULT:      -8.1      1.997      3.428
REMARK  Name = 
REMARK  3 active torsions:
REMARK  status: ('A' for Active; 'I' for Inactive)
REMARK    1  A    between atoms: C_2  and  C_15
REMARK    2  A    between atoms: N_3  and  C_4
REMARK    3  A    between atoms: C_6  and  C_7
REMARK                            x       y       z     vdW  Elec       q    Type
REMARK                         _______ _______ _______ _____ _____    ______ ____
ROOT
ATOM      1  O   UNL     1       1.574   5.569  20.805  0.00  0.00    +0.000 OA
ATOM      2  C   UNL     1       2.321   6.135  20.022  0.00  0.00    +0.000 C 
ATOM      3  N   UNL     1       2.302   7.569  19.880  0.00  0.00    +0.000 N 
ATOM      4  H   UNL     1       2.912   7.943  19.156  0.00  0.00    +0.000 HD
ENDROOT
BRANCH   2   5
ATOM      5  C   UNL     1       3.346   5.426  19.139  0.00  0.00    +0.000 C 
ATOM      6  C   UNL     1       2.687   4.249  18.415  0.00  0.00    +0.000 C 
ATOM      7  O   UNL     1       3.259   3.879  17.154  0.00  0.00    +0.000 OA
ATOM      8  C   UNL     1       4.453   4.482  16.886  0.00  0.00    +0.000 A 
ATOM      9  C   UNL     1       5.337   3.819  16.042  0.00  0.00    +0.000 A 
ATOM     10  C   UNL     1       6.587   4.379  15.776  0.00  0.00    +0.000 A 
ATOM     11  C   UNL     1       6.928   5.622  16.316  0.00  0.00    +0.000 A 
ATOM     12  C   UNL     1       6.018   6.311  17.121  0.00  0.00    +0.000 A 
ATOM     13  C   UNL     1       4.791   5.725  17.418  0.00  0.00    +0.000 A 
ATOM     14  O   UNL     1       3.924   6.390  18.244  0.00  0.00    +0.000 OA
ENDBRANCH   2   5
BRANCH   3  15
ATOM     15  C   UNL     1       1.577   8.453  20.667  0.00  0.00    +0.000 A 
ATOM     16  C   UNL     1       0.626   9.390  20.329  0.00  0.00    +0.000 A 
ATOM     17  C   UNL     1       0.178   9.961  21.566  0.00  0.00    +0.000 A 
ATOM     18  N   UNL     1       0.848   9.409  22.592  0.00  0.00    +0.000 NA
ATOM     19  N   UNL     1       1.674   8.528  22.028  0.00  0.00    +0.000 N 
ATOM     20  H   UNL     1       2.273   7.989  22.643  0.00  0.00    +0.000 HD
BRANCH  17  21
ATOM     21  C   UNL     1      -0.860  10.982  21.807  0.00  0.00    +0.000 A 
ATOM     22  C   UNL     1      -1.342  11.802  20.778  0.00  0.00    +0.000 A 
ATOM     23  C   UNL     1      -2.338  12.756  21.030  0.00  0.00    +0.000 A 
ATOM     24  C   UNL     1      -2.866  12.907  22.310  0.00  0.00    +0.000 A 
ATOM     25  C   UNL     1      -2.402  12.097  23.343  0.00  0.00    +0.000 A 
ATOM     26  C   UNL     1      -1.407  11.146  23.092  0.00  0.00    +0.000 A 
ENDBRANCH  17  21
ENDBRANCH   3  15
TORSDOF 3
ENDMDL
MODEL 4
REMARK VINA RESULT:      -7.9      5.124      7.690
REMARK  Name = 
REMARK  3 active torsions:
REMARK  status: ('A' for Active; 'I' for Inactive)
REMARK    1  A    between atoms: C_2  and  C_15
REMARK    2  A    between atoms: N_3  and  C_4
REMARK    3  A    between atoms: C_6  and  C_7
REMARK                            x       y       z     vdW  Elec       q    Type
REMARK                         _______ _______ _______ _____ _____    ______ ____
ROOT
ATOM      1  O   UNL     1       5.937   7.151  16.051  0.00  0.00    +0.000 OA
ATOM      2  C   UNL     1       6.120   6.529  17.085  0.00  0.00    +0.000 C 
ATOM      3  N   UNL     1       7.026   7.013  18.095  0.00  0.00    +0.000 N 
ATOM      4  H   UNL     1       7.164   6.394  18.891  0.00  0.00    +0.000 HD
ENDROOT
BRANCH   2   5
ATOM      5  C   UNL     1       5.425   5.215  17.438  0.00  0.00    +0.000 C 
ATOM      6  C   UNL     1       6.218   4.479  18.521  0.00  0.00    +0.000 C 
ATOM      7  O   UNL     1       5.467   3.615  19.382  0.00  0.00    +0.000 OA
ATOM      8  C   UNL     1       4.185   3.396  18.969  0.00  0.00    +0.000 A 
ATOM      9  C   UNL     1       3.578   2.204  19.352  0.00  0.00    +0.000 A 
ATOM     10  C   UNL     1       2.283   1.920  18.916  0.00  0.00    +0.000 A 
ATOM     11  C   UNL     1       1.585   2.847  18.138  0.00  0.00    +0.000 A 
ATOM     12  C   UNL     1       2.178   4.066  17.799  0.00  0.00    +0.000 A 
ATOM     13  C   UNL     1       3.485   4.323  18.201  0.00  0.00    +0.000 A 
ATOM     14  O   UNL     1       4.071   5.504  17.825  0.00  0.00    +0.000 OA
ENDBRANCH   2   5
BRANCH   3  15
ATOM     15  C   UNL     1       7.664   8.247  18.089  0.00  0.00    +0.000 A 
ATOM     16  C   UNL     1       8.735   8.711  18.820  0.00  0.00    +0.000 A 
ATOM     17  C   UNL     1       8.993  10.038  18.341  0.00  0.00    +0.000 A 
ATOM     18  N   UNL     1       8.102  10.361  17.387  0.00  0.00    +0.000 NA
ATOM     19  N   UNL     1       7.324   9.284  17.267  0.00  0.00    +0.000 N 
ATOM     20  H   UNL     1       6.580   9.320  16.581  0.00  0.00    +0.000 HD
BRANCH  17  21
ATOM     21  C   UNL     1      10.049  10.991  18.736  0.00  0.00    +0.000 A 
ATOM     22  C   UNL     1      10.265  11.339  20.076  0.00  0.00    +0.000 A 
ATOM     23  C   UNL     1      11.284  12.236  20.427  0.00  0.00    +0.000 A 
ATOM     24  C   UNL     1      12.100  12.799  19.448  0.00  0.00    +0.000 A 
ATOM     25  C   UNL     1      11.902  12.459  18.113  0.00  0.00    +0.000 A 
ATOM     26  C   UNL     1      10.885  11.565  17.762  0.00  0.00    +0.000 A 
ENDBRANCH  17  21
ENDBRANCH   3  15
TORSDOF 3
ENDMDL
MODEL 5
REMARK VINA RESULT:      -7.8      5.133      7.961
REMARK  Name = 
REMARK  3 active torsions:
REMARK  status: ('A' for Active; 'I' for Inactive)
REMARK    1  A    between atoms: C_2  and  C_15
REMARK    2  A    between atoms: N_3  and  C_4
REMARK    3  A    between atoms: C_6  and  C_7
REMARK                            x       y       z     vdW  Elec       q    Type
REMARK                         _______ _______ _______ _____ _____    ______ ____
ROOT
ATOM      1  O   UNL     1       8.432   7.345  18.918  0.00  0.00    +0.000 OA
ATOM      2  C   UNL     1       8.194   8.207  18.088  0.00  0.00    +0.000 C 
ATOM      3  N   UNL     1       7.227   7.988  17.042  0.00  0.00    +0.000 N 
ATOM      4  H   UNL     1       7.146   8.737  16.359  0.00  0.00    +0.000 HD
ENDROOT
BRANCH   2   5
ATOM      5  C   UNL     1       8.851   9.586  18.060  0.00  0.00    +0.000 C 
ATOM      6  C   UNL     1       7.909  10.600  17.405  0.00  0.00    +0.000 C 
ATOM      7  O   UNL     1       8.052  11.963  17.824  0.00  0.00    +0.000 OA
ATOM      8  C   UNL     1       9.163  12.198  18.581  0.00  0.00    +0.000 A 
ATOM      9  C   UNL     1       9.700  13.481  18.558  0.00  0.00    +0.000 A 
ATOM     10  C   UNL     1      10.861  13.755  19.283  0.00  0.00    +0.000 A 
ATOM     11  C   UNL     1      11.452  12.758  20.064  0.00  0.00    +0.000 A 
ATOM     12  C   UNL     1      10.880  11.485  20.126  0.00  0.00    +0.000 A 
ATOM     13  C   UNL     1       9.749  11.208  19.366  0.00  0.00    +0.000 A 
ATOM     14  O   UNL     1       9.222   9.943  19.402  0.00  0.00    +0.000 OA
ENDBRANCH   2   5
BRANCH   3  15
ATOM     15  C   UNL     1       6.387   6.888  16.932  0.00  0.00    +0.000 A 
ATOM     16  C   UNL     1       5.395   6.424  17.768  0.00  0.00    +0.000 A 
ATOM     17  C   UNL     1       4.822   5.288  17.106  0.00  0.00    +0.000 A 
ATOM     18  N   UNL     1       5.458   5.068  15.943  0.00  0.00    +0.000 NA
ATOM     19  N   UNL     1       6.384   6.025  15.872  0.00  0.00    +0.000 N 
ATOM     20  H   UNL     1       6.977   6.041  15.051  0.00  0.00    +0.000 HD
BRANCH  17  21
ATOM     21  C   UNL     1       3.698   4.427  17.523  0.00  0.00    +0.000 A 
ATOM     22  C   UNL     1       2.469   4.963  17.930  0.00  0.00    +0.000 A 
ATOM     23  C   UNL     1       1.412   4.123  18.308  0.00  0.00    +0.000 A 
ATOM     24  C   UNL     1       1.565   2.739  18.287  0.00  0.00    +0.000 A 
ATOM     25  C   UNL     1       2.777   2.189  17.879  0.00  0.00    +0.000 A 
ATOM     26  C   UNL     1       3.832   3.026  17.503  0.00  0.00    +0.000 A 
ENDBRANCH  17  21
ENDBRANCH   3  15
TORSDOF 3
ENDMDL
MODEL 6
REMARK VINA RESULT:      -7.7      3.449      5.182
REMARK  Name = 
REMARK  3 active torsions:
REMARK  status: ('A' for Active; 'I' for Inactive)
REMARK    1  A    between atoms: C_2  and  C_15
REMARK    2  A    between atoms: N_3  and  C_4
REMARK    3  A    between atoms: C_6  and  C_7
REMARK                            x       y       z     vdW  Elec       q    Type
REMARK                         _______ _______ _______ _____ _____    ______ ____
ROOT
ATOM      1  O   UNL     1       1.977   8.523  18.875  0.00  0.00    +0.000 OA
ATOM      2  C   UNL     1       1.918   7.774  19.837  0.00  0.00    +0.000 C 
ATOM      3  N   UNL     1       1.386   8.224  21.099  0.00  0.00    +0.000 N 
ATOM      4  H   UNL     1       1.439   7.550  21.860  0.00  0.00    +0.000 HD
ENDROOT
BRANCH   2   5
ATOM      5  C   UNL     1       2.366   6.314  19.825  0.00  0.00    +0.000 C 
ATOM      6  C   UNL     1       1.548   5.509  20.839  0.00  0.00    +0.000 C 
ATOM      7  O   UNL     1       1.376   4.115  20.552  0.00  0.00    +0.000 OA
ATOM      8  C   UNL     1       2.158   3.656  19.534  0.00  0.00    +0.000 A 
ATOM      9  C   UNL     1       2.504   2.309  19.542  0.00  0.00    +0.000 A 
ATOM     10  C   UNL     1       3.339   1.806  18.543  0.00  0.00    +0.000 A 
ATOM     11  C   UNL     1       3.785   2.641  17.515  0.00  0.00    +0.000 A 
ATOM     12  C   UNL     1       3.394   3.982  17.480  0.00  0.00    +0.000 A 
ATOM     13  C   UNL     1       2.598   4.486  18.505  0.00  0.00    +0.000 A 
ATOM     14  O   UNL     1       2.256   5.813  18.483  0.00  0.00    +0.000 OA
ENDBRANCH   2   5
BRANCH   3  15
ATOM     15  C   UNL     1       0.777   9.449  21.333  0.00  0.00    +0.000 A 
ATOM     16  C   UNL     1      -0.194   9.815  22.239  0.00  0.00    +0.000 A 
ATOM     17  C   UNL     1      -0.383  11.226  22.065  0.00  0.00    +0.000 A 
ATOM     18  N   UNL     1       0.419  11.677  21.084  0.00  0.00    +0.000 NA
ATOM     19  N   UNL     1       1.085  10.601  20.665  0.00  0.00    +0.000 N 
ATOM     20  H   UNL     1       1.760  10.731  19.920  0.00  0.00    +0.000 HD
BRANCH  17  21
ATOM     21  C   UNL     1      -1.269  12.152  22.797  0.00  0.00    +0.000 A 
ATOM     22  C   UNL     1      -0.891  13.474  23.070  0.00  0.00    +0.000 A 
ATOM     23  C   UNL     1      -1.757  14.338  23.755  0.00  0.00    +0.000 A 
ATOM     24  C   UNL     1      -3.009  13.898  24.179  0.00  0.00    +0.000 A 
ATOM     25  C   UNL     1      -3.402  12.589  23.911  0.00  0.00    +0.000 A 
ATOM     26  C   UNL     1      -2.538  11.726  23.228  0.00  0.00    +0.000 A 
ENDBRANCH  17  21
ENDBRANCH   3  15
TORSDOF 3
ENDMDL
MODEL 7
REMARK VINA RESULT:      -7.7      6.516      9.194
REMARK  Name = 
REMARK  3 active torsions:
REMARK  status: ('A' for Active; 'I' for Inactive)
REMARK    1  A    between atoms: C_2  and  C_15
REMARK    2  A    between atoms: N_3  and  C_4
REMARK    3  A    between atoms: C_6  and  C_7
REMARK                            x       y       z     vdW  Elec       q    Type
REMARK                         _______ _______ _______ _____ _____    ______ ____
ROOT
ATOM      1  O   UNL     1       9.299  10.107  19.707  0.00  0.00    +0.000 OA
ATOM      2  C   UNL     1       9.085  10.435  18.551  0.00  0.00    +0.000 C 
ATOM      3  N   UNL     1       8.469   9.523  17.620  0.00  0.00    +0.000 N 
ATOM      4  H   UNL     1       8.392   9.862  16.664  0.00  0.00    +0.000 HD
ENDROOT
BRANCH   2   5
ATOM      5  C   UNL     1       9.409  11.809  17.967  0.00  0.00    +0.000 C 
ATOM      6  C   UNL     1       8.164  12.698  18.000  0.00  0.00    +0.000 C 
ATOM      7  O   UNL     1       8.393  14.110  18.088  0.00  0.00    +0.000 OA
ATOM      8  C   UNL     1       9.694  14.474  17.901  0.00  0.00    +0.000 A 
ATOM      9  C   UNL     1       9.942  15.751  17.408  0.00  0.00    +0.000 A 
ATOM     10  C   UNL     1      11.257  16.150  17.160  0.00  0.00    +0.000 A 
ATOM     11  C   UNL     1      12.318  15.289  17.451  0.00  0.00    +0.000 A 
ATOM     12  C   UNL     1      12.069  14.027  17.995  0.00  0.00    +0.000 A 
ATOM     13  C   UNL     1      10.754  13.620  18.197  0.00  0.00    +0.000 A 
ATOM     14  O   UNL     1      10.520  12.363  18.691  0.00  0.00    +0.000 OA
ENDBRANCH   2   5
BRANCH   3  15
ATOM     15  C   UNL     1       7.943   8.277  17.933  0.00  0.00    +0.000 A 
ATOM     16  C   UNL     1       6.843   7.612  17.437  0.00  0.00    +0.000 A 
ATOM     17  C   UNL     1       6.828   6.335  18.087  0.00  0.00    +0.000 A 
ATOM     18  N   UNL     1       7.855   6.249  18.950  0.00  0.00    +0.000 NA
ATOM     19  N   UNL     1       8.491   7.417  18.843  0.00  0.00    +0.000 N 
ATOM     20  H   UNL     1       9.315   7.554  19.415  0.00  0.00    +0.000 HD
BRANCH  17  21
ATOM     21  C   UNL     1       5.899   5.201  17.910  0.00  0.00    +0.000 A 
ATOM     22  C   UNL     1       5.427   4.456  18.999  0.00  0.00    +0.000 A 
ATOM     23  C   UNL     1       4.535   3.392  18.805  0.00  0.00    +0.000 A 
ATOM     24  C   UNL     1       4.102   3.056  17.525  0.00  0.00    +0.000 A 
ATOM     25  C   UNL     1       4.557   3.789  16.433  0.00  0.00    +0.000 A 
ATOM     26  C   UNL     1       5.448   4.849  16.625  0.00  0.00    +0.000 A 
ENDBRANCH  17  21
ENDBRANCH   3  15
TORSDOF 3
ENDMDL
MODEL 8
REMARK VINA RESULT:      -7.7      3.407     10.136
REMARK  Name = 
REMARK  3 active torsions:
REMARK  status: ('A' for Active; 'I' for Inactive)
REMARK    1  A    between atoms: C_2  and  C_15
REMARK    2  A    between atoms: N_3  and  C_4
REMARK    3  A    between atoms: C_6  and  C_7
REMARK                            x       y       z     vdW  Elec       q    Type
REMARK                         _______ _______ _______ _____ _____    ______ ____
ROOT
ATOM      1  O   UNL     1       1.562   8.915  22.248  0.00  0.00    +0.000 OA
ATOM      2  C   UNL     1       0.981   9.507  21.353  0.00  0.00    +0.000 C 
ATOM      3  N   UNL     1       1.183   9.152  19.971  0.00  0.00    +0.000 N 
ATOM      4  H   UNL     1       0.707   9.744  19.294  0.00  0.00    +0.000 HD
ENDROOT
BRANCH   2   5
ATOM      5  C   UNL     1      -0.014  10.645  21.572  0.00  0.00    +0.000 C 
ATOM      6  C   UNL     1      -0.776  10.427  22.882  0.00  0.00    +0.000 C 
ATOM      7  O   UNL     1      -1.254  11.606  23.542  0.00  0.00    +0.000 OA
ATOM      8  C   UNL     1      -1.160  12.741  22.791  0.00  0.00    +0.000 A 
ATOM      9  C   UNL     1      -2.060  13.768  23.057  0.00  0.00    +0.000 A 
ATOM     10  C   UNL     1      -2.027  14.929  22.284  0.00  0.00    +0.000 A 
ATOM     11  C   UNL     1      -1.066  15.078  21.281  0.00  0.00    +0.000 A 
ATOM     12  C   UNL     1      -0.129  14.067  21.051  0.00  0.00    +0.000 A 
ATOM     13  C   UNL     1      -0.197  12.894  21.796  0.00  0.00    +0.000 A 
ATOM     14  O   UNL     1       0.700  11.892  21.533  0.00  0.00    +0.000 OA
ENDBRANCH   2   5
BRANCH   3  15
ATOM     15  C   UNL     1       1.913   8.063  19.511  0.00  0.00    +0.000 A 
ATOM     16  C   UNL     1       2.492   7.819  18.286  0.00  0.00    +0.000 A 
ATOM     17  C   UNL     1       3.171   6.562  18.414  0.00  0.00    +0.000 A 
ATOM     18  N   UNL     1       2.985   6.067  19.650  0.00  0.00    +0.000 NA
ATOM     19  N   UNL     1       2.230   6.973  20.273  0.00  0.00    +0.000 N 
ATOM     20  H   UNL     1       1.979   6.789  21.237  0.00  0.00    +0.000 HD
BRANCH  17  21
ATOM     21  C   UNL     1       3.992   5.833  17.428  0.00  0.00    +0.000 A 
ATOM     22  C   UNL     1       4.034   4.433  17.394  0.00  0.00    +0.000 A 
ATOM     23  C   UNL     1       4.812   3.764  16.438  0.00  0.00    +0.000 A 
ATOM     24  C   UNL     1       5.559   4.480  15.506  0.00  0.00    +0.000 A 
ATOM     25  C   UNL     1       5.524   5.871  15.522  0.00  0.00    +0.000 A 
ATOM     26  C   UNL     1       4.749   6.540  16.476  0.00  0.00    +0.000 A 
ENDBRANCH  17  21
ENDBRANCH   3  15
TORSDOF 3
ENDMDL
MODEL 9
REMARK VINA RESULT:      -7.6      1.955      9.593
REMARK  Name = 
REMARK  3 active torsions:
REMARK  status: ('A' for Active; 'I' for Inactive)
REMARK    1  A    between atoms: C_2  and  C_15
REMARK    2  A    between atoms: N_3  and  C_4
REMARK    3  A    between atoms: C_6  and  C_7
REMARK                            x       y       z     vdW  Elec       q    Type
REMARK                         _______ _______ _______ _____ _____    ______ ____
ROOT
ATOM      1  O   UNL     1       2.270   5.773  19.362  0.00  0.00    +0.000 OA
ATOM      2  C   UNL     1       2.620   6.923  19.150  0.00  0.00    +0.000 C 
ATOM      3  N   UNL     1       3.673   7.220  18.212  0.00  0.00    +0.000 N 
ATOM      4  H   UNL     1       3.939   8.200  18.151  0.00  0.00    +0.000 HD
ENDROOT
BRANCH   2   5
ATOM      5  C   UNL     1       1.998   8.152  19.810  0.00  0.00    +0.000 C 
ATOM      6  C   UNL     1       1.479   9.114  18.738  0.00  0.00    +0.000 C 
ATOM      7  O   UNL     1       0.378   9.951  19.115  0.00  0.00    +0.000 OA
ATOM      8  C   UNL     1       0.097   9.932  20.450  0.00  0.00    +0.000 A 
ATOM      9  C   UNL     1      -0.509  11.058  20.998  0.00  0.00    +0.000 A 
ATOM     10  C   UNL     1      -0.775  11.099  22.368  0.00  0.00    +0.000 A 
ATOM     11  C   UNL     1      -0.477   9.996  23.173  0.00  0.00    +0.000 A 
ATOM     12  C   UNL     1       0.083   8.847  22.611  0.00  0.00    +0.000 A 
ATOM     13  C   UNL     1       0.387   8.831  21.253  0.00  0.00    +0.000 A 
ATOM     14  O   UNL     1       0.976   7.715  20.721  0.00  0.00    +0.000 OA
ENDBRANCH   2   5
BRANCH   3  15
ATOM     15  C   UNL     1       4.294   6.305  17.372  0.00  0.00    +0.000 A 
ATOM     16  C   UNL     1       4.675   6.406  16.053  0.00  0.00    +0.000 A 
ATOM     17  C   UNL     1       5.329   5.170  15.736  0.00  0.00    +0.000 A 
ATOM     18  N   UNL     1       5.316   4.358  16.807  0.00  0.00    +0.000 NA
ATOM     19  N   UNL     1       4.689   5.054  17.757  0.00  0.00    +0.000 N 
ATOM     20  H   UNL     1       4.581   4.615  18.663  0.00  0.00    +0.000 HD
BRANCH  17  21
ATOM     21  C   UNL     1       5.972   4.743  14.477  0.00  0.00    +0.000 A 
ATOM     22  C   UNL     1       5.378   3.801  13.627  0.00  0.00    +0.000 A 
ATOM     23  C   UNL     1       6.003   3.423  12.431  0.00  0.00    +0.000 A 
ATOM     24  C   UNL     1       7.228   3.976  12.066  0.00  0.00    +0.000 A 
ATOM     25  C   UNL     1       7.829   4.918  12.896  0.00  0.00    +0.000 A 
ATOM     26  C   UNL     1       7.207   5.295  14.090  0.00  0.00    +0.000 A 
ENDBRANCH  17  21
ENDBRANCH   3  15
TORSDOF 3
ENDMDL
