MODEL 1
REMARK VINA RESULT:      -7.7      0.000      0.000
REMARK  Name = 
REMARK  4 active torsions:
REMARK  status: ('A' for Active; 'I' for Inactive)
REMARK    1  A    between atoms: C_2  and  C_10
REMARK    2  A    between atoms: N_3  and  C_4
REMARK    3  A    between atoms: C_15  and  C_17
REMARK    4  A    between atoms: C_17  and  C_18
REMARK                            x       y       z     vdW  Elec       q    Type
REMARK                         _______ _______ _______ _____ _____    ______ ____
ROOT
ATOM      1  C   UNL     1       6.908   5.667  16.640  0.00  0.00    +0.000 C 
ATOM      2  C   UNL     1       7.845   4.670  17.346  0.00  0.00    +0.000 C 
ATOM      3  C   UNL     1       7.555   4.850  18.819  0.00  0.00    +0.000 C 
ATOM      4  C   UNL     1       6.090   5.249  18.860  0.00  0.00    +0.000 C 
ATOM      5  N   UNL     1       5.715   5.635  17.503  0.00  0.00    +0.000 N 
ATOM      6  C   UNL     1       4.544   6.307  17.189  0.00  0.00    +0.000 C 
ATOM      7  O   UNL     1       4.363   6.756  16.054  0.00  0.00    +0.000 OA
ENDROOT
BRANCH   1   9
ATOM      8  O   UNL     1       7.894   5.634  14.457  0.00  0.00    +0.000 OA
ATOM      9  C   UNL     1       6.957   5.239  15.156  0.00  0.00    +0.000 C 
ATOM     10  N   UNL     1       5.920   4.451  14.710  0.00  0.00    +0.000 N 
ATOM     11  H   UNL     1       5.064   4.504  15.255  0.00  0.00    +0.000 HD
BRANCH  10  12
ATOM     12  C   UNL     1       5.845   3.814  13.453  0.00  0.00    +0.000 A 
ATOM     13  C   UNL     1       6.959   3.275  12.801  0.00  0.00    +0.000 A 
ATOM     14  C   UNL     1       6.829   2.674  11.544  0.00  0.00    +0.000 A 
ATOM     15  C   UNL     1       5.579   2.602  10.936  0.00  0.00    +0.000 A 
ATOM     16  C   UNL     1       4.458   3.113  11.588  0.00  0.00    +0.000 A 
ATOM     17  C   UNL     1       4.590   3.709  12.844  0.00  0.00    +0.000 A 
ENDBRANCH  10  12
ENDBRANCH   1   9
BRANCH   6  18
ATOM     18  C   UNL     1       3.425   6.401  18.239  0.00  0.00    +0.000 C 
BRANCH  18  19
ATOM     19  C   UNL     1       2.694   5.108  18.309  0.00  0.00    +0.000 A 
ATOM     20  N   UNL     1       1.874   4.751  17.309  0.00  0.00    +0.000 NA
ATOM     21  O   UNL     1       0.980   3.854  17.878  0.00  0.00    +0.000 OA
ATOM     22  C   UNL     1       1.326   3.637  19.174  0.00  0.00    +0.000 A 
ATOM     23  C   UNL     1       0.582   2.945  20.121  0.00  0.00    +0.000 A 
ATOM     24  C   UNL     1       1.152   2.843  21.395  0.00  0.00    +0.000 A 
ATOM     25  C   UNL     1       2.424   3.359  21.665  0.00  0.00    +0.000 A 
ATOM     26  C   UNL     1       3.126   4.093  20.699  0.00  0.00    +0.000 A 
ATOM     27  C   UNL     1       2.527   4.270  19.441  0.00  0.00    +0.000 A 
ENDBRANCH  18  19
ENDBRANCH   6  18
TORSDOF 4
ENDMDL
MODEL 2
REMARK VINA RESULT:      -7.6      3.261      4.417
REMARK  Name = 
REMARK  4 active torsions:
REMARK  status: ('A' for Active; 'I' for Inactive)
REMARK    1  A    between atoms: C_2  and  C_10
REMARK    2  A    between atoms: N_3  and  C_4
REMARK    3  A    between atoms: C_15  and  C_17
REMARK    4  A    between atoms: C_17  and  C_18
REMARK                            x       y       z     vdW  Elec       q    Type
REMARK                         _______ _______ _______ _____ _____    ______ ____
ROOT
ATOM      1  C   UNL     1       4.440   4.502  17.934  0.00  0.00    +0.000 C 
ATOM      2  C   UNL     1       3.919   3.054  17.973  0.00  0.00    +0.000 C 
ATOM      3  C   UNL     1       2.629   3.133  18.759  0.00  0.00    +0.000 C 
ATOM      4  C   UNL     1       2.094   4.520  18.451  0.00  0.00    +0.000 C 
ATOM      5  N   UNL     1       3.192   5.279  17.858  0.00  0.00    +0.000 N 
ATOM      6  C   UNL     1       3.173   6.654  17.688  0.00  0.00    +0.000 C 
ATOM      7  O   UNL     1       4.192   7.257  17.341  0.00  0.00    +0.000 OA
ENDROOT
BRANCH   1   9
ATOM      8  O   UNL     1       6.712   4.265  17.211  0.00  0.00    +0.000 OA
ATOM      9  C   UNL     1       5.548   4.471  16.857  0.00  0.00    +0.000 C 
ATOM     10  N   UNL     1       5.149   4.702  15.559  0.00  0.00    +0.000 N 
ATOM     11  H   UNL     1       4.272   5.203  15.454  0.00  0.00    +0.000 HD
BRANCH  10  12
ATOM     12  C   UNL     1       5.952   4.559  14.408  0.00  0.00    +0.000 A 
ATOM     13  C   UNL     1       7.136   5.277  14.208  0.00  0.00    +0.000 A 
ATOM     14  C   UNL     1       7.881   5.111  13.035  0.00  0.00    +0.000 A 
ATOM     15  C   UNL     1       7.450   4.218  12.059  0.00  0.00    +0.000 A 
ATOM     16  C   UNL     1       6.285   3.479  12.260  0.00  0.00    +0.000 A 
ATOM     17  C   UNL     1       5.545   3.643  13.433  0.00  0.00    +0.000 A 
ENDBRANCH  10  12
ENDBRANCH   1   9
BRANCH   6  18
ATOM     18  C   UNL     1       1.845   7.414  17.834  0.00  0.00    +0.000 C 
BRANCH  18  19
ATOM     19  C   UNL     1       1.818   8.129  19.138  0.00  0.00    +0.000 A 
ATOM     20  N   UNL     1       2.133   7.473  20.265  0.00  0.00    +0.000 NA
ATOM     21  O   UNL     1       1.514   8.185  21.283  0.00  0.00    +0.000 OA
ATOM     22  C   UNL     1       0.913   9.285  20.758  0.00  0.00    +0.000 A 
ATOM     23  C   UNL     1       0.050  10.148  21.422  0.00  0.00    +0.000 A 
ATOM     24  C   UNL     1      -0.441  11.223  20.673  0.00  0.00    +0.000 A 
ATOM     25  C   UNL     1      -0.028  11.437  19.353  0.00  0.00    +0.000 A 
ATOM     26  C   UNL     1       0.806  10.519  18.699  0.00  0.00    +0.000 A 
ATOM     27  C   UNL     1       1.240   9.393  19.419  0.00  0.00    +0.000 A 
ENDBRANCH  18  19
ENDBRANCH   6  18
TORSDOF 4
ENDMDL
MODEL 3
REMARK VINA RESULT:      -7.6      5.999      8.022
REMARK  Name = 
REMARK  4 active torsions:
REMARK  status: ('A' for Active; 'I' for Inactive)
REMARK    1  A    between atoms: C_2  and  C_10
REMARK    2  A    between atoms: N_3  and  C_4
REMARK    3  A    between atoms: C_15  and  C_17
REMARK    4  A    between atoms: C_17  and  C_18
REMARK                            x       y       z     vdW  Elec       q    Type
REMARK                         _______ _______ _______ _____ _____    ______ ____
ROOT
ATOM      1  C   UNL     1       1.488   8.746  20.692  0.00  0.00    +0.000 C 
ATOM      2  C   UNL     1       0.871   8.536  22.087  0.00  0.00    +0.000 C 
ATOM      3  C   UNL     1       0.245   9.868  22.433  0.00  0.00    +0.000 C 
ATOM      4  C   UNL     1      -0.167  10.442  21.089  0.00  0.00    +0.000 C 
ATOM      5  N   UNL     1       0.526   9.667  20.064  0.00  0.00    +0.000 N 
ATOM      6  C   UNL     1       0.615  10.053  18.736  0.00  0.00    +0.000 C 
ATOM      7  O   UNL     1       1.354   9.448  17.954  0.00  0.00    +0.000 OA
ENDROOT
BRANCH   1   9
ATOM      8  O   UNL     1       1.367   6.359  20.848  0.00  0.00    +0.000 OA
ATOM      9  C   UNL     1       1.812   7.315  20.208  0.00  0.00    +0.000 C 
ATOM     10  N   UNL     1       2.609   7.210  19.089  0.00  0.00    +0.000 N 
ATOM     11  H   UNL     1       3.188   8.021  18.887  0.00  0.00    +0.000 HD
BRANCH  10  12
ATOM     12  C   UNL     1       2.892   6.023  18.382  0.00  0.00    +0.000 A 
ATOM     13  C   UNL     1       1.924   5.058  18.089  0.00  0.00    +0.000 A 
ATOM     14  C   UNL     1       2.267   3.887  17.404  0.00  0.00    +0.000 A 
ATOM     15  C   UNL     1       3.583   3.680  17.000  0.00  0.00    +0.000 A 
ATOM     16  C   UNL     1       4.551   4.647  17.265  0.00  0.00    +0.000 A 
ATOM     17  C   UNL     1       4.204   5.817  17.945  0.00  0.00    +0.000 A 
ENDBRANCH  10  12
ENDBRANCH   1   9
BRANCH   6  18
ATOM     18  C   UNL     1      -0.294  11.178  18.216  0.00  0.00    +0.000 C 
BRANCH  18  19
ATOM     19  C   UNL     1      -1.650  10.636  17.932  0.00  0.00    +0.000 A 
ATOM     20  N   UNL     1      -1.817   9.740  16.947  0.00  0.00    +0.000 NA
ATOM     21  O   UNL     1      -3.151   9.850  16.581  0.00  0.00    +0.000 OA
ATOM     22  C   UNL     1      -3.767  10.746  17.397  0.00  0.00    +0.000 A 
ATOM     23  C   UNL     1      -5.049  11.257  17.241  0.00  0.00    +0.000 A 
ATOM     24  C   UNL     1      -5.473  12.164  18.218  0.00  0.00    +0.000 A 
ATOM     25  C   UNL     1      -4.664  12.479  19.316  0.00  0.00    +0.000 A 
ATOM     26  C   UNL     1      -3.357  11.982  19.417  0.00  0.00    +0.000 A 
ATOM     27  C   UNL     1      -2.894  11.133  18.397  0.00  0.00    +0.000 A 
ENDBRANCH  18  19
ENDBRANCH   6  18
TORSDOF 4
ENDMDL
MODEL 4
REMARK VINA RESULT:      -7.6      7.352      9.726
REMARK  Name = 
REMARK  4 active torsions:
REMARK  status: ('A' for Active; 'I' for Inactive)
REMARK    1  A    between atoms: C_2  and  C_10
REMARK    2  A    between atoms: N_3  and  C_4
REMARK    3  A    between atoms: C_15  and  C_17
REMARK    4  A    between atoms: C_17  and  C_18
REMARK                            x       y       z     vdW  Elec       q    Type
REMARK                         _______ _______ _______ _____ _____    ______ ____
ROOT
ATOM      1  C   UNL     1       0.071  10.189  21.467  0.00  0.00    +0.000 C 
ATOM      2  C   UNL     1      -0.620  10.198  22.843  0.00  0.00    +0.000 C 
ATOM      3  C   UNL     1      -1.199  11.589  22.972  0.00  0.00    +0.000 C 
ATOM      4  C   UNL     1      -1.520  11.989  21.542  0.00  0.00    +0.000 C 
ATOM      5  N   UNL     1      -0.816  11.053  20.669  0.00  0.00    +0.000 N 
ATOM      6  C   UNL     1      -0.647  11.249  19.308  0.00  0.00    +0.000 C 
ATOM      7  O   UNL     1       0.099  10.513  18.656  0.00  0.00    +0.000 OA
ENDROOT
BRANCH   1   9
ATOM      8  O   UNL     1      -0.459   7.857  21.611  0.00  0.00    +0.000 OA
ATOM      9  C   UNL     1       0.350   8.693  21.198  0.00  0.00    +0.000 C 
ATOM     10  N   UNL     1       1.515   8.396  20.526  0.00  0.00    +0.000 N 
ATOM     11  H   UNL     1       2.239   9.108  20.571  0.00  0.00    +0.000 HD
BRANCH  10  12
ATOM     12  C   UNL     1       1.887   7.128  20.034  0.00  0.00    +0.000 A 
ATOM     13  C   UNL     1       1.740   5.948  20.772  0.00  0.00    +0.000 A 
ATOM     14  C   UNL     1       2.147   4.719  20.241  0.00  0.00    +0.000 A 
ATOM     15  C   UNL     1       2.696   4.663  18.963  0.00  0.00    +0.000 A 
ATOM     16  C   UNL     1       2.823   5.829  18.210  0.00  0.00    +0.000 A 
ATOM     17  C   UNL     1       2.412   7.054  18.741  0.00  0.00    +0.000 A 
ENDBRANCH  10  12
ENDBRANCH   1   9
BRANCH   6  18
ATOM     18  C   UNL     1      -1.477  12.327  18.593  0.00  0.00    +0.000 C 
BRANCH  18  19
ATOM     19  C   UNL     1      -2.713  11.719  18.033  0.00  0.00    +0.000 A 
ATOM     20  N   UNL     1      -2.693  11.178  16.805  0.00  0.00    +0.000 NA
ATOM     21  O   UNL     1      -4.012  11.209  16.374  0.00  0.00    +0.000 OA
ATOM     22  C   UNL     1      -4.798  11.691  17.373  0.00  0.00    +0.000 A 
ATOM     23  C   UNL     1      -6.140  12.036  17.272  0.00  0.00    +0.000 A 
ATOM     24  C   UNL     1      -6.744  12.504  18.445  0.00  0.00    +0.000 A 
ATOM     25  C   UNL     1      -6.040  12.556  19.653  0.00  0.00    +0.000 A 
ATOM     26  C   UNL     1      -4.674  12.247  19.708  0.00  0.00    +0.000 A 
ATOM     27  C   UNL     1      -4.039  11.852  18.518  0.00  0.00    +0.000 A 
ENDBRANCH  18  19
ENDBRANCH   6  18
TORSDOF 4
ENDMDL
MODEL 5
REMARK VINA RESULT:      -7.5      2.962      4.486
REMARK  Name = 
REMARK  4 active torsions:
REMARK  status: ('A' for Active; 'I' for Inactive)
REMARK    1  A    between atoms: C_2  and  C_10
REMARK    2  A    between atoms: N_3  and  C_4
REMARK    3  A    between atoms: C_15  and  C_17
REMARK    4  A    between atoms: C_17  and  C_18
REMARK                            x       y       z     vdW  Elec       q    Type
REMARK                         _______ _______ _______ _____ _____    ______ ____
ROOT
ATOM      1  C   UNL     1       4.248   3.675  17.906  0.00  0.00    +0.000 C 
ATOM      2  C   UNL     1       3.358   2.659  17.165  0.00  0.00    +0.000 C 
ATOM      3  C   UNL     1       2.104   2.567  18.005  0.00  0.00    +0.000 C 
ATOM      4  C   UNL     1       1.972   3.948  18.623  0.00  0.00    +0.000 C 
ATOM      5  N   UNL     1       3.257   4.619  18.447  0.00  0.00    +0.000 N 
ATOM      6  C   UNL     1       3.612   5.785  19.106  0.00  0.00    +0.000 C 
ATOM      7  O   UNL     1       4.770   6.210  19.048  0.00  0.00    +0.000 OA
ENDROOT
BRANCH   1   9
ATOM      8  O   UNL     1       6.502   4.207  17.290  0.00  0.00    +0.000 OA
ATOM      9  C   UNL     1       5.353   4.020  16.881  0.00  0.00    +0.000 C 
ATOM     10  N   UNL     1       4.960   4.117  15.564  0.00  0.00    +0.000 N 
ATOM     11  H   UNL     1       3.972   4.301  15.415  0.00  0.00    +0.000 HD
BRANCH  10  12
ATOM     12  C   UNL     1       5.818   4.256  14.453  0.00  0.00    +0.000 A 
ATOM     13  C   UNL     1       6.941   5.089  14.454  0.00  0.00    +0.000 A 
ATOM     14  C   UNL     1       7.744   5.206  13.313  0.00  0.00    +0.000 A 
ATOM     15  C   UNL     1       7.431   4.481  12.167  0.00  0.00    +0.000 A 
ATOM     16  C   UNL     1       6.329   3.628  12.165  0.00  0.00    +0.000 A 
ATOM     17  C   UNL     1       5.532   3.510  13.305  0.00  0.00    +0.000 A 
ENDBRANCH  10  12
ENDBRANCH   1   9
BRANCH   6  18
ATOM     18  C   UNL     1       2.530   6.603  19.828  0.00  0.00    +0.000 C 
BRANCH  18  19
ATOM     19  C   UNL     1       2.070   7.711  18.949  0.00  0.00    +0.000 A 
ATOM     20  N   UNL     1       2.522   7.794  17.688  0.00  0.00    +0.000 NA
ATOM     21  O   UNL     1       2.378   9.130  17.339  0.00  0.00    +0.000 OA
ATOM     22  C   UNL     1       1.778   9.797  18.360  0.00  0.00    +0.000 A 
ATOM     23  C   UNL     1       1.620  11.173  18.464  0.00  0.00    +0.000 A 
ATOM     24  C   UNL     1       0.958  11.631  19.609  0.00  0.00    +0.000 A 
ATOM     25  C   UNL     1       0.437  10.738  20.552  0.00  0.00    +0.000 A 
ATOM     26  C   UNL     1       0.657   9.358  20.439  0.00  0.00    +0.000 A 
ATOM     27  C   UNL     1       1.390   8.895  19.334  0.00  0.00    +0.000 A 
ENDBRANCH  18  19
ENDBRANCH   6  18
TORSDOF 4
ENDMDL
MODEL 6
REMARK VINA RESULT:      -7.5      3.818      5.579
REMARK  Name = 
REMARK  4 active torsions:
REMARK  status: ('A' for Active; 'I' for Inactive)
REMARK    1  A    between atoms: C_2  and  C_10
REMARK    2  A    between atoms: N_3  and  C_4
REMARK    3  A    between atoms: C_15  and  C_17
REMARK    4  A    between atoms: C_17  and  C_18
REMARK                            x       y       z     vdW  Elec       q    Type
REMARK                         _______ _______ _______ _____ _____    ______ ____
ROOT
ATOM      1  C   UNL     1       3.545   4.307  19.625  0.00  0.00    +0.000 C 
ATOM      2  C   UNL     1       3.266   2.817  19.898  0.00  0.00    +0.000 C 
ATOM      3  C   UNL     1       2.590   2.796  21.250  0.00  0.00    +0.000 C 
ATOM      4  C   UNL     1       1.841   4.116  21.308  0.00  0.00    +0.000 C 
ATOM      5  N   UNL     1       2.377   4.958  20.243  0.00  0.00    +0.000 N 
ATOM      6  C   UNL     1       2.138   6.319  20.144  0.00  0.00    +0.000 C 
ATOM      7  O   UNL     1       2.754   7.007  19.324  0.00  0.00    +0.000 OA
ENDROOT
BRANCH   1   9
ATOM      8  O   UNL     1       3.006   4.519  17.300  0.00  0.00    +0.000 OA
ATOM      9  C   UNL     1       3.909   4.349  18.124  0.00  0.00    +0.000 C 
ATOM     10  N   UNL     1       5.237   4.167  17.809  0.00  0.00    +0.000 N 
ATOM     11  H   UNL     1       5.792   3.688  18.512  0.00  0.00    +0.000 HD
BRANCH  10  12
ATOM     12  C   UNL     1       5.815   4.329  16.532  0.00  0.00    +0.000 A 
ATOM     13  C   UNL     1       5.268   3.778  15.369  0.00  0.00    +0.000 A 
ATOM     14  C   UNL     1       5.897   3.953  14.132  0.00  0.00    +0.000 A 
ATOM     15  C   UNL     1       7.075   4.690  14.050  0.00  0.00    +0.000 A 
ATOM     16  C   UNL     1       7.615   5.265  15.199  0.00  0.00    +0.000 A 
ATOM     17  C   UNL     1       6.983   5.092  16.432  0.00  0.00    +0.000 A 
ENDBRANCH  10  12
ENDBRANCH   1   9
BRANCH   6  18
ATOM     18  C   UNL     1       1.024   6.952  20.992  0.00  0.00    +0.000 C 
BRANCH  18  19
ATOM     19  C   UNL     1       1.253   8.417  21.108  0.00  0.00    +0.000 A 
ATOM     20  N   UNL     1       1.709   8.932  22.260  0.00  0.00    +0.000 NA
ATOM     21  O   UNL     1       1.309  10.260  22.246  0.00  0.00    +0.000 OA
ATOM     22  C   UNL     1       0.694  10.531  21.064  0.00  0.00    +0.000 A 
ATOM     23  C   UNL     1       0.004  11.692  20.741  0.00  0.00    +0.000 A 
ATOM     24  C   UNL     1      -0.539  11.746  19.453  0.00  0.00    +0.000 A 
ATOM     25  C   UNL     1      -0.337  10.709  18.536  0.00  0.00    +0.000 A 
ATOM     26  C   UNL     1       0.324   9.531  18.911  0.00  0.00    +0.000 A 
ATOM     27  C   UNL     1       0.803   9.435  20.228  0.00  0.00    +0.000 A 
ENDBRANCH  18  19
ENDBRANCH   6  18
TORSDOF 4
ENDMDL
MODEL 7
REMARK VINA RESULT:      -7.4      4.005      5.784
REMARK  Name = 
REMARK  4 active torsions:
REMARK  status: ('A' for Active; 'I' for Inactive)
REMARK    1  A    between atoms: C_2  and  C_10
REMARK    2  A    between atoms: N_3  and  C_4
REMARK    3  A    between atoms: C_15  and  C_17
REMARK    4  A    between atoms: C_17  and  C_18
REMARK                            x       y       z     vdW  Elec       q    Type
REMARK                         _______ _______ _______ _____ _____    ______ ____
ROOT
ATOM      1  C   UNL     1       3.325   4.099  20.176  0.00  0.00    +0.000 C 
ATOM      2  C   UNL     1       2.777   2.669  20.007  0.00  0.00    +0.000 C 
ATOM      3  C   UNL     1       1.501   2.651  20.818  0.00  0.00    +0.000 C 
ATOM      4  C   UNL     1       0.987   4.078  20.730  0.00  0.00    +0.000 C 
ATOM      5  N   UNL     1       2.090   4.899  20.238  0.00  0.00    +0.000 N 
ATOM      6  C   UNL     1       2.095   6.284  20.276  0.00  0.00    +0.000 C 
ATOM      7  O   UNL     1       3.120   6.916  20.006  0.00  0.00    +0.000 OA
ENDROOT
BRANCH   1   9
ATOM      8  O   UNL     1       5.566   3.860  19.364  0.00  0.00    +0.000 OA
ATOM      9  C   UNL     1       4.416   4.211  19.088  0.00  0.00    +0.000 C 
ATOM     10  N   UNL     1       4.021   4.726  17.873  0.00  0.00    +0.000 N 
ATOM     11  H   UNL     1       3.180   5.296  17.892  0.00  0.00    +0.000 HD
BRANCH  10  12
ATOM     12  C   UNL     1       4.800   4.765  16.697  0.00  0.00    +0.000 A 
ATOM     13  C   UNL     1       5.270   3.617  16.053  0.00  0.00    +0.000 A 
ATOM     14  C   UNL     1       6.059   3.717  14.901  0.00  0.00    +0.000 A 
ATOM     15  C   UNL     1       6.373   4.969  14.382  0.00  0.00    +0.000 A 
ATOM     16  C   UNL     1       5.887   6.119  15.002  0.00  0.00    +0.000 A 
ATOM     17  C   UNL     1       5.098   6.017  16.149  0.00  0.00    +0.000 A 
ENDBRANCH  10  12
ENDBRANCH   1   9
BRANCH   6  18
ATOM     18  C   UNL     1       0.784   7.034  20.558  0.00  0.00    +0.000 C 
BRANCH  18  19
ATOM     19  C   UNL     1       1.081   8.450  20.905  0.00  0.00    +0.000 A 
ATOM     20  N   UNL     1       1.476   8.763  22.148  0.00  0.00    +0.000 NA
ATOM     21  O   UNL     1       1.149  10.103  22.305  0.00  0.00    +0.000 OA
ATOM     22  C   UNL     1       0.640  10.579  21.139  0.00  0.00    +0.000 A 
ATOM     23  C   UNL     1       0.039  11.816  20.946  0.00  0.00    +0.000 A 
ATOM     24  C   UNL     1      -0.403  12.090  19.647  0.00  0.00    +0.000 A 
ATOM     25  C   UNL     1      -0.187  11.185  18.602  0.00  0.00    +0.000 A 
ATOM     26  C   UNL     1       0.380   9.926  18.841  0.00  0.00    +0.000 A 
ATOM     27  C   UNL     1       0.753   9.610  20.158  0.00  0.00    +0.000 A 
ENDBRANCH  18  19
ENDBRANCH   6  18
TORSDOF 4
ENDMDL
MODEL 8
REMARK VINA RESULT:      -7.4      1.738      2.374
REMARK  Name = 
REMARK  4 active torsions:
REMARK  status: ('A' for Active; 'I' for Inactive)
REMARK    1  A    between atoms: C_2  and  C_10
REMARK    2  A    between atoms: N_3  and  C_4
REMARK    3  A    between atoms: C_15  and  C_17
REMARK    4  A    between atoms: C_17  and  C_18
REMARK                            x       y       z     vdW  Elec       q    Type
REMARK                         _______ _______ _______ _____ _____    ______ ____
ROOT
ATOM      1  C   UNL     1       5.805   6.356  17.355  0.00  0.00    +0.000 C 
ATOM      2  C   UNL     1       6.879   5.363  17.837  0.00  0.00    +0.000 C 
ATOM      3  C   UNL     1       6.785   5.402  19.346  0.00  0.00    +0.000 C 
ATOM      4  C   UNL     1       5.322   5.706  19.617  0.00  0.00    +0.000 C 
ATOM      5  N   UNL     1       4.745   6.179  18.361  0.00  0.00    +0.000 N 
ATOM      6  C   UNL     1       3.510   6.801  18.268  0.00  0.00    +0.000 C 
ATOM      7  O   UNL     1       3.152   7.330  17.212  0.00  0.00    +0.000 OA
ENDROOT
BRANCH   1   9
ATOM      8  O   UNL     1       5.179   6.918  15.111  0.00  0.00    +0.000 OA
ATOM      9  C   UNL     1       5.671   6.056  15.845  0.00  0.00    +0.000 C 
ATOM     10  N   UNL     1       6.096   4.815  15.425  0.00  0.00    +0.000 N 
ATOM     11  H   UNL     1       6.129   4.097  16.144  0.00  0.00    +0.000 HD
BRANCH  10  12
ATOM     12  C   UNL     1       6.219   4.391  14.085  0.00  0.00    +0.000 A 
ATOM     13  C   UNL     1       5.279   3.573  13.452  0.00  0.00    +0.000 A 
ATOM     14  C   UNL     1       5.465   3.165  12.126  0.00  0.00    +0.000 A 
ATOM     15  C   UNL     1       6.591   3.583  11.423  0.00  0.00    +0.000 A 
ATOM     16  C   UNL     1       7.521   4.420  12.036  0.00  0.00    +0.000 A 
ATOM     17  C   UNL     1       7.331   4.829  13.358  0.00  0.00    +0.000 A 
ENDBRANCH  10  12
ENDBRANCH   1   9
BRANCH   6  18
ATOM     18  C   UNL     1       2.543   6.739  19.461  0.00  0.00    +0.000 C 
BRANCH  18  19
ATOM     19  C   UNL     1       2.238   5.320  19.786  0.00  0.00    +0.000 A 
ATOM     20  N   UNL     1       2.163   4.931  21.067  0.00  0.00    +0.000 NA
ATOM     21  O   UNL     1       2.414   3.566  21.046  0.00  0.00    +0.000 OA
ATOM     22  C   UNL     1       2.556   3.157  19.757  0.00  0.00    +0.000 A 
ATOM     23  C   UNL     1       2.986   1.906  19.333  0.00  0.00    +0.000 A 
ATOM     24  C   UNL     1       3.044   1.714  17.948  0.00  0.00    +0.000 A 
ATOM     25  C   UNL     1       2.631   2.712  17.059  0.00  0.00    +0.000 A 
ATOM     26  C   UNL     1       2.249   3.979  17.521  0.00  0.00    +0.000 A 
ATOM     27  C   UNL     1       2.264   4.207  18.907  0.00  0.00    +0.000 A 
ENDBRANCH  18  19
ENDBRANCH   6  18
TORSDOF 4
ENDMDL
MODEL 9
REMARK VINA RESULT:      -7.4      5.382      8.811
REMARK  Name = 
REMARK  4 active torsions:
REMARK  status: ('A' for Active; 'I' for Inactive)
REMARK    1  A    between atoms: C_2  and  C_10
REMARK    2  A    between atoms: N_3  and  C_4
REMARK    3  A    between atoms: C_15  and  C_17
REMARK    4  A    between atoms: C_17  and  C_18
REMARK                            x       y       z     vdW  Elec       q    Type
REMARK                         _______ _______ _______ _____ _____    ______ ____
ROOT
ATOM      1  C   UNL     1       0.101   9.932  19.937  0.00  0.00    +0.000 C 
ATOM      2  C   UNL     1      -0.305  10.420  21.340  0.00  0.00    +0.000 C 
ATOM      3  C   UNL     1      -0.259   9.179  22.204  0.00  0.00    +0.000 C 
ATOM      4  C   UNL     1       0.831   8.331  21.573  0.00  0.00    +0.000 C 
ATOM      5  N   UNL     1       1.090   8.885  20.247  0.00  0.00    +0.000 N 
ATOM      6  C   UNL     1       1.822   8.232  19.269  0.00  0.00    +0.000 C 
ATOM      7  O   UNL     1       1.863   8.672  18.117  0.00  0.00    +0.000 OA
ENDROOT
BRANCH   1   9
ATOM      8  O   UNL     1      -0.338  11.522  18.200  0.00  0.00    +0.000 OA
ATOM      9  C   UNL     1       0.386  11.236  19.157  0.00  0.00    +0.000 C 
ATOM     10  N   UNL     1       1.461  11.984  19.583  0.00  0.00    +0.000 N 
ATOM     11  H   UNL     1       2.164  11.477  20.113  0.00  0.00    +0.000 HD
BRANCH  10  12
ATOM     12  C   UNL     1       1.801  13.276  19.130  0.00  0.00    +0.000 A 
ATOM     13  C   UNL     1       1.064  14.419  19.455  0.00  0.00    +0.000 A 
ATOM     14  C   UNL     1       1.436  15.673  18.958  0.00  0.00    +0.000 A 
ATOM     15  C   UNL     1       2.556  15.791  18.140  0.00  0.00    +0.000 A 
ATOM     16  C   UNL     1       3.313  14.662  17.832  0.00  0.00    +0.000 A 
ATOM     17  C   UNL     1       2.941  13.412  18.332  0.00  0.00    +0.000 A 
ENDBRANCH  10  12
ENDBRANCH   1   9
BRANCH   6  18
ATOM     18  C   UNL     1       2.670   7.009  19.653  0.00  0.00    +0.000 C 
BRANCH  18  19
ATOM     19  C   UNL     1       2.735   6.064  18.507  0.00  0.00    +0.000 A 
ATOM     20  N   UNL     1       1.892   5.021  18.454  0.00  0.00    +0.000 NA
ATOM     21  O   UNL     1       2.522   4.088  17.642  0.00  0.00    +0.000 OA
ATOM     22  C   UNL     1       3.681   4.617  17.169  0.00  0.00    +0.000 A 
ATOM     23  C   UNL     1       4.672   3.937  16.471  0.00  0.00    +0.000 A 
ATOM     24  C   UNL     1       5.777   4.698  16.075  0.00  0.00    +0.000 A 
ATOM     25  C   UNL     1       5.837   6.074  16.322  0.00  0.00    +0.000 A 
ATOM     26  C   UNL     1       4.842   6.718  17.070  0.00  0.00    +0.000 A 
ATOM     27  C   UNL     1       3.767   5.946  17.541  0.00  0.00    +0.000 A 
ENDBRANCH  18  19
ENDBRANCH   6  18
TORSDOF 4
ENDMDL
