MODEL 1
REMARK VINA RESULT:      -8.8      0.000      0.000
REMARK  Name = 
REMARK  4 active torsions:
REMARK  status: ('A' for Active; 'I' for Inactive)
REMARK    1  A    between atoms: C_2  and  C_14
REMARK    2  A    between atoms: N_3  and  C_4
REMARK    3  A    between atoms: C_17  and  S_18
REMARK    4  A    between atoms: S_18  and  N_21
REMARK                            x       y       z     vdW  Elec       q    Type
REMARK                         _______ _______ _______ _____ _____    ______ ____
ROOT
ATOM      1  O   UNL     1       2.371  10.245  17.550  0.00  0.00    +0.000 OA
ATOM      2  C   UNL     1       1.736   9.463  18.260  0.00  0.00    +0.000 C 
ATOM      3  N   UNL     1       0.547   9.828  18.846  0.00  0.00    +0.000 N 
ATOM      4  H   UNL     1       0.002   9.195  19.411  0.00  0.00    +0.000 HD
ENDROOT
BRANCH   3   5
ATOM      5  C   UNL     1       0.014  11.169  18.619  0.00  0.00    +0.000 C 
ATOM      6  C   UNL     1       0.246  12.082  19.835  0.00  0.00    +0.000 C 
ATOM      7  C   UNL     1      -0.835  11.903  20.895  0.00  0.00    +0.000 C 
ATOM      8  C   UNL     1      -2.207  12.248  20.320  0.00  0.00    +0.000 C 
ATOM      9  C   UNL     1      -2.481  11.557  19.007  0.00  0.00    +0.000 A 
ATOM     10  C   UNL     1      -3.803  11.457  18.549  0.00  0.00    +0.000 A 
ATOM     11  C   UNL     1      -4.090  10.865  17.321  0.00  0.00    +0.000 A 
ATOM     12  C   UNL     1      -3.059  10.376  16.524  0.00  0.00    +0.000 A 
ATOM     13  C   UNL     1      -1.741  10.484  16.958  0.00  0.00    +0.000 A 
ATOM     14  C   UNL     1      -1.437  11.077  18.196  0.00  0.00    +0.000 A 
ENDBRANCH   3   5
BRANCH   2  15
ATOM     15  C   UNL     1       2.286   8.092  18.487  0.00  0.00    +0.000 A 
ATOM     16  C   UNL     1       2.984   7.523  17.405  0.00  0.00    +0.000 A 
ATOM     17  C   UNL     1       3.563   6.257  17.498  0.00  0.00    +0.000 A 
ATOM     18  C   UNL     1       3.492   5.557  18.700  0.00  0.00    +0.000 A 
ATOM     19  C   UNL     1       2.758   6.082  19.773  0.00  0.00    +0.000 A 
ATOM     20  C   UNL     1       2.156   7.352  19.670  0.00  0.00    +0.000 A 
BRANCH  18  21
ATOM     21  S   UNL     1       4.246   3.941  18.812  0.00  0.00    +0.000 S 
ATOM     22  O   UNL     1       4.450   3.480  17.453  0.00  0.00    +0.000 OA
ATOM     23  O   UNL     1       5.349   4.039  19.737  0.00  0.00    +0.000 OA
BRANCH  21  24
ATOM     24  N   UNL     1       3.061   2.973  19.511  0.00  0.00    +0.000 NA
ATOM     25  C   UNL     1       1.738   2.829  18.895  0.00  0.00    +0.000 C 
ATOM     26  C   UNL     1       0.759   3.147  20.012  0.00  0.00    +0.000 C 
ATOM     27  C   UNL     1       1.469   2.673  21.268  0.00  0.00    +0.000 C 
ATOM     28  C   UNL     1       2.958   2.840  20.976  0.00  0.00    +0.000 C 
ENDBRANCH  21  24
ENDBRANCH  18  21
ENDBRANCH   2  15
TORSDOF 4
ENDMDL
MODEL 2
REMARK VINA RESULT:      -8.3      3.219      8.785
REMARK  Name = 
REMARK  4 active torsions:
REMARK  status: ('A' for Active; 'I' for Inactive)
REMARK    1  A    between atoms: C_2  and  C_14
REMARK    2  A    between atoms: N_3  and  C_4
REMARK    3  A    between atoms: C_17  and  S_18
REMARK    4  A    between atoms: S_18  and  N_21
REMARK                            x       y       z     vdW  Elec       q    Type
REMARK                         _______ _______ _______ _____ _____    ______ ____
ROOT
ATOM      1  O   UNL     1       2.680   5.482  19.879  0.00  0.00    +0.000 OA
ATOM      2  C   UNL     1       2.996   6.364  19.080  0.00  0.00    +0.000 C 
ATOM      3  N   UNL     1       4.049   6.201  18.209  0.00  0.00    +0.000 N 
ATOM      4  H   UNL     1       4.309   6.902  17.533  0.00  0.00    +0.000 HD
ENDROOT
BRANCH   3   5
ATOM      5  C   UNL     1       4.807   4.952  18.221  0.00  0.00    +0.000 C 
ATOM      6  C   UNL     1       5.778   4.893  19.413  0.00  0.00    +0.000 C 
ATOM      7  C   UNL     1       7.090   5.610  19.113  0.00  0.00    +0.000 C 
ATOM      8  C   UNL     1       7.790   4.962  17.921  0.00  0.00    +0.000 C 
ATOM      9  C   UNL     1       6.876   4.782  16.734  0.00  0.00    +0.000 A 
ATOM     10  C   UNL     1       7.436   4.569  15.465  0.00  0.00    +0.000 A 
ATOM     11  C   UNL     1       6.624   4.355  14.354  0.00  0.00    +0.000 A 
ATOM     12  C   UNL     1       5.239   4.337  14.494  0.00  0.00    +0.000 A 
ATOM     13  C   UNL     1       4.670   4.530  15.750  0.00  0.00    +0.000 A 
ATOM     14  C   UNL     1       5.478   4.749  16.880  0.00  0.00    +0.000 A 
ENDBRANCH   3   5
BRANCH   2  15
ATOM     15  C   UNL     1       2.216   7.639  19.070  0.00  0.00    +0.000 A 
ATOM     16  C   UNL     1       1.604   7.993  20.286  0.00  0.00    +0.000 A 
ATOM     17  C   UNL     1       0.865   9.170  20.414  0.00  0.00    +0.000 A 
ATOM     18  C   UNL     1       0.769  10.039  19.330  0.00  0.00    +0.000 A 
ATOM     19  C   UNL     1       1.328   9.682  18.094  0.00  0.00    +0.000 A 
ATOM     20  C   UNL     1       2.055   8.483  17.963  0.00  0.00    +0.000 A 
BRANCH  18  21
ATOM     21  S   UNL     1      -0.171  11.549  19.506  0.00  0.00    +0.000 S 
ATOM     22  O   UNL     1      -0.117  11.914  20.908  0.00  0.00    +0.000 OA
ATOM     23  O   UNL     1       0.278  12.462  18.483  0.00  0.00    +0.000 OA
BRANCH  21  24
ATOM     24  N   UNL     1      -1.753  11.102  19.151  0.00  0.00    +0.000 NA
ATOM     25  C   UNL     1      -2.046  10.110  18.111  0.00  0.00    +0.000 C 
ATOM     26  C   UNL     1      -3.068  10.787  17.214  0.00  0.00    +0.000 C 
ATOM     27  C   UNL     1      -3.847  11.685  18.158  0.00  0.00    +0.000 C 
ATOM     28  C   UNL     1      -2.857  12.075  19.252  0.00  0.00    +0.000 C 
ENDBRANCH  21  24
ENDBRANCH  18  21
ENDBRANCH   2  15
TORSDOF 4
ENDMDL
MODEL 3
REMARK VINA RESULT:      -8.3      1.565      2.704
REMARK  Name = 
REMARK  4 active torsions:
REMARK  status: ('A' for Active; 'I' for Inactive)
REMARK    1  A    between atoms: C_2  and  C_14
REMARK    2  A    between atoms: N_3  and  C_4
REMARK    3  A    between atoms: C_17  and  S_18
REMARK    4  A    between atoms: S_18  and  N_21
REMARK                            x       y       z     vdW  Elec       q    Type
REMARK                         _______ _______ _______ _____ _____    ______ ____
ROOT
ATOM      1  O   UNL     1       2.313  10.389  17.640  0.00  0.00    +0.000 OA
ATOM      2  C   UNL     1       1.640   9.579  18.279  0.00  0.00    +0.000 C 
ATOM      3  N   UNL     1       0.408   9.914  18.790  0.00  0.00    +0.000 N 
ATOM      4  H   UNL     1      -0.167   9.258  19.296  0.00  0.00    +0.000 HD
ENDROOT
BRANCH   3   5
ATOM      5  C   UNL     1      -0.124  11.256  18.567  0.00  0.00    +0.000 C 
ATOM      6  C   UNL     1       0.111  12.166  19.785  0.00  0.00    +0.000 C 
ATOM      7  C   UNL     1      -0.970  11.985  20.846  0.00  0.00    +0.000 C 
ATOM      8  C   UNL     1      -2.342  12.333  20.273  0.00  0.00    +0.000 C 
ATOM      9  C   UNL     1      -2.618  11.645  18.959  0.00  0.00    +0.000 A 
ATOM     10  C   UNL     1      -3.941  11.547  18.503  0.00  0.00    +0.000 A 
ATOM     11  C   UNL     1      -4.230  10.958  17.274  0.00  0.00    +0.000 A 
ATOM     12  C   UNL     1      -3.200  10.470  16.474  0.00  0.00    +0.000 A 
ATOM     13  C   UNL     1      -1.881  10.575  16.906  0.00  0.00    +0.000 A 
ATOM     14  C   UNL     1      -1.576  11.165  18.146  0.00  0.00    +0.000 A 
ENDBRANCH   3   5
BRANCH   2  15
ATOM     15  C   UNL     1       2.189   8.207  18.502  0.00  0.00    +0.000 A 
ATOM     16  C   UNL     1       2.957   7.674  17.451  0.00  0.00    +0.000 A 
ATOM     17  C   UNL     1       3.543   6.411  17.545  0.00  0.00    +0.000 A 
ATOM     18  C   UNL     1       3.406   5.678  18.721  0.00  0.00    +0.000 A 
ATOM     19  C   UNL     1       2.603   6.167  19.761  0.00  0.00    +0.000 A 
ATOM     20  C   UNL     1       1.995   7.434  19.655  0.00  0.00    +0.000 A 
BRANCH  18  21
ATOM     21  S   UNL     1       4.169   4.066  18.835  0.00  0.00    +0.000 S 
ATOM     22  O   UNL     1       4.008   3.623  20.206  0.00  0.00    +0.000 OA
ATOM     23  O   UNL     1       3.676   3.273  17.735  0.00  0.00    +0.000 OA
BRANCH  21  24
ATOM     24  N   UNL     1       5.805   4.357  18.578  0.00  0.00    +0.000 NA
ATOM     25  C   UNL     1       6.529   5.364  19.362  0.00  0.00    +0.000 C 
ATOM     26  C   UNL     1       7.208   6.242  18.324  0.00  0.00    +0.000 C 
ATOM     27  C   UNL     1       7.499   5.293  17.175  0.00  0.00    +0.000 C 
ATOM     28  C   UNL     1       6.393   4.242  17.231  0.00  0.00    +0.000 C 
ENDBRANCH  21  24
ENDBRANCH  18  21
ENDBRANCH   2  15
TORSDOF 4
ENDMDL
MODEL 4
REMARK VINA RESULT:      -8.2      3.160      8.620
REMARK  Name = 
REMARK  4 active torsions:
REMARK  status: ('A' for Active; 'I' for Inactive)
REMARK    1  A    between atoms: C_2  and  C_14
REMARK    2  A    between atoms: N_3  and  C_4
REMARK    3  A    between atoms: C_17  and  S_18
REMARK    4  A    between atoms: S_18  and  N_21
REMARK                            x       y       z     vdW  Elec       q    Type
REMARK                         _______ _______ _______ _____ _____    ______ ____
ROOT
ATOM      1  O   UNL     1       2.728   5.417  20.066  0.00  0.00    +0.000 OA
ATOM      2  C   UNL     1       3.007   6.319  19.275  0.00  0.00    +0.000 C 
ATOM      3  N   UNL     1       4.020   6.179  18.355  0.00  0.00    +0.000 N 
ATOM      4  H   UNL     1       4.248   6.897  17.684  0.00  0.00    +0.000 HD
ENDROOT
BRANCH   3   5
ATOM      5  C   UNL     1       4.780   4.932  18.304  0.00  0.00    +0.000 C 
ATOM      6  C   UNL     1       5.762   4.821  19.482  0.00  0.00    +0.000 C 
ATOM      7  C   UNL     1       7.071   5.553  19.202  0.00  0.00    +0.000 C 
ATOM      8  C   UNL     1       7.759   4.961  17.975  0.00  0.00    +0.000 C 
ATOM      9  C   UNL     1       6.835   4.833  16.790  0.00  0.00    +0.000 A 
ATOM     10  C   UNL     1       7.382   4.678  15.508  0.00  0.00    +0.000 A 
ATOM     11  C   UNL     1       6.560   4.513  14.396  0.00  0.00    +0.000 A 
ATOM     12  C   UNL     1       5.176   4.486  14.548  0.00  0.00    +0.000 A 
ATOM     13  C   UNL     1       4.619   4.621  15.817  0.00  0.00    +0.000 A 
ATOM     14  C   UNL     1       5.438   4.791  16.948  0.00  0.00    +0.000 A 
ENDBRANCH   3   5
BRANCH   2  15
ATOM     15  C   UNL     1       2.225   7.591  19.331  0.00  0.00    +0.000 A 
ATOM     16  C   UNL     1       2.262   8.386  18.170  0.00  0.00    +0.000 A 
ATOM     17  C   UNL     1       1.556   9.587  18.088  0.00  0.00    +0.000 A 
ATOM     18  C   UNL     1       0.759   9.988  19.158  0.00  0.00    +0.000 A 
ATOM     19  C   UNL     1       0.748   9.238  20.342  0.00  0.00    +0.000 A 
ATOM     20  C   UNL     1       1.479   8.036  20.430  0.00  0.00    +0.000 A 
BRANCH  18  21
ATOM     21  S   UNL     1      -0.149  11.522  19.038  0.00  0.00    +0.000 S 
ATOM     22  O   UNL     1      -0.759  11.749  20.333  0.00  0.00    +0.000 OA
ATOM     23  O   UNL     1       0.730  12.503  18.448  0.00  0.00    +0.000 OA
BRANCH  21  24
ATOM     24  N   UNL     1      -1.380  11.196  17.940  0.00  0.00    +0.000 NA
ATOM     25  C   UNL     1      -2.677  11.877  18.029  0.00  0.00    +0.000 C 
ATOM     26  C   UNL     1      -3.700  10.754  18.022  0.00  0.00    +0.000 C 
ATOM     27  C   UNL     1      -3.055   9.676  17.168  0.00  0.00    +0.000 C 
ATOM     28  C   UNL     1      -1.552   9.847  17.371  0.00  0.00    +0.000 C 
ENDBRANCH  21  24
ENDBRANCH  18  21
ENDBRANCH   2  15
TORSDOF 4
ENDMDL
MODEL 5
REMARK VINA RESULT:      -8.1      1.265      1.665
REMARK  Name = 
REMARK  4 active torsions:
REMARK  status: ('A' for Active; 'I' for Inactive)
REMARK    1  A    between atoms: C_2  and  C_14
REMARK    2  A    between atoms: N_3  and  C_4
REMARK    3  A    between atoms: C_17  and  S_18
REMARK    4  A    between atoms: S_18  and  N_21
REMARK                            x       y       z     vdW  Elec       q    Type
REMARK                         _______ _______ _______ _____ _____    ______ ____
ROOT
ATOM      1  O   UNL     1       1.469  11.590  18.554  0.00  0.00    +0.000 OA
ATOM      2  C   UNL     1       0.791  10.604  18.845  0.00  0.00    +0.000 C 
ATOM      3  N   UNL     1      -0.557  10.709  19.097  0.00  0.00    +0.000 N 
ATOM      4  H   UNL     1      -1.133   9.910  19.313  0.00  0.00    +0.000 HD
ENDROOT
BRANCH   3   5
ATOM      5  C   UNL     1      -1.207  12.015  19.011  0.00  0.00    +0.000 C 
ATOM      6  C   UNL     1      -1.093  12.789  20.336  0.00  0.00    +0.000 C 
ATOM      7  C   UNL     1      -2.182  12.385  21.325  0.00  0.00    +0.000 C 
ATOM      8  C   UNL     1      -3.563  12.674  20.744  0.00  0.00    +0.000 C 
ATOM      9  C   UNL     1      -3.737  12.128  19.348  0.00  0.00    +0.000 A 
ATOM     10  C   UNL     1      -5.031  11.967  18.832  0.00  0.00    +0.000 A 
ATOM     11  C   UNL     1      -5.228  11.506  17.532  0.00  0.00    +0.000 A 
ATOM     12  C   UNL     1      -4.135  11.212  16.722  0.00  0.00    +0.000 A 
ATOM     13  C   UNL     1      -2.845  11.383  17.215  0.00  0.00    +0.000 A 
ATOM     14  C   UNL     1      -2.631  11.845  18.526  0.00  0.00    +0.000 A 
ENDBRANCH   3   5
BRANCH   2  15
ATOM     15  C   UNL     1       1.460   9.271  18.928  0.00  0.00    +0.000 A 
ATOM     16  C   UNL     1       2.156   8.860  17.777  0.00  0.00    +0.000 A 
ATOM     17  C   UNL     1       2.841   7.645  17.735  0.00  0.00    +0.000 A 
ATOM     18  C   UNL     1       2.880   6.841  18.872  0.00  0.00    +0.000 A 
ATOM     19  C   UNL     1       2.151   7.206  20.013  0.00  0.00    +0.000 A 
ATOM     20  C   UNL     1       1.443   8.423  20.044  0.00  0.00    +0.000 A 
BRANCH  18  21
ATOM     21  S   UNL     1       3.769   5.291  18.811  0.00  0.00    +0.000 S 
ATOM     22  O   UNL     1       4.077   5.040  17.418  0.00  0.00    +0.000 OA
ATOM     23  O   UNL     1       4.813   5.351  19.805  0.00  0.00    +0.000 OA
BRANCH  21  24
ATOM     24  N   UNL     1       2.643   4.143  19.304  0.00  0.00    +0.000 NA
ATOM     25  C   UNL     1       3.068   2.872  19.902  0.00  0.00    +0.000 C 
ATOM     26  C   UNL     1       2.348   1.808  19.092  0.00  0.00    +0.000 C 
ATOM     27  C   UNL     1       1.047   2.476  18.684  0.00  0.00    +0.000 C 
ATOM     28  C   UNL     1       1.374   3.963  18.576  0.00  0.00    +0.000 C 
ENDBRANCH  21  24
ENDBRANCH  18  21
ENDBRANCH   2  15
TORSDOF 4
ENDMDL
MODEL 6
REMARK VINA RESULT:      -8.0      3.554      9.057
REMARK  Name = 
REMARK  4 active torsions:
REMARK  status: ('A' for Active; 'I' for Inactive)
REMARK    1  A    between atoms: C_2  and  C_14
REMARK    2  A    between atoms: N_3  and  C_4
REMARK    3  A    between atoms: C_17  and  S_18
REMARK    4  A    between atoms: S_18  and  N_21
REMARK                            x       y       z     vdW  Elec       q    Type
REMARK                         _______ _______ _______ _____ _____    ______ ____
ROOT
ATOM      1  O   UNL     1       2.414   5.395  19.579  0.00  0.00    +0.000 OA
ATOM      2  C   UNL     1       2.883   6.360  18.974  0.00  0.00    +0.000 C 
ATOM      3  N   UNL     1       4.079   6.271  18.299  0.00  0.00    +0.000 N 
ATOM      4  H   UNL     1       4.468   7.043  17.779  0.00  0.00    +0.000 HD
ENDROOT
BRANCH   3   5
ATOM      5  C   UNL     1       4.809   5.005  18.289  0.00  0.00    +0.000 C 
ATOM      6  C   UNL     1       5.781   4.906  19.478  0.00  0.00    +0.000 C 
ATOM      7  C   UNL     1       7.108   5.598  19.186  0.00  0.00    +0.000 C 
ATOM      8  C   UNL     1       7.791   4.954  17.982  0.00  0.00    +0.000 C 
ATOM      9  C   UNL     1       6.871   4.814  16.794  0.00  0.00    +0.000 A 
ATOM     10  C   UNL     1       7.423   4.609  15.521  0.00  0.00    +0.000 A 
ATOM     11  C   UNL     1       6.605   4.432  14.409  0.00  0.00    +0.000 A 
ATOM     12  C   UNL     1       5.219   4.442  14.552  0.00  0.00    +0.000 A 
ATOM     13  C   UNL     1       4.658   4.627  15.812  0.00  0.00    +0.000 A 
ATOM     14  C   UNL     1       5.473   4.810  16.943  0.00  0.00    +0.000 A 
ENDBRANCH   3   5
BRANCH   2  15
ATOM     15  C   UNL     1       2.131   7.651  18.985  0.00  0.00    +0.000 A 
ATOM     16  C   UNL     1       1.665   8.079  20.242  0.00  0.00    +0.000 A 
ATOM     17  C   UNL     1       0.968   9.279  20.390  0.00  0.00    +0.000 A 
ATOM     18  C   UNL     1       0.768  10.096  19.280  0.00  0.00    +0.000 A 
ATOM     19  C   UNL     1       1.178   9.665  18.010  0.00  0.00    +0.000 A 
ATOM     20  C   UNL     1       1.863   8.443  17.861  0.00  0.00    +0.000 A 
BRANCH  18  21
ATOM     21  S   UNL     1      -0.117  11.635  19.482  0.00  0.00    +0.000 S 
ATOM     22  O   UNL     1      -0.846  11.863  18.250  0.00  0.00    +0.000 OA
ATOM     23  O   UNL     1      -0.801  11.580  20.751  0.00  0.00    +0.000 OA
BRANCH  21  24
ATOM     24  N   UNL     1       1.090  12.802  19.589  0.00  0.00    +0.000 NA
ATOM     25  C   UNL     1       0.801  14.148  20.096  0.00  0.00    +0.000 C 
ATOM     26  C   UNL     1       1.345  15.083  19.029  0.00  0.00    +0.000 C 
ATOM     27  C   UNL     1       2.533  14.333  18.454  0.00  0.00    +0.000 C 
ATOM     28  C   UNL     1       2.184  12.854  18.602  0.00  0.00    +0.000 C 
ENDBRANCH  21  24
ENDBRANCH  18  21
ENDBRANCH   2  15
TORSDOF 4
ENDMDL
MODEL 7
REMARK VINA RESULT:      -8.0      1.607      2.390
REMARK  Name = 
REMARK  4 active torsions:
REMARK  status: ('A' for Active; 'I' for Inactive)
REMARK    1  A    between atoms: C_2  and  C_14
REMARK    2  A    between atoms: N_3  and  C_4
REMARK    3  A    between atoms: C_17  and  S_18
REMARK    4  A    between atoms: S_18  and  N_21
REMARK                            x       y       z     vdW  Elec       q    Type
REMARK                         _______ _______ _______ _____ _____    ______ ____
ROOT
ATOM      1  O   UNL     1       0.894  11.672  18.343  0.00  0.00    +0.000 OA
ATOM      2  C   UNL     1       0.368  10.777  19.006  0.00  0.00    +0.000 C 
ATOM      3  N   UNL     1      -0.847  10.960  19.624  0.00  0.00    +0.000 N 
ATOM      4  H   UNL     1      -1.304  10.231  20.151  0.00  0.00    +0.000 HD
ENDROOT
BRANCH   3   5
ATOM      5  C   UNL     1      -1.540  12.239  19.487  0.00  0.00    +0.000 C 
ATOM      6  C   UNL     1      -1.588  12.999  20.824  0.00  0.00    +0.000 C 
ATOM      7  C   UNL     1      -2.750  12.538  21.698  0.00  0.00    +0.000 C 
ATOM      8  C   UNL     1      -4.079  12.779  20.986  0.00  0.00    +0.000 C 
ATOM      9  C   UNL     1      -4.092  12.244  19.575  0.00  0.00    +0.000 A 
ATOM     10  C   UNL     1      -5.322  12.038  18.933  0.00  0.00    +0.000 A 
ATOM     11  C   UNL     1      -5.372  11.587  17.616  0.00  0.00    +0.000 A 
ATOM     12  C   UNL     1      -4.193  11.349  16.914  0.00  0.00    +0.000 A 
ATOM     13  C   UNL     1      -2.966  11.566  17.533  0.00  0.00    +0.000 A 
ATOM     14  C   UNL     1      -2.901  12.018  18.863  0.00  0.00    +0.000 A 
ENDBRANCH   3   5
BRANCH   2  15
ATOM     15  C   UNL     1       1.080   9.470  19.140  0.00  0.00    +0.000 A 
ATOM     16  C   UNL     1       0.977   8.840  20.394  0.00  0.00    +0.000 A 
ATOM     17  C   UNL     1       1.578   7.605  20.640  0.00  0.00    +0.000 A 
ATOM     18  C   UNL     1       2.256   6.956  19.611  0.00  0.00    +0.000 A 
ATOM     19  C   UNL     1       2.415   7.588  18.370  0.00  0.00    +0.000 A 
ATOM     20  C   UNL     1       1.825   8.845  18.131  0.00  0.00    +0.000 A 
BRANCH  18  21
ATOM     21  S   UNL     1       3.014   5.370  19.934  0.00  0.00    +0.000 S 
ATOM     22  O   UNL     1       4.423   5.508  19.623  0.00  0.00    +0.000 OA
ATOM     23  O   UNL     1       2.580   4.939  21.241  0.00  0.00    +0.000 OA
BRANCH  21  24
ATOM     24  N   UNL     1       2.334   4.340  18.791  0.00  0.00    +0.000 NA
ATOM     25  C   UNL     1       1.191   3.484  19.127  0.00  0.00    +0.000 C 
ATOM     26  C   UNL     1       1.618   2.090  18.699  0.00  0.00    +0.000 C 
ATOM     27  C   UNL     1       2.523   2.334  17.506  0.00  0.00    +0.000 C 
ATOM     28  C   UNL     1       3.167   3.695  17.760  0.00  0.00    +0.000 C 
ENDBRANCH  21  24
ENDBRANCH  18  21
ENDBRANCH   2  15
TORSDOF 4
ENDMDL
MODEL 8
REMARK VINA RESULT:      -7.9      3.038      8.315
REMARK  Name = 
REMARK  4 active torsions:
REMARK  status: ('A' for Active; 'I' for Inactive)
REMARK    1  A    between atoms: C_2  and  C_14
REMARK    2  A    between atoms: N_3  and  C_4
REMARK    3  A    between atoms: C_17  and  S_18
REMARK    4  A    between atoms: S_18  and  N_21
REMARK                            x       y       z     vdW  Elec       q    Type
REMARK                         _______ _______ _______ _____ _____    ______ ____
ROOT
ATOM      1  O   UNL     1       2.204   7.281  21.361  0.00  0.00    +0.000 OA
ATOM      2  C   UNL     1       1.982   7.629  20.201  0.00  0.00    +0.000 C 
ATOM      3  N   UNL     1       2.508   6.940  19.132  0.00  0.00    +0.000 N 
ATOM      4  H   UNL     1       2.319   7.195  18.175  0.00  0.00    +0.000 HD
ENDROOT
BRANCH   3   5
ATOM      5  C   UNL     1       3.341   5.764  19.373  0.00  0.00    +0.000 C 
ATOM      6  C   UNL     1       4.644   5.820  18.556  0.00  0.00    +0.000 C 
ATOM      7  C   UNL     1       4.445   5.307  17.133  0.00  0.00    +0.000 C 
ATOM      8  C   UNL     1       3.978   3.854  17.151  0.00  0.00    +0.000 C 
ATOM      9  C   UNL     1       2.811   3.626  18.079  0.00  0.00    +0.000 A 
ATOM     10  C   UNL     1       2.032   2.469  17.928  0.00  0.00    +0.000 A 
ATOM     11  C   UNL     1       0.974   2.204  18.794  0.00  0.00    +0.000 A 
ATOM     12  C   UNL     1       0.684   3.083  19.834  0.00  0.00    +0.000 A 
ATOM     13  C   UNL     1       1.460   4.226  20.007  0.00  0.00    +0.000 A 
ATOM     14  C   UNL     1       2.530   4.507  19.138  0.00  0.00    +0.000 A 
ENDBRANCH   3   5
BRANCH   2  15
ATOM     15  C   UNL     1       1.128   8.830  19.961  0.00  0.00    +0.000 A 
ATOM     16  C   UNL     1       1.426   9.576  18.806  0.00  0.00    +0.000 A 
ATOM     17  C   UNL     1       0.688  10.709  18.460  0.00  0.00    +0.000 A 
ATOM     18  C   UNL     1      -0.399  11.084  19.245  0.00  0.00    +0.000 A 
ATOM     19  C   UNL     1      -0.683  10.386  20.428  0.00  0.00    +0.000 A 
ATOM     20  C   UNL     1       0.078   9.256  20.786  0.00  0.00    +0.000 A 
BRANCH  18  21
ATOM     21  S   UNL     1      -1.345  12.530  18.787  0.00  0.00    +0.000 S 
ATOM     22  O   UNL     1      -1.949  13.037  20.002  0.00  0.00    +0.000 OA
ATOM     23  O   UNL     1      -0.495  13.366  17.974  0.00  0.00    +0.000 OA
BRANCH  21  24
ATOM     24  N   UNL     1      -2.577  11.932  17.811  0.00  0.00    +0.000 NA
ATOM     25  C   UNL     1      -3.870  11.534  18.379  0.00  0.00    +0.000 C 
ATOM     26  C   UNL     1      -4.100  10.125  17.858  0.00  0.00    +0.000 C 
ATOM     27  C   UNL     1      -3.424  10.122  16.498  0.00  0.00    +0.000 C 
ATOM     28  C   UNL     1      -2.274  11.119  16.618  0.00  0.00    +0.000 C 
ENDBRANCH  21  24
ENDBRANCH  18  21
ENDBRANCH   2  15
TORSDOF 4
ENDMDL
MODEL 9
REMARK VINA RESULT:      -7.9      1.827      2.633
REMARK  Name = 
REMARK  4 active torsions:
REMARK  status: ('A' for Active; 'I' for Inactive)
REMARK    1  A    between atoms: C_2  and  C_14
REMARK    2  A    between atoms: N_3  and  C_4
REMARK    3  A    between atoms: C_17  and  S_18
REMARK    4  A    between atoms: S_18  and  N_21
REMARK                            x       y       z     vdW  Elec       q    Type
REMARK                         _______ _______ _______ _____ _____    ______ ____
ROOT
ATOM      1  O   UNL     1       0.767  11.995  18.724  0.00  0.00    +0.000 OA
ATOM      2  C   UNL     1       0.450  11.145  19.557  0.00  0.00    +0.000 C 
ATOM      3  N   UNL     1      -0.440  11.428  20.568  0.00  0.00    +0.000 N 
ATOM      4  H   UNL     1      -0.730  10.739  21.245  0.00  0.00    +0.000 HD
ENDROOT
BRANCH   3   5
ATOM      5  C   UNL     1      -1.032  12.761  20.655  0.00  0.00    +0.000 C 
ATOM      6  C   UNL     1      -0.540  13.516  21.901  0.00  0.00    +0.000 C 
ATOM      7  C   UNL     1      -1.346  13.148  23.143  0.00  0.00    +0.000 C 
ATOM      8  C   UNL     1      -2.818  13.501  22.946  0.00  0.00    +0.000 C 
ATOM      9  C   UNL     1      -3.377  12.977  21.646  0.00  0.00    +0.000 A 
ATOM     10  C   UNL     1      -4.767  12.875  21.489  0.00  0.00    +0.000 A 
ATOM     11  C   UNL     1      -5.319  12.437  20.287  0.00  0.00    +0.000 A 
ATOM     12  C   UNL     1      -4.491  12.106  19.218  0.00  0.00    +0.000 A 
ATOM     13  C   UNL     1      -3.110  12.218  19.354  0.00  0.00    +0.000 A 
ATOM     14  C   UNL     1      -2.540  12.656  20.562  0.00  0.00    +0.000 A 
ENDBRANCH   3   5
BRANCH   2  15
ATOM     15  C   UNL     1       1.057   9.783  19.461  0.00  0.00    +0.000 A 
ATOM     16  C   UNL     1       1.499   9.397  18.183  0.00  0.00    +0.000 A 
ATOM     17  C   UNL     1       2.103   8.158  17.966  0.00  0.00    +0.000 A 
ATOM     18  C   UNL     1       2.318   7.302  19.044  0.00  0.00    +0.000 A 
ATOM     19  C   UNL     1       1.839   7.645  20.316  0.00  0.00    +0.000 A 
ATOM     20  C   UNL     1       1.210   8.887  20.528  0.00  0.00    +0.000 A 
BRANCH  18  21
ATOM     21  S   UNL     1       3.102   5.722  18.757  0.00  0.00    +0.000 S 
ATOM     22  O   UNL     1       3.551   5.722  17.379  0.00  0.00    +0.000 OA
ATOM     23  O   UNL     1       4.027   5.492  19.841  0.00  0.00    +0.000 OA
BRANCH  21  24
ATOM     24  N   UNL     1       1.853   4.603  18.891  0.00  0.00    +0.000 NA
ATOM     25  C   UNL     1       1.333   4.200  20.202  0.00  0.00    +0.000 C 
ATOM     26  C   UNL     1       1.383   2.681  20.182  0.00  0.00    +0.000 C 
ATOM     27  C   UNL     1       1.148   2.326  18.725  0.00  0.00    +0.000 C 
ATOM     28  C   UNL     1       1.721   3.495  17.928  0.00  0.00    +0.000 C 
ENDBRANCH  21  24
ENDBRANCH  18  21
ENDBRANCH   2  15
TORSDOF 4
ENDMDL
