MODEL 1
REMARK VINA RESULT:      -8.8      0.000      0.000
REMARK  Name = 
REMARK  7 active torsions:
REMARK  status: ('A' for Active; 'I' for Inactive)
REMARK    1  A    between atoms: C_1  and  N_2
REMARK    2  A    between atoms: C_6  and  C_7
REMARK    3  A    between atoms: C_7  and  C_8
REMARK    4  A    between atoms: C_8  and  C_9
REMARK    5  A    between atoms: C_13  and  N_14
REMARK    6  A    between atoms: C_15  and  C_17
REMARK    7  A    between atoms: C_21  and  C_22
REMARK                            x       y       z     vdW  Elec       q    Type
REMARK                         _______ _______ _______ _____ _____    ______ ____
ROOT
ATOM      1  C   UNL     1       4.478   4.698  17.251  0.00  0.00    +0.000 A 
ATOM      2  C   UNL     1       3.742   3.526  16.985  0.00  0.00    +0.000 A 
ATOM      3  C   UNL     1       2.412   3.394  17.365  0.00  0.00    +0.000 A 
ATOM      4  C   UNL     1       1.781   4.432  18.042  0.00  0.00    +0.000 A 
ATOM      5  C   UNL     1       2.470   5.607  18.348  0.00  0.00    +0.000 A 
ATOM      6  C   UNL     1       3.793   5.743  17.918  0.00  0.00    +0.000 A 
ENDROOT
BRANCH   1   7
ATOM      7  C   UNL     1       6.016   4.830  16.833  0.00  0.00    +0.000 C 
ATOM      8  C   UNL     1       6.619   6.258  16.712  0.00  0.00    +0.000 C 
ATOM      9  O   UNL     1       7.574   6.015  17.765  0.00  0.00    +0.000 OA
ATOM     10  C   UNL     1       7.040   4.701  18.001  0.00  0.00    +0.000 C 
BRANCH   7  11
ATOM     11  C   UNL     1       6.346   3.864  15.680  0.00  0.00    +0.000 C 
BRANCH  11  17
ATOM     12  C   UNL     1       5.612   3.344  12.614  0.00  0.00    +0.000 C 
ATOM     13  N   UNL     1       6.604   4.236  13.150  0.00  0.00    +0.000 N 
ATOM     14  C   UNL     1       7.461   4.981  12.394  0.00  0.00    +0.000 A 
ATOM     15  N   UNL     1       8.229   5.697  13.177  0.00  0.00    +0.000 NA
ATOM     16  N   UNL     1       7.883   5.409  14.473  0.00  0.00    +0.000 NA
ATOM     17  C   UNL     1       6.916   4.511  14.460  0.00  0.00    +0.000 A 
ENDBRANCH  11  17
ENDBRANCH   7  11
ENDBRANCH   1   7
BRANCH   5  18
ATOM     18  N   UNL     1       1.899   6.669  19.084  0.00  0.00    +0.000 N 
ATOM     19  C   UNL     1       2.045   8.010  18.790  0.00  0.00    +0.000 C 
ATOM     20  O   UNL     1       2.669   8.474  17.839  0.00  0.00    +0.000 OA
ATOM     21  H   UNL     1       1.230   6.461  19.820  0.00  0.00    +0.000 HD
BRANCH  19  22
ATOM     22  C   UNL     1       1.331   8.919  19.768  0.00  0.00    +0.000 C 
ATOM     23  C   UNL     1       1.186   8.412  21.000  0.00  0.00    +0.000 C 
ATOM     24  C   UNL     1       0.478   9.120  22.091  0.00  0.00    +0.000 C 
ATOM     25  C   UNL     1      -0.095  10.457  21.669  0.00  0.00    +0.000 C 
ATOM     26  C   UNL     1       0.226  10.853  20.247  0.00  0.00    +0.000 C 
ATOM     27  N   UNL     1       0.874  10.154  19.365  0.00  0.00    +0.000 NA
BRANCH  26  28
ATOM     28  C   UNL     1      -0.261  12.198  19.840  0.00  0.00    +0.000 C 
ATOM     29  C   UNL     1      -1.747  12.414  19.655  0.00  0.00    +0.000 C 
ATOM     30  C   UNL     1      -0.834  12.443  18.467  0.00  0.00    +0.000 C 
ENDBRANCH  26  28
ENDBRANCH  19  22
ENDBRANCH   5  18
TORSDOF 6
ENDMDL
MODEL 2
REMARK VINA RESULT:      -8.7      4.405      7.597
REMARK  Name = 
REMARK  7 active torsions:
REMARK  status: ('A' for Active; 'I' for Inactive)
REMARK    1  A    between atoms: C_1  and  N_2
REMARK    2  A    between atoms: C_6  and  C_7
REMARK    3  A    between atoms: C_7  and  C_8
REMARK    4  A    between atoms: C_8  and  C_9
REMARK    5  A    between atoms: C_13  and  N_14
REMARK    6  A    between atoms: C_15  and  C_17
REMARK    7  A    between atoms: C_21  and  C_22
REMARK                            x       y       z     vdW  Elec       q    Type
REMARK                         _______ _______ _______ _____ _____    ______ ____
ROOT
ATOM      1  C   UNL     1       5.040   4.666  17.178  0.00  0.00    +0.000 A 
ATOM      2  C   UNL     1       5.584   3.967  16.082  0.00  0.00    +0.000 A 
ATOM      3  C   UNL     1       6.665   4.460  15.363  0.00  0.00    +0.000 A 
ATOM      4  C   UNL     1       7.226   5.683  15.711  0.00  0.00    +0.000 A 
ATOM      5  C   UNL     1       6.713   6.426  16.776  0.00  0.00    +0.000 A 
ATOM      6  C   UNL     1       5.656   5.895  17.520  0.00  0.00    +0.000 A 
ENDROOT
BRANCH   1   7
ATOM      7  C   UNL     1       3.778   4.102  17.984  0.00  0.00    +0.000 C 
ATOM      8  C   UNL     1       2.376   4.225  17.322  0.00  0.00    +0.000 C 
ATOM      9  O   UNL     1       2.198   2.794  17.280  0.00  0.00    +0.000 OA
ATOM     10  C   UNL     1       3.511   2.575  17.825  0.00  0.00    +0.000 C 
BRANCH   7  11
ATOM     11  C   UNL     1       3.857   4.513  19.466  0.00  0.00    +0.000 C 
BRANCH  11  17
ATOM     12  C   UNL     1       0.767   4.619  20.274  0.00  0.00    +0.000 C 
ATOM     13  N   UNL     1       1.782   3.724  20.761  0.00  0.00    +0.000 N 
ATOM     14  C   UNL     1       1.582   2.785  21.730  0.00  0.00    +0.000 A 
ATOM     15  N   UNL     1       2.694   2.125  21.939  0.00  0.00    +0.000 NA
ATOM     16  N   UNL     1       3.649   2.647  21.103  0.00  0.00    +0.000 NA
ATOM     17  C   UNL     1       3.106   3.627  20.406  0.00  0.00    +0.000 A 
ENDBRANCH  11  17
ENDBRANCH   7  11
ENDBRANCH   1   7
BRANCH   5  18
ATOM     18  N   UNL     1       7.204   7.701  17.138  0.00  0.00    +0.000 N 
ATOM     19  C   UNL     1       8.088   7.950  18.169  0.00  0.00    +0.000 C 
ATOM     20  O   UNL     1       8.592   7.104  18.905  0.00  0.00    +0.000 OA
ATOM     21  H   UNL     1       7.004   8.498  16.541  0.00  0.00    +0.000 HD
BRANCH  19  22
ATOM     22  C   UNL     1       8.420   9.418  18.331  0.00  0.00    +0.000 C 
ATOM     23  C   UNL     1       7.896  10.218  17.393  0.00  0.00    +0.000 C 
ATOM     24  C   UNL     1       8.137  11.678  17.344  0.00  0.00    +0.000 C 
ATOM     25  C   UNL     1       9.062  12.173  18.436  0.00  0.00    +0.000 C 
ATOM     26  C   UNL     1       9.501  11.107  19.412  0.00  0.00    +0.000 C 
ATOM     27  N   UNL     1       9.218   9.841  19.371  0.00  0.00    +0.000 NA
BRANCH  26  28
ATOM     28  C   UNL     1      10.346  11.590  20.537  0.00  0.00    +0.000 C 
ATOM     29  C   UNL     1       9.673  12.162  21.766  0.00  0.00    +0.000 C 
ATOM     30  C   UNL     1      10.459  13.058  20.859  0.00  0.00    +0.000 C 
ENDBRANCH  26  28
ENDBRANCH  19  22
ENDBRANCH   5  18
TORSDOF 6
ENDMDL
MODEL 3
REMARK VINA RESULT:      -8.7      0.971      1.885
REMARK  Name = 
REMARK  7 active torsions:
REMARK  status: ('A' for Active; 'I' for Inactive)
REMARK    1  A    between atoms: C_1  and  N_2
REMARK    2  A    between atoms: C_6  and  C_7
REMARK    3  A    between atoms: C_7  and  C_8
REMARK    4  A    between atoms: C_8  and  C_9
REMARK    5  A    between atoms: C_13  and  N_14
REMARK    6  A    between atoms: C_15  and  C_17
REMARK    7  A    between atoms: C_21  and  C_22
REMARK                            x       y       z     vdW  Elec       q    Type
REMARK                         _______ _______ _______ _____ _____    ______ ____
ROOT
ATOM      1  C   UNL     1       4.808   5.193  17.412  0.00  0.00    +0.000 A 
ATOM      2  C   UNL     1       4.094   3.996  17.199  0.00  0.00    +0.000 A 
ATOM      3  C   UNL     1       2.730   3.903  17.450  0.00  0.00    +0.000 A 
ATOM      4  C   UNL     1       2.041   5.006  17.941  0.00  0.00    +0.000 A 
ATOM      5  C   UNL     1       2.704   6.209  18.189  0.00  0.00    +0.000 A 
ATOM      6  C   UNL     1       4.066   6.302  17.886  0.00  0.00    +0.000 A 
ENDROOT
BRANCH   1   7
ATOM      7  C   UNL     1       6.383   5.283  17.145  0.00  0.00    +0.000 C 
ATOM      8  C   UNL     1       7.011   6.693  16.961  0.00  0.00    +0.000 C 
ATOM      9  O   UNL     1       7.850   6.543  18.124  0.00  0.00    +0.000 OA
ATOM     10  C   UNL     1       7.279   5.256  18.419  0.00  0.00    +0.000 C 
BRANCH   7  11
ATOM     11  C   UNL     1       6.818   4.217  16.122  0.00  0.00    +0.000 C 
BRANCH  11  17
ATOM     12  C   UNL     1       5.521   3.517  13.287  0.00  0.00    +0.000 C 
ATOM     13  N   UNL     1       6.623   4.397  13.565  0.00  0.00    +0.000 N 
ATOM     14  C   UNL     1       7.353   5.045  12.613  0.00  0.00    +0.000 A 
ATOM     15  N   UNL     1       8.275   5.777  13.188  0.00  0.00    +0.000 NA
ATOM     16  N   UNL     1       8.161   5.598  14.543  0.00  0.00    +0.000 NA
ATOM     17  C   UNL     1       7.178   4.748  14.773  0.00  0.00    +0.000 A 
ENDBRANCH  11  17
ENDBRANCH   7  11
ENDBRANCH   1   7
BRANCH   5  18
ATOM     18  N   UNL     1       2.069   7.343  18.742  0.00  0.00    +0.000 N 
ATOM     19  C   UNL     1       2.015   8.591  18.154  0.00  0.00    +0.000 C 
ATOM     20  O   UNL     1       2.489   8.893  17.061  0.00  0.00    +0.000 OA
ATOM     21  H   UNL     1       1.499   7.236  19.576  0.00  0.00    +0.000 HD
BRANCH  19  22
ATOM     22  C   UNL     1       1.280   9.616  18.992  0.00  0.00    +0.000 C 
ATOM     23  C   UNL     1       1.373  10.876  18.545  0.00  0.00    +0.000 C 
ATOM     24  C   UNL     1       0.765  12.032  19.242  0.00  0.00    +0.000 C 
ATOM     25  C   UNL     1       0.057  11.656  20.528  0.00  0.00    +0.000 C 
ATOM     26  C   UNL     1       0.036  10.174  20.817  0.00  0.00    +0.000 C 
ATOM     27  N   UNL     1       0.597   9.230  20.124  0.00  0.00    +0.000 NA
BRANCH  26  28
ATOM     28  C   UNL     1      -0.723   9.779  22.034  0.00  0.00    +0.000 C 
ATOM     29  C   UNL     1      -0.817  10.754  23.188  0.00  0.00    +0.000 C 
ATOM     30  C   UNL     1      -0.021   9.493  23.338  0.00  0.00    +0.000 C 
ENDBRANCH  26  28
ENDBRANCH  19  22
ENDBRANCH   5  18
TORSDOF 6
ENDMDL
MODEL 4
REMARK VINA RESULT:      -8.6      4.033      7.321
REMARK  Name = 
REMARK  7 active torsions:
REMARK  status: ('A' for Active; 'I' for Inactive)
REMARK    1  A    between atoms: C_1  and  N_2
REMARK    2  A    between atoms: C_6  and  C_7
REMARK    3  A    between atoms: C_7  and  C_8
REMARK    4  A    between atoms: C_8  and  C_9
REMARK    5  A    between atoms: C_13  and  N_14
REMARK    6  A    between atoms: C_15  and  C_17
REMARK    7  A    between atoms: C_21  and  C_22
REMARK                            x       y       z     vdW  Elec       q    Type
REMARK                         _______ _______ _______ _____ _____    ______ ____
ROOT
ATOM      1  C   UNL     1       5.147   4.521  17.096  0.00  0.00    +0.000 A 
ATOM      2  C   UNL     1       5.619   3.902  15.922  0.00  0.00    +0.000 A 
ATOM      3  C   UNL     1       6.623   4.470  15.147  0.00  0.00    +0.000 A 
ATOM      4  C   UNL     1       7.175   5.690  15.519  0.00  0.00    +0.000 A 
ATOM      5  C   UNL     1       6.730   6.356  16.662  0.00  0.00    +0.000 A 
ATOM      6  C   UNL     1       5.754   5.749  17.457  0.00  0.00    +0.000 A 
ENDROOT
BRANCH   1   7
ATOM      7  C   UNL     1       3.973   3.872  17.968  0.00  0.00    +0.000 C 
ATOM      8  C   UNL     1       3.807   2.327  17.930  0.00  0.00    +0.000 C 
ATOM      9  O   UNL     1       4.076   2.198  19.342  0.00  0.00    +0.000 OA
ATOM     10  C   UNL     1       4.317   3.611  19.465  0.00  0.00    +0.000 C 
BRANCH   7  11
ATOM     11  C   UNL     1       2.676   4.689  17.818  0.00  0.00    +0.000 C 
BRANCH  11  17
ATOM     12  C   UNL     1       0.999   4.062  20.466  0.00  0.00    +0.000 C 
ATOM     13  N   UNL     1       1.609   5.304  20.075  0.00  0.00    +0.000 N 
ATOM     14  C   UNL     1       1.506   6.469  20.777  0.00  0.00    +0.000 A 
ATOM     15  N   UNL     1       2.182   7.411  20.167  0.00  0.00    +0.000 NA
ATOM     16  N   UNL     1       2.730   6.862  19.035  0.00  0.00    +0.000 NA
ATOM     17  C   UNL     1       2.368   5.595  18.966  0.00  0.00    +0.000 A 
ENDBRANCH  11  17
ENDBRANCH   7  11
ENDBRANCH   1   7
BRANCH   5  18
ATOM     18  N   UNL     1       7.213   7.624  17.057  0.00  0.00    +0.000 N 
ATOM     19  C   UNL     1       8.037   7.861  18.138  0.00  0.00    +0.000 C 
ATOM     20  O   UNL     1       8.489   7.009  18.899  0.00  0.00    +0.000 OA
ATOM     21  H   UNL     1       7.055   8.425  16.452  0.00  0.00    +0.000 HD
BRANCH  19  22
ATOM     22  C   UNL     1       8.375   9.325  18.323  0.00  0.00    +0.000 C 
ATOM     23  C   UNL     1       7.932  10.130  17.349  0.00  0.00    +0.000 C 
ATOM     24  C   UNL     1       8.194  11.588  17.317  0.00  0.00    +0.000 C 
ATOM     25  C   UNL     1       9.041  12.073  18.476  0.00  0.00    +0.000 C 
ATOM     26  C   UNL     1       9.393  11.003  19.482  0.00  0.00    +0.000 C 
ATOM     27  N   UNL     1       9.098   9.740  19.420  0.00  0.00    +0.000 NA
BRANCH  26  28
ATOM     28  C   UNL     1      10.158  11.476  20.666  0.00  0.00    +0.000 C 
ATOM     29  C   UNL     1       9.408  12.111  21.817  0.00  0.00    +0.000 C 
ATOM     30  C   UNL     1      10.313  12.946  20.963  0.00  0.00    +0.000 C 
ENDBRANCH  26  28
ENDBRANCH  19  22
ENDBRANCH   5  18
TORSDOF 6
ENDMDL
MODEL 5
REMARK VINA RESULT:      -8.6      4.036      7.324
REMARK  Name = 
REMARK  7 active torsions:
REMARK  status: ('A' for Active; 'I' for Inactive)
REMARK    1  A    between atoms: C_1  and  N_2
REMARK    2  A    between atoms: C_6  and  C_7
REMARK    3  A    between atoms: C_7  and  C_8
REMARK    4  A    between atoms: C_8  and  C_9
REMARK    5  A    between atoms: C_13  and  N_14
REMARK    6  A    between atoms: C_15  and  C_17
REMARK    7  A    between atoms: C_21  and  C_22
REMARK                            x       y       z     vdW  Elec       q    Type
REMARK                         _______ _______ _______ _____ _____    ______ ____
ROOT
ATOM      1  C   UNL     1       5.114   4.567  17.162  0.00  0.00    +0.000 A 
ATOM      2  C   UNL     1       5.614   3.905  16.023  0.00  0.00    +0.000 A 
ATOM      3  C   UNL     1       6.647   4.437  15.261  0.00  0.00    +0.000 A 
ATOM      4  C   UNL     1       7.200   5.664  15.609  0.00  0.00    +0.000 A 
ATOM      5  C   UNL     1       6.729   6.371  16.716  0.00  0.00    +0.000 A 
ATOM      6  C   UNL     1       5.722   5.801  17.501  0.00  0.00    +0.000 A 
ENDROOT
BRANCH   1   7
ATOM      7  C   UNL     1       3.907   3.958  18.018  0.00  0.00    +0.000 C 
ATOM      8  C   UNL     1       3.744   2.413  18.050  0.00  0.00    +0.000 C 
ATOM      9  O   UNL     1       3.958   2.355  19.476  0.00  0.00    +0.000 OA
ATOM     10  C   UNL     1       4.193   3.772  19.538  0.00  0.00    +0.000 C 
BRANCH   7  11
ATOM     11  C   UNL     1       2.616   4.764  17.778  0.00  0.00    +0.000 C 
BRANCH  11  17
ATOM     12  C   UNL     1       2.885   7.947  17.859  0.00  0.00    +0.000 C 
ATOM     13  N   UNL     1       2.412   7.070  18.895  0.00  0.00    +0.000 N 
ATOM     14  C   UNL     1       2.050   7.477  20.145  0.00  0.00    +0.000 A 
ATOM     15  N   UNL     1       1.654   6.444  20.847  0.00  0.00    +0.000 NA
ATOM     16  N   UNL     1       1.770   5.333  20.051  0.00  0.00    +0.000 NA
ATOM     17  C   UNL     1       2.248   5.705  18.878  0.00  0.00    +0.000 A 
ENDBRANCH  11  17
ENDBRANCH   7  11
ENDBRANCH   1   7
BRANCH   5  18
ATOM     18  N   UNL     1       7.213   7.647  17.083  0.00  0.00    +0.000 N 
ATOM     19  C   UNL     1       8.050   7.904  18.149  0.00  0.00    +0.000 C 
ATOM     20  O   UNL     1       8.515   7.065  18.919  0.00  0.00    +0.000 OA
ATOM     21  H   UNL     1       7.045   8.437  16.468  0.00  0.00    +0.000 HD
BRANCH  19  22
ATOM     22  C   UNL     1       8.386   9.372  18.307  0.00  0.00    +0.000 C 
ATOM     23  C   UNL     1       7.820  10.177  17.398  0.00  0.00    +0.000 C 
ATOM     24  C   UNL     1       8.055  11.638  17.348  0.00  0.00    +0.000 C 
ATOM     25  C   UNL     1       9.025  12.128  18.403  0.00  0.00    +0.000 C 
ATOM     26  C   UNL     1       9.509  11.057  19.352  0.00  0.00    +0.000 C 
ATOM     27  N   UNL     1       9.227   9.790  19.315  0.00  0.00    +0.000 NA
BRANCH  26  28
ATOM     28  C   UNL     1      10.400  11.534  20.442  0.00  0.00    +0.000 C 
ATOM     29  C   UNL     1       9.805  12.340  21.576  0.00  0.00    +0.000 C 
ATOM     30  C   UNL     1      10.733  12.996  20.600  0.00  0.00    +0.000 C 
ENDBRANCH  26  28
ENDBRANCH  19  22
ENDBRANCH   5  18
TORSDOF 6
ENDMDL
MODEL 6
REMARK VINA RESULT:      -8.6      1.132      1.252
REMARK  Name = 
REMARK  7 active torsions:
REMARK  status: ('A' for Active; 'I' for Inactive)
REMARK    1  A    between atoms: C_1  and  N_2
REMARK    2  A    between atoms: C_6  and  C_7
REMARK    3  A    between atoms: C_7  and  C_8
REMARK    4  A    between atoms: C_8  and  C_9
REMARK    5  A    between atoms: C_13  and  N_14
REMARK    6  A    between atoms: C_15  and  C_17
REMARK    7  A    between atoms: C_21  and  C_22
REMARK                            x       y       z     vdW  Elec       q    Type
REMARK                         _______ _______ _______ _____ _____    ______ ____
ROOT
ATOM      1  C   UNL     1       4.645   5.258  17.424  0.00  0.00    +0.000 A 
ATOM      2  C   UNL     1       3.854   4.129  17.131  0.00  0.00    +0.000 A 
ATOM      3  C   UNL     1       2.502   4.080  17.446  0.00  0.00    +0.000 A 
ATOM      4  C   UNL     1       1.903   5.160  18.083  0.00  0.00    +0.000 A 
ATOM      5  C   UNL     1       2.644   6.296  18.414  0.00  0.00    +0.000 A 
ATOM      6  C   UNL     1       3.992   6.349  18.047  0.00  0.00    +0.000 A 
ENDROOT
BRANCH   1   7
ATOM      7  C   UNL     1       6.208   5.294  17.080  0.00  0.00    +0.000 C 
ATOM      8  C   UNL     1       6.876   6.682  16.873  0.00  0.00    +0.000 C 
ATOM      9  O   UNL     1       7.765   6.493  17.994  0.00  0.00    +0.000 OA
ATOM     10  C   UNL     1       7.164   5.225  18.308  0.00  0.00    +0.000 C 
BRANCH   7  11
ATOM     11  C   UNL     1       6.553   4.220  16.032  0.00  0.00    +0.000 C 
BRANCH  11  17
ATOM     12  C   UNL     1       5.611   3.519  13.060  0.00  0.00    +0.000 C 
ATOM     13  N   UNL     1       6.672   4.399  13.470  0.00  0.00    +0.000 N 
ATOM     14  C   UNL     1       7.512   5.046  12.613  0.00  0.00    +0.000 A 
ATOM     15  N   UNL     1       8.358   5.778  13.295  0.00  0.00    +0.000 NA
ATOM     16  N   UNL     1       8.079   5.600  14.627  0.00  0.00    +0.000 NA
ATOM     17  C   UNL     1       7.075   4.751  14.736  0.00  0.00    +0.000 A 
ENDBRANCH  11  17
ENDBRANCH   7  11
ENDBRANCH   1   7
BRANCH   5  18
ATOM     18  N   UNL     1       2.103   7.399  19.112  0.00  0.00    +0.000 N 
ATOM     19  C   UNL     1       1.557   7.348  20.379  0.00  0.00    +0.000 C 
ATOM     20  O   UNL     1       1.483   6.350  21.091  0.00  0.00    +0.000 OA
ATOM     21  H   UNL     1       2.215   8.332  18.729  0.00  0.00    +0.000 HD
BRANCH  19  22
ATOM     22  C   UNL     1       1.040   8.687  20.861  0.00  0.00    +0.000 C 
ATOM     23  C   UNL     1       0.263   8.627  21.951  0.00  0.00    +0.000 C 
ATOM     24  C   UNL     1      -0.380   9.816  22.556  0.00  0.00    +0.000 C 
ATOM     25  C   UNL     1      -0.100  11.101  21.804  0.00  0.00    +0.000 C 
ATOM     26  C   UNL     1       0.837  10.945  20.629  0.00  0.00    +0.000 C 
ATOM     27  N   UNL     1       1.362   9.843  20.185  0.00  0.00    +0.000 NA
BRANCH  26  28
ATOM     28  C   UNL     1       1.185  12.208  19.927  0.00  0.00    +0.000 C 
ATOM     29  C   UNL     1       0.305  12.682  18.791  0.00  0.00    +0.000 C 
ATOM     30  C   UNL     1       1.695  12.202  18.508  0.00  0.00    +0.000 C 
ENDBRANCH  26  28
ENDBRANCH  19  22
ENDBRANCH   5  18
TORSDOF 6
ENDMDL
MODEL 7
REMARK VINA RESULT:      -8.5      2.649      3.925
REMARK  Name = 
REMARK  7 active torsions:
REMARK  status: ('A' for Active; 'I' for Inactive)
REMARK    1  A    between atoms: C_1  and  N_2
REMARK    2  A    between atoms: C_6  and  C_7
REMARK    3  A    between atoms: C_7  and  C_8
REMARK    4  A    between atoms: C_8  and  C_9
REMARK    5  A    between atoms: C_13  and  N_14
REMARK    6  A    between atoms: C_15  and  C_17
REMARK    7  A    between atoms: C_21  and  C_22
REMARK                            x       y       z     vdW  Elec       q    Type
REMARK                         _______ _______ _______ _____ _____    ______ ____
ROOT
ATOM      1  C   UNL     1       3.139   5.565  18.509  0.00  0.00    +0.000 A 
ATOM      2  C   UNL     1       3.662   6.161  17.344  0.00  0.00    +0.000 A 
ATOM      3  C   UNL     1       3.496   7.514  17.075  0.00  0.00    +0.000 A 
ATOM      4  C   UNL     1       2.782   8.311  17.962  0.00  0.00    +0.000 A 
ATOM      5  C   UNL     1       2.225   7.768  19.121  0.00  0.00    +0.000 A 
ATOM      6  C   UNL     1       2.441   6.415  19.401  0.00  0.00    +0.000 A 
ENDROOT
BRANCH   1   7
ATOM      7  C   UNL     1       3.313   4.001  18.796  0.00  0.00    +0.000 C 
ATOM      8  C   UNL     1       2.898   3.467  20.196  0.00  0.00    +0.000 C 
ATOM      9  O   UNL     1       1.877   2.613  19.641  0.00  0.00    +0.000 OA
ATOM     10  C   UNL     1       2.139   3.097  18.312  0.00  0.00    +0.000 C 
BRANCH   7  11
ATOM     11  C   UNL     1       4.669   3.503  18.264  0.00  0.00    +0.000 C 
BRANCH  11  17
ATOM     12  C   UNL     1       7.034   4.545  16.384  0.00  0.00    +0.000 C 
ATOM     13  N   UNL     1       6.862   4.759  17.796  0.00  0.00    +0.000 N 
ATOM     14  C   UNL     1       7.755   5.415  18.591  0.00  0.00    +0.000 A 
ATOM     15  N   UNL     1       7.304   5.453  19.821  0.00  0.00    +0.000 NA
ATOM     16  N   UNL     1       6.098   4.798  19.840  0.00  0.00    +0.000 NA
ATOM     17  C   UNL     1       5.839   4.359  18.623  0.00  0.00    +0.000 A 
ENDBRANCH  11  17
ENDBRANCH   7  11
ENDBRANCH   1   7
BRANCH   5  18
ATOM     18  N   UNL     1       1.441   8.516  20.028  0.00  0.00    +0.000 N 
ATOM     19  C   UNL     1       0.622   9.573  19.688  0.00  0.00    +0.000 C 
ATOM     20  O   UNL     1       0.437  10.004  18.551  0.00  0.00    +0.000 OA
ATOM     21  H   UNL     1       1.362   8.203  20.991  0.00  0.00    +0.000 HD
BRANCH  19  22
ATOM     22  C   UNL     1      -0.081  10.193  20.877  0.00  0.00    +0.000 C 
ATOM     23  C   UNL     1       0.055   9.514  22.024  0.00  0.00    +0.000 C 
ATOM     24  C   UNL     1      -0.590   9.926  23.292  0.00  0.00    +0.000 C 
ATOM     25  C   UNL     1      -1.445  11.169  23.157  0.00  0.00    +0.000 C 
ATOM     26  C   UNL     1      -1.420  11.798  21.784  0.00  0.00    +0.000 C 
ATOM     27  N   UNL     1      -0.803  11.357  20.730  0.00  0.00    +0.000 NA
BRANCH  26  28
ATOM     28  C   UNL     1      -2.191  13.063  21.655  0.00  0.00    +0.000 C 
ATOM     29  C   UNL     1      -1.530  14.367  22.043  0.00  0.00    +0.000 C 
ATOM     30  C   UNL     1      -2.657  13.825  22.869  0.00  0.00    +0.000 C 
ENDBRANCH  26  28
ENDBRANCH  19  22
ENDBRANCH   5  18
TORSDOF 6
ENDMDL
MODEL 8
REMARK VINA RESULT:      -8.4      2.928      9.270
REMARK  Name = 
REMARK  7 active torsions:
REMARK  status: ('A' for Active; 'I' for Inactive)
REMARK    1  A    between atoms: C_1  and  N_2
REMARK    2  A    between atoms: C_6  and  C_7
REMARK    3  A    between atoms: C_7  and  C_8
REMARK    4  A    between atoms: C_8  and  C_9
REMARK    5  A    between atoms: C_13  and  N_14
REMARK    6  A    between atoms: C_15  and  C_17
REMARK    7  A    between atoms: C_21  and  C_22
REMARK                            x       y       z     vdW  Elec       q    Type
REMARK                         _______ _______ _______ _____ _____    ______ ____
ROOT
ATOM      1  C   UNL     1      -0.302  10.174  20.179  0.00  0.00    +0.000 A 
ATOM      2  C   UNL     1      -0.171  10.231  21.581  0.00  0.00    +0.000 A 
ATOM      3  C   UNL     1       0.754   9.449  22.262  0.00  0.00    +0.000 A 
ATOM      4  C   UNL     1       1.567   8.569  21.557  0.00  0.00    +0.000 A 
ATOM      5  C   UNL     1       1.464   8.459  20.169  0.00  0.00    +0.000 A 
ATOM      6  C   UNL     1       0.563   9.286  19.493  0.00  0.00    +0.000 A 
ENDROOT
BRANCH   1   7
ATOM      7  C   UNL     1      -1.388  11.059  19.406  0.00  0.00    +0.000 C 
ATOM      8  C   UNL     1      -1.891  12.359  20.094  0.00  0.00    +0.000 C 
ATOM      9  O   UNL     1      -1.376  13.196  19.038  0.00  0.00    +0.000 OA
ATOM     10  C   UNL     1      -0.812  12.060  18.360  0.00  0.00    +0.000 C 
BRANCH   7  11
ATOM     11  C   UNL     1      -2.477  10.161  18.791  0.00  0.00    +0.000 C 
BRANCH  11  17
ATOM     12  C   UNL     1      -4.816  11.909  17.492  0.00  0.00    +0.000 C 
ATOM     13  N   UNL     1      -3.802  11.144  16.819  0.00  0.00    +0.000 N 
ATOM     14  C   UNL     1      -3.720  10.992  15.466  0.00  0.00    +0.000 A 
ATOM     15  N   UNL     1      -2.681  10.251  15.169  0.00  0.00    +0.000 NA
ATOM     16  N   UNL     1      -2.075   9.896  16.347  0.00  0.00    +0.000 NA
ATOM     17  C   UNL     1      -2.762  10.416  17.346  0.00  0.00    +0.000 A 
ENDBRANCH  11  17
ENDBRANCH   7  11
ENDBRANCH   1   7
BRANCH   5  18
ATOM     18  N   UNL     1       2.222   7.541  19.407  0.00  0.00    +0.000 N 
ATOM     19  C   UNL     1       2.299   6.184  19.643  0.00  0.00    +0.000 C 
ATOM     20  O   UNL     1       1.706   5.572  20.529  0.00  0.00    +0.000 OA
ATOM     21  H   UNL     1       2.660   7.854  18.546  0.00  0.00    +0.000 HD
BRANCH  19  22
ATOM     22  C   UNL     1       3.205   5.458  18.671  0.00  0.00    +0.000 C 
ATOM     23  C   UNL     1       2.640   4.412  18.053  0.00  0.00    +0.000 C 
ATOM     24  C   UNL     1       3.367   3.543  17.099  0.00  0.00    +0.000 C 
ATOM     25  C   UNL     1       4.820   3.930  16.918  0.00  0.00    +0.000 C 
ATOM     26  C   UNL     1       5.235   5.169  17.677  0.00  0.00    +0.000 C 
ATOM     27  N   UNL     1       4.505   5.874  18.487  0.00  0.00    +0.000 NA
BRANCH  26  28
ATOM     28  C   UNL     1       6.636   5.610  17.449  0.00  0.00    +0.000 C 
ATOM     29  C   UNL     1       7.767   4.795  18.039  0.00  0.00    +0.000 C 
ATOM     30  C   UNL     1       7.477   6.166  18.570  0.00  0.00    +0.000 C 
ENDBRANCH  26  28
ENDBRANCH  19  22
ENDBRANCH   5  18
TORSDOF 6
ENDMDL
MODEL 9
REMARK VINA RESULT:      -8.4      3.374     10.140
REMARK  Name = 
REMARK  7 active torsions:
REMARK  status: ('A' for Active; 'I' for Inactive)
REMARK    1  A    between atoms: C_1  and  N_2
REMARK    2  A    between atoms: C_6  and  C_7
REMARK    3  A    between atoms: C_7  and  C_8
REMARK    4  A    between atoms: C_8  and  C_9
REMARK    5  A    between atoms: C_13  and  N_14
REMARK    6  A    between atoms: C_15  and  C_17
REMARK    7  A    between atoms: C_21  and  C_22
REMARK                            x       y       z     vdW  Elec       q    Type
REMARK                         _______ _______ _______ _____ _____    ______ ____
ROOT
ATOM      1  C   UNL     1      -1.120  10.419  17.801  0.00  0.00    +0.000 A 
ATOM      2  C   UNL     1      -0.797  11.379  18.781  0.00  0.00    +0.000 A 
ATOM      3  C   UNL     1       0.436  11.385  19.422  0.00  0.00    +0.000 A 
ATOM      4  C   UNL     1       1.379  10.412  19.112  0.00  0.00    +0.000 A 
ATOM      5  C   UNL     1       1.103   9.426  18.163  0.00  0.00    +0.000 A 
ATOM      6  C   UNL     1      -0.122   9.463  17.492  0.00  0.00    +0.000 A 
ENDROOT
BRANCH   1   7
ATOM      7  C   UNL     1      -2.552  10.406  17.086  0.00  0.00    +0.000 C 
ATOM      8  C   UNL     1      -2.854  11.516  16.040  0.00  0.00    +0.000 C 
ATOM      9  O   UNL     1      -3.009  10.559  14.972  0.00  0.00    +0.000 OA
ATOM     10  C   UNL     1      -2.672   9.469  15.847  0.00  0.00    +0.000 C 
BRANCH   7  11
ATOM     11  C   UNL     1      -3.665  10.133  18.114  0.00  0.00    +0.000 C 
BRANCH  11  17
ATOM     12  C   UNL     1      -3.813  12.647  20.081  0.00  0.00    +0.000 C 
ATOM     13  N   UNL     1      -4.769  12.241  19.086  0.00  0.00    +0.000 N 
ATOM     14  C   UNL     1      -5.964  12.860  18.866  0.00  0.00    +0.000 A 
ATOM     15  N   UNL     1      -6.597  12.260  17.888  0.00  0.00    +0.000 NA
ATOM     16  N   UNL     1      -5.811  11.218  17.465  0.00  0.00    +0.000 NA
ATOM     17  C   UNL     1      -4.716  11.191  18.201  0.00  0.00    +0.000 A 
ENDBRANCH  11  17
ENDBRANCH   7  11
ENDBRANCH   1   7
BRANCH   5  18
ATOM     18  N   UNL     1       2.000   8.380  17.850  0.00  0.00    +0.000 N 
ATOM     19  C   UNL     1       2.394   7.383  18.719  0.00  0.00    +0.000 C 
ATOM     20  O   UNL     1       2.010   7.244  19.878  0.00  0.00    +0.000 OA
ATOM     21  H   UNL     1       2.303   8.258  16.888  0.00  0.00    +0.000 HD
BRANCH  19  22
ATOM     22  C   UNL     1       3.379   6.410  18.106  0.00  0.00    +0.000 C 
ATOM     23  C   UNL     1       2.871   5.204  17.820  0.00  0.00    +0.000 C 
ATOM     24  C   UNL     1       3.677   4.096  17.257  0.00  0.00    +0.000 C 
ATOM     25  C   UNL     1       5.138   4.448  17.070  0.00  0.00    +0.000 C 
ATOM     26  C   UNL     1       5.485   5.877  17.415  0.00  0.00    +0.000 C 
ATOM     27  N   UNL     1       4.689   6.784  17.895  0.00  0.00    +0.000 NA
BRANCH  26  28
ATOM     28  C   UNL     1       6.898   6.263  17.163  0.00  0.00    +0.000 C 
ATOM     29  C   UNL     1       7.822   6.479  18.342  0.00  0.00    +0.000 C 
ATOM     30  C   UNL     1       7.406   7.643  17.495  0.00  0.00    +0.000 C 
ENDBRANCH  26  28
ENDBRANCH  19  22
ENDBRANCH   5  18
TORSDOF 6
ENDMDL
