MODEL 1
REMARK VINA RESULT:      -8.5      0.000      0.000
REMARK  Name = 
REMARK  3 active torsions:
REMARK  status: ('A' for Active; 'I' for Inactive)
REMARK    1  A    between atoms: C_2  and  C_3
REMARK    2  A    between atoms: C_3  and  N_4
REMARK    3  A    between atoms: N_18  and  C_19
REMARK                            x       y       z     vdW  Elec       q    Type
REMARK                         _______ _______ _______ _____ _____    ______ ____
ROOT
ATOM      1  C   UNL     1       3.321   4.166  20.304  0.00  0.00    +0.000 C 
ENDROOT
BRANCH   1   2
ATOM      2  N   UNL     1       4.030   4.156  19.045  0.00  0.00    +0.000 N 
ATOM      3  C   UNL     1       5.313   4.736  18.694  0.00  0.00    +0.000 A 
ATOM      4  C   UNL     1       6.174   5.436  19.533  0.00  0.00    +0.000 A 
ATOM      5  C   UNL     1       7.373   5.919  18.973  0.00  0.00    +0.000 A 
ATOM      6  C   UNL     1       7.708   5.704  17.626  0.00  0.00    +0.000 A 
ATOM      7  C   UNL     1       6.832   4.988  16.787  0.00  0.00    +0.000 A 
ATOM      8  C   UNL     1       7.060   4.701  15.431  0.00  0.00    +0.000 A 
ATOM      9  C   UNL     1       6.109   3.968  14.694  0.00  0.00    +0.000 A 
ATOM     10  C   UNL     1       4.917   3.513  15.274  0.00  0.00    +0.000 A 
ATOM     11  C   UNL     1       4.724   3.821  16.613  0.00  0.00    +0.000 A 
ATOM     12  C   UNL     1       5.660   4.533  17.348  0.00  0.00    +0.000 A 
ATOM     13  S   UNL     1       3.391   3.414  17.686  0.00  0.00    +0.000 S 
ATOM     14  O   UNL     1       3.485   1.980  17.684  0.00  0.00    +0.000 OA
ATOM     15  O   UNL     1       2.326   4.191  17.092  0.00  0.00    +0.000 OA
ENDBRANCH   1   2
BRANCH   1  17
ATOM     16  O   UNL     1       1.070   4.863  20.564  0.00  0.00    +0.000 OA
ATOM     17  C   UNL     1       2.234   5.217  20.345  0.00  0.00    +0.000 C 
ATOM     18  N   UNL     1       2.656   6.522  20.144  0.00  0.00    +0.000 N 
ATOM     19  H   UNL     1       3.644   6.719  20.308  0.00  0.00    +0.000 HD
BRANCH  18  20
ATOM     20  C   UNL     1       1.786   7.642  20.225  0.00  0.00    +0.000 A 
ATOM     21  C   UNL     1       1.195   8.036  21.447  0.00  0.00    +0.000 A 
ATOM     22  C   UNL     1       0.717   9.333  21.632  0.00  0.00    +0.000 A 
ATOM     23  C   UNL     1       0.790  10.177  20.555  0.00  0.00    +0.000 A 
ATOM     24  C   UNL     1       1.175   9.731  19.308  0.00  0.00    +0.000 A 
ATOM     25  C   UNL     1       1.649   8.455  19.097  0.00  0.00    +0.000 A 
ATOM     26  O   UNL     1       1.190  10.742  18.392  0.00  0.00    +0.000 OA
ATOM     27  C   UNL     1       1.191  11.862  19.300  0.00  0.00    +0.000 C 
ATOM     28  O   UNL     1       0.610  11.527  20.577  0.00  0.00    +0.000 OA
ENDBRANCH  18  20
ENDBRANCH   1  17
TORSDOF 3
ENDMDL
MODEL 2
REMARK VINA RESULT:      -8.1      2.999      7.888
REMARK  Name = 
REMARK  3 active torsions:
REMARK  status: ('A' for Active; 'I' for Inactive)
REMARK    1  A    between atoms: C_2  and  C_3
REMARK    2  A    between atoms: C_3  and  N_4
REMARK    3  A    between atoms: N_18  and  C_19
REMARK                            x       y       z     vdW  Elec       q    Type
REMARK                         _______ _______ _______ _____ _____    ______ ____
ROOT
ATOM      1  C   UNL     1       5.492   6.559  17.523  0.00  0.00    +0.000 C 
ENDROOT
BRANCH   1   2
ATOM      2  N   UNL     1       4.580   5.697  18.238  0.00  0.00    +0.000 N 
ATOM      3  C   UNL     1       3.424   6.033  19.051  0.00  0.00    +0.000 A 
ATOM      4  C   UNL     1       2.922   7.304  19.308  0.00  0.00    +0.000 A 
ATOM      5  C   UNL     1       1.786   7.395  20.137  0.00  0.00    +0.000 A 
ATOM      6  C   UNL     1       1.166   6.259  20.683  0.00  0.00    +0.000 A 
ATOM      7  C   UNL     1       1.680   4.976  20.410  0.00  0.00    +0.000 A 
ATOM      8  C   UNL     1       1.144   3.769  20.888  0.00  0.00    +0.000 A 
ATOM      9  C   UNL     1       1.744   2.542  20.541  0.00  0.00    +0.000 A 
ATOM     10  C   UNL     1       2.884   2.483  19.727  0.00  0.00    +0.000 A 
ATOM     11  C   UNL     1       3.388   3.695  19.280  0.00  0.00    +0.000 A 
ATOM     12  C   UNL     1       2.797   4.906  19.609  0.00  0.00    +0.000 A 
ATOM     13  S   UNL     1       4.764   4.032  18.237  0.00  0.00    +0.000 S 
ATOM     14  O   UNL     1       4.341   3.381  17.028  0.00  0.00    +0.000 OA
ATOM     15  O   UNL     1       5.853   3.605  19.089  0.00  0.00    +0.000 OA
ENDBRANCH   1   2
BRANCH   1  17
ATOM     16  O   UNL     1       4.850   7.071  15.299  0.00  0.00    +0.000 OA
ATOM     17  C   UNL     1       5.481   6.301  16.033  0.00  0.00    +0.000 C 
ATOM     18  N   UNL     1       6.213   5.202  15.611  0.00  0.00    +0.000 N 
ATOM     19  H   UNL     1       6.939   4.861  16.242  0.00  0.00    +0.000 HD
BRANCH  18  20
ATOM     20  C   UNL     1       6.377   4.856  14.243  0.00  0.00    +0.000 A 
ATOM     21  C   UNL     1       7.512   5.263  13.505  0.00  0.00    +0.000 A 
ATOM     22  C   UNL     1       7.896   4.593  12.344  0.00  0.00    +0.000 A 
ATOM     23  C   UNL     1       7.085   3.571  11.925  0.00  0.00    +0.000 A 
ATOM     24  C   UNL     1       5.873   3.311  12.529  0.00  0.00    +0.000 A 
ATOM     25  C   UNL     1       5.469   3.959  13.676  0.00  0.00    +0.000 A 
ATOM     26  O   UNL     1       5.243   2.243  11.961  0.00  0.00    +0.000 OA
ATOM     27  C   UNL     1       6.369   1.664  11.273  0.00  0.00    +0.000 C 
ATOM     28  O   UNL     1       7.387   2.642  10.975  0.00  0.00    +0.000 OA
ENDBRANCH  18  20
ENDBRANCH   1  17
TORSDOF 3
ENDMDL
MODEL 3
REMARK VINA RESULT:      -8.0      3.420      8.815
REMARK  Name = 
REMARK  3 active torsions:
REMARK  status: ('A' for Active; 'I' for Inactive)
REMARK    1  A    between atoms: C_2  and  C_3
REMARK    2  A    between atoms: C_3  and  N_4
REMARK    3  A    between atoms: N_18  and  C_19
REMARK                            x       y       z     vdW  Elec       q    Type
REMARK                         _______ _______ _______ _____ _____    ______ ____
ROOT
ATOM      1  C   UNL     1       1.876   9.930  18.174  0.00  0.00    +0.000 C 
ENDROOT
BRANCH   1   2
ATOM      2  N   UNL     1       0.772  10.664  18.746  0.00  0.00    +0.000 N 
ATOM      3  C   UNL     1      -0.637  10.652  18.393  0.00  0.00    +0.000 A 
ATOM      4  C   UNL     1      -1.246   9.888  17.404  0.00  0.00    +0.000 A 
ATOM      5  C   UNL     1      -2.635  10.043  17.230  0.00  0.00    +0.000 A 
ATOM      6  C   UNL     1      -3.394  10.922  18.020  0.00  0.00    +0.000 A 
ATOM      7  C   UNL     1      -2.767  11.687  19.024  0.00  0.00    +0.000 A 
ATOM      8  C   UNL     1      -3.418  12.589  19.881  0.00  0.00    +0.000 A 
ATOM      9  C   UNL     1      -2.682  13.294  20.855  0.00  0.00    +0.000 A 
ATOM     10  C   UNL     1      -1.297  13.131  20.995  0.00  0.00    +0.000 A 
ATOM     11  C   UNL     1      -0.689  12.237  20.126  0.00  0.00    +0.000 A 
ATOM     12  C   UNL     1      -1.408  11.531  19.172  0.00  0.00    +0.000 A 
ATOM     13  S   UNL     1       0.996  11.746  20.004  0.00  0.00    +0.000 S 
ATOM     14  O   UNL     1       1.184  11.139  21.293  0.00  0.00    +0.000 OA
ATOM     15  O   UNL     1       1.600  12.983  19.558  0.00  0.00    +0.000 OA
ENDBRANCH   1   2
BRANCH   1  17
ATOM     16  O   UNL     1       1.392   8.251  19.775  0.00  0.00    +0.000 OA
ATOM     17  C   UNL     1       1.982   8.526  18.724  0.00  0.00    +0.000 C 
ATOM     18  N   UNL     1       2.740   7.643  17.969  0.00  0.00    +0.000 N 
ATOM     19  H   UNL     1       2.886   7.882  16.988  0.00  0.00    +0.000 HD
BRANCH  18  20
ATOM     20  C   UNL     1       2.884   6.267  18.293  0.00  0.00    +0.000 A 
ATOM     21  C   UNL     1       3.750   5.835  19.324  0.00  0.00    +0.000 A 
ATOM     22  C   UNL     1       3.581   4.592  19.932  0.00  0.00    +0.000 A 
ATOM     23  C   UNL     1       2.584   3.792  19.437  0.00  0.00    +0.000 A 
ATOM     24  C   UNL     1       1.879   4.131  18.302  0.00  0.00    +0.000 A 
ATOM     25  C   UNL     1       2.027   5.351  17.680  0.00  0.00    +0.000 A 
ATOM     26  O   UNL     1       0.928   3.201  18.001  0.00  0.00    +0.000 OA
ATOM     27  C   UNL     1       0.865   2.530  19.275  0.00  0.00    +0.000 C 
ATOM     28  O   UNL     1       2.093   2.664  20.021  0.00  0.00    +0.000 OA
ENDBRANCH  18  20
ENDBRANCH   1  17
TORSDOF 3
ENDMDL
MODEL 4
REMARK VINA RESULT:      -7.8      3.726      9.049
REMARK  Name = 
REMARK  3 active torsions:
REMARK  status: ('A' for Active; 'I' for Inactive)
REMARK    1  A    between atoms: C_2  and  C_3
REMARK    2  A    between atoms: C_3  and  N_4
REMARK    3  A    between atoms: N_18  and  C_19
REMARK                            x       y       z     vdW  Elec       q    Type
REMARK                         _______ _______ _______ _____ _____    ______ ____
ROOT
ATOM      1  C   UNL     1       1.283  10.239  18.878  0.00  0.00    +0.000 C 
ENDROOT
BRANCH   1   2
ATOM      2  N   UNL     1      -0.015  10.823  19.126  0.00  0.00    +0.000 N 
ATOM      3  C   UNL     1      -1.265  10.655  18.406  0.00  0.00    +0.000 A 
ATOM      4  C   UNL     1      -1.489   9.850  17.294  0.00  0.00    +0.000 A 
ATOM      5  C   UNL     1      -2.788   9.845  16.750  0.00  0.00    +0.000 A 
ATOM      6  C   UNL     1      -3.832  10.608  17.301  0.00  0.00    +0.000 A 
ATOM      7  C   UNL     1      -3.594  11.415  18.431  0.00  0.00    +0.000 A 
ATOM      8  C   UNL     1      -4.555  12.212  19.075  0.00  0.00    +0.000 A 
ATOM      9  C   UNL     1      -4.199  12.974  20.206  0.00  0.00    +0.000 A 
ATOM     10  C   UNL     1      -2.893  12.971  20.715  0.00  0.00    +0.000 A 
ATOM     11  C   UNL     1      -1.971  12.177  20.049  0.00  0.00    +0.000 A 
ATOM     12  C   UNL     1      -2.316  11.416  18.942  0.00  0.00    +0.000 A 
ATOM     13  S   UNL     1      -0.269  11.891  20.391  0.00  0.00    +0.000 S 
ATOM     14  O   UNL     1      -0.363  11.277  21.687  0.00  0.00    +0.000 OA
ATOM     15  O   UNL     1       0.280  13.201  20.115  0.00  0.00    +0.000 OA
ENDBRANCH   1   2
BRANCH   1  17
ATOM     16  O   UNL     1       0.822   8.581  20.509  0.00  0.00    +0.000 OA
ATOM     17  C   UNL     1       1.407   8.845  19.452  0.00  0.00    +0.000 C 
ATOM     18  N   UNL     1       2.174   7.960  18.711  0.00  0.00    +0.000 N 
ATOM     19  H   UNL     1       2.316   8.184  17.726  0.00  0.00    +0.000 HD
BRANCH  18  20
ATOM     20  C   UNL     1       2.336   6.591  19.058  0.00  0.00    +0.000 A 
ATOM     21  C   UNL     1       2.514   6.182  20.399  0.00  0.00    +0.000 A 
ATOM     22  C   UNL     1       2.240   4.874  20.796  0.00  0.00    +0.000 A 
ATOM     23  C   UNL     1       1.856   3.998  19.814  0.00  0.00    +0.000 A 
ATOM     24  C   UNL     1       1.883   4.347  18.480  0.00  0.00    +0.000 A 
ATOM     25  C   UNL     1       2.152   5.631  18.060  0.00  0.00    +0.000 A 
ATOM     26  O   UNL     1       1.447   3.330  17.682  0.00  0.00    +0.000 OA
ATOM     27  C   UNL     1       0.781   2.535  18.684  0.00  0.00    +0.000 C 
ATOM     28  O   UNL     1       1.318   2.761  20.004  0.00  0.00    +0.000 OA
ENDBRANCH  18  20
ENDBRANCH   1  17
TORSDOF 3
ENDMDL
MODEL 5
REMARK VINA RESULT:      -7.8      4.886      6.564
REMARK  Name = 
REMARK  3 active torsions:
REMARK  status: ('A' for Active; 'I' for Inactive)
REMARK    1  A    between atoms: C_2  and  C_3
REMARK    2  A    between atoms: C_3  and  N_4
REMARK    3  A    between atoms: N_18  and  C_19
REMARK                            x       y       z     vdW  Elec       q    Type
REMARK                         _______ _______ _______ _____ _____    ______ ____
ROOT
ATOM      1  C   UNL     1       7.207   6.956  16.584  0.00  0.00    +0.000 C 
ENDROOT
BRANCH   1   2
ATOM      2  N   UNL     1       6.113   6.161  17.092  0.00  0.00    +0.000 N 
ATOM      3  C   UNL     1       4.764   6.557  17.455  0.00  0.00    +0.000 A 
ATOM      4  C   UNL     1       4.214   7.831  17.370  0.00  0.00    +0.000 A 
ATOM      5  C   UNL     1       2.877   7.988  17.787  0.00  0.00    +0.000 A 
ATOM      6  C   UNL     1       2.112   6.911  18.263  0.00  0.00    +0.000 A 
ATOM      7  C   UNL     1       2.678   5.622  18.338  0.00  0.00    +0.000 A 
ATOM      8  C   UNL     1       2.013   4.469  18.785  0.00  0.00    +0.000 A 
ATOM      9  C   UNL     1       2.684   3.231  18.809  0.00  0.00    +0.000 A 
ATOM     10  C   UNL     1       4.020   3.108  18.403  0.00  0.00    +0.000 A 
ATOM     11  C   UNL     1       4.645   4.269  17.974  0.00  0.00    +0.000 A 
ATOM     12  C   UNL     1       3.988   5.490  17.938  0.00  0.00    +0.000 A 
ATOM     13  S   UNL     1       6.279   4.518  17.372  0.00  0.00    +0.000 S 
ATOM     14  O   UNL     1       6.249   3.700  16.191  0.00  0.00    +0.000 OA
ATOM     15  O   UNL     1       7.046   4.245  18.569  0.00  0.00    +0.000 OA
ENDBRANCH   1   2
BRANCH   1  17
ATOM     16  O   UNL     1       8.237   7.351  18.683  0.00  0.00    +0.000 OA
ATOM     17  C   UNL     1       7.804   7.858  17.642  0.00  0.00    +0.000 C 
ATOM     18  N   UNL     1       7.827   9.209  17.330  0.00  0.00    +0.000 N 
ATOM     19  H   UNL     1       7.760   9.457  16.343  0.00  0.00    +0.000 HD
BRANCH  18  20
ATOM     20  C   UNL     1       8.419  10.190  18.170  0.00  0.00    +0.000 A 
ATOM     21  C   UNL     1       9.135   9.835  19.336  0.00  0.00    +0.000 A 
ATOM     22  C   UNL     1      10.061  10.707  19.907  0.00  0.00    +0.000 A 
ATOM     23  C   UNL     1      10.190  11.940  19.323  0.00  0.00    +0.000 A 
ATOM     24  C   UNL     1       9.346  12.358  18.316  0.00  0.00    +0.000 A 
ATOM     25  C   UNL     1       8.421  11.517  17.735  0.00  0.00    +0.000 A 
ATOM     26  O   UNL     1       9.666  13.607  17.873  0.00  0.00    +0.000 OA
ATOM     27  C   UNL     1      11.001  13.696  18.409  0.00  0.00    +0.000 C 
ATOM     28  O   UNL     1      11.184  12.842  19.558  0.00  0.00    +0.000 OA
ENDBRANCH  18  20
ENDBRANCH   1  17
TORSDOF 3
ENDMDL
MODEL 6
REMARK VINA RESULT:      -7.6      3.193      8.581
REMARK  Name = 
REMARK  3 active torsions:
REMARK  status: ('A' for Active; 'I' for Inactive)
REMARK    1  A    between atoms: C_2  and  C_3
REMARK    2  A    between atoms: C_3  and  N_4
REMARK    3  A    between atoms: N_18  and  C_19
REMARK                            x       y       z     vdW  Elec       q    Type
REMARK                         _______ _______ _______ _____ _____    ______ ____
ROOT
ATOM      1  C   UNL     1       2.054   9.388  19.050  0.00  0.00    +0.000 C 
ENDROOT
BRANCH   1   2
ATOM      2  N   UNL     1       1.085   9.961  19.955  0.00  0.00    +0.000 N 
ATOM      3  C   UNL     1       0.254  11.142  19.805  0.00  0.00    +0.000 A 
ATOM      4  C   UNL     1       0.201  11.994  18.707  0.00  0.00    +0.000 A 
ATOM      5  C   UNL     1      -0.679  13.091  18.782  0.00  0.00    +0.000 A 
ATOM      6  C   UNL     1      -1.486  13.326  19.907  0.00  0.00    +0.000 A 
ATOM      7  C   UNL     1      -1.429  12.452  21.011  0.00  0.00    +0.000 A 
ATOM      8  C   UNL     1      -2.191  12.577  22.184  0.00  0.00    +0.000 A 
ATOM      9  C   UNL     1      -2.050  11.633  23.221  0.00  0.00    +0.000 A 
ATOM     10  C   UNL     1      -1.154  10.559  23.125  0.00  0.00    +0.000 A 
ATOM     11  C   UNL     1      -0.415  10.474  21.955  0.00  0.00    +0.000 A 
ATOM     12  C   UNL     1      -0.555  11.393  20.925  0.00  0.00    +0.000 A 
ATOM     13  S   UNL     1       0.775   9.278  21.453  0.00  0.00    +0.000 S 
ATOM     14  O   UNL     1      -0.043   8.097  21.418  0.00  0.00    +0.000 OA
ATOM     15  O   UNL     1       1.834   9.545  22.402  0.00  0.00    +0.000 OA
ENDBRANCH   1   2
BRANCH   1  17
ATOM     16  O   UNL     1       1.496   7.368  17.941  0.00  0.00    +0.000 OA
ATOM     17  C   UNL     1       1.949   7.881  18.970  0.00  0.00    +0.000 C 
ATOM     18  N   UNL     1       2.398   7.191  20.086  0.00  0.00    +0.000 N 
ATOM     19  H   UNL     1       3.039   7.684  20.707  0.00  0.00    +0.000 HD
BRANCH  18  20
ATOM     20  C   UNL     1       2.445   5.772  20.156  0.00  0.00    +0.000 A 
ATOM     21  C   UNL     1       1.347   5.015  20.623  0.00  0.00    +0.000 A 
ATOM     22  C   UNL     1       1.210   3.667  20.296  0.00  0.00    +0.000 A 
ATOM     23  C   UNL     1       2.220   3.104  19.562  0.00  0.00    +0.000 A 
ATOM     24  C   UNL     1       3.385   3.789  19.284  0.00  0.00    +0.000 A 
ATOM     25  C   UNL     1       3.547   5.120  19.597  0.00  0.00    +0.000 A 
ATOM     26  O   UNL     1       4.242   3.044  18.529  0.00  0.00    +0.000 OA
ATOM     27  C   UNL     1       3.310   2.054  18.050  0.00  0.00    +0.000 C 
ATOM     28  O   UNL     1       2.183   1.893  18.937  0.00  0.00    +0.000 OA
ENDBRANCH  18  20
ENDBRANCH   1  17
TORSDOF 3
ENDMDL
MODEL 7
REMARK VINA RESULT:      -7.6      3.268      8.824
REMARK  Name = 
REMARK  3 active torsions:
REMARK  status: ('A' for Active; 'I' for Inactive)
REMARK    1  A    between atoms: C_2  and  C_3
REMARK    2  A    between atoms: C_3  and  N_4
REMARK    3  A    between atoms: N_18  and  C_19
REMARK                            x       y       z     vdW  Elec       q    Type
REMARK                         _______ _______ _______ _____ _____    ______ ____
ROOT
ATOM      1  C   UNL     1       0.127   9.640  17.902  0.00  0.00    +0.000 C 
ENDROOT
BRANCH   1   2
ATOM      2  N   UNL     1      -0.260  10.528  18.973  0.00  0.00    +0.000 N 
ATOM      3  C   UNL     1      -0.376  10.275  20.398  0.00  0.00    +0.000 A 
ATOM      4  C   UNL     1      -0.111   9.081  21.061  0.00  0.00    +0.000 A 
ATOM      5  C   UNL     1      -0.301   9.061  22.457  0.00  0.00    +0.000 A 
ATOM      6  C   UNL     1      -0.729  10.193  23.170  0.00  0.00    +0.000 A 
ATOM      7  C   UNL     1      -0.988  11.399  22.488  0.00  0.00    +0.000 A 
ATOM      8  C   UNL     1      -1.410  12.596  23.090  0.00  0.00    +0.000 A 
ATOM      9  C   UNL     1      -1.631  13.743  22.302  0.00  0.00    +0.000 A 
ATOM     10  C   UNL     1      -1.450  13.729  20.912  0.00  0.00    +0.000 A 
ATOM     11  C   UNL     1      -1.039  12.528  20.354  0.00  0.00    +0.000 A 
ATOM     12  C   UNL     1      -0.809  11.397  21.124  0.00  0.00    +0.000 A 
ATOM     13  S   UNL     1      -0.685  12.122  18.679  0.00  0.00    +0.000 S 
ATOM     14  O   UNL     1       0.422  13.002  18.427  0.00  0.00    +0.000 OA
ATOM     15  O   UNL     1      -2.004  12.234  18.095  0.00  0.00    +0.000 OA
ENDBRANCH   1   2
BRANCH   1  17
ATOM     16  O   UNL     1       2.451  10.042  18.141  0.00  0.00    +0.000 OA
ATOM     17  C   UNL     1       1.565   9.188  18.020  0.00  0.00    +0.000 C 
ATOM     18  N   UNL     1       1.765   7.816  17.996  0.00  0.00    +0.000 N 
ATOM     19  H   UNL     1       0.964   7.229  18.228  0.00  0.00    +0.000 HD
BRANCH  18  20
ATOM     20  C   UNL     1       3.039   7.212  18.171  0.00  0.00    +0.000 A 
ATOM     21  C   UNL     1       3.290   6.301  19.222  0.00  0.00    +0.000 A 
ATOM     22  C   UNL     1       4.349   5.396  19.154  0.00  0.00    +0.000 A 
ATOM     23  C   UNL     1       5.165   5.482  18.056  0.00  0.00    +0.000 A 
ATOM     24  C   UNL     1       5.041   6.503  17.137  0.00  0.00    +0.000 A 
ATOM     25  C   UNL     1       4.005   7.411  17.182  0.00  0.00    +0.000 A 
ATOM     26  O   UNL     1       5.942   6.382  16.121  0.00  0.00    +0.000 OA
ATOM     27  C   UNL     1       6.303   5.000  16.310  0.00  0.00    +0.000 C 
ATOM     28  O   UNL     1       6.094   4.564  17.670  0.00  0.00    +0.000 OA
ENDBRANCH  18  20
ENDBRANCH   1  17
TORSDOF 3
ENDMDL
MODEL 8
REMARK VINA RESULT:      -7.5      3.276      8.922
REMARK  Name = 
REMARK  3 active torsions:
REMARK  status: ('A' for Active; 'I' for Inactive)
REMARK    1  A    between atoms: C_2  and  C_3
REMARK    2  A    between atoms: C_3  and  N_4
REMARK    3  A    between atoms: N_18  and  C_19
REMARK                            x       y       z     vdW  Elec       q    Type
REMARK                         _______ _______ _______ _____ _____    ______ ____
ROOT
ATOM      1  C   UNL     1       1.667   9.726  18.114  0.00  0.00    +0.000 C 
ENDROOT
BRANCH   1   2
ATOM      2  N   UNL     1       0.616  10.540  18.679  0.00  0.00    +0.000 N 
ATOM      3  C   UNL     1      -0.803  10.571  18.375  0.00  0.00    +0.000 A 
ATOM      4  C   UNL     1      -1.480   9.780  17.452  0.00  0.00    +0.000 A 
ATOM      5  C   UNL     1      -2.867   9.988  17.315  0.00  0.00    +0.000 A 
ATOM      6  C   UNL     1      -3.558  10.943  18.078  0.00  0.00    +0.000 A 
ATOM      7  C   UNL     1      -2.863  11.734  19.015  0.00  0.00    +0.000 A 
ATOM      8  C   UNL     1      -3.443  12.711  19.840  0.00  0.00    +0.000 A 
ATOM      9  C   UNL     1      -2.644  13.436  20.747  0.00  0.00    +0.000 A 
ATOM     10  C   UNL     1      -1.263  13.219  20.849  0.00  0.00    +0.000 A 
ATOM     11  C   UNL     1      -0.726  12.251  20.014  0.00  0.00    +0.000 A 
ATOM     12  C   UNL     1      -1.508  11.526  19.127  0.00  0.00    +0.000 A 
ATOM     13  S   UNL     1       0.931  11.679  19.865  0.00  0.00    +0.000 S 
ATOM     14  O   UNL     1       1.139  11.137  21.180  0.00  0.00    +0.000 OA
ATOM     15  O   UNL     1       1.571  12.860  19.328  0.00  0.00    +0.000 OA
ENDBRANCH   1   2
BRANCH   1  17
ATOM     16  O   UNL     1       1.477   8.391  20.064  0.00  0.00    +0.000 OA
ATOM     17  C   UNL     1       1.906   8.460  18.907  0.00  0.00    +0.000 C 
ATOM     18  N   UNL     1       2.590   7.456  18.238  0.00  0.00    +0.000 N 
ATOM     19  H   UNL     1       2.590   7.497  17.219  0.00  0.00    +0.000 HD
BRANCH  18  20
ATOM     20  C   UNL     1       2.835   6.175  18.800  0.00  0.00    +0.000 A 
ATOM     21  C   UNL     1       2.148   5.726  19.951  0.00  0.00    +0.000 A 
ATOM     22  C   UNL     1       2.048   4.367  20.247  0.00  0.00    +0.000 A 
ATOM     23  C   UNL     1       2.701   3.503  19.407  0.00  0.00    +0.000 A 
ATOM     24  C   UNL     1       3.537   3.954  18.408  0.00  0.00    +0.000 A 
ATOM     25  C   UNL     1       3.656   5.291  18.096  0.00  0.00    +0.000 A 
ATOM     26  O   UNL     1       4.067   2.924  17.687  0.00  0.00    +0.000 OA
ATOM     27  C   UNL     1       3.148   1.886  18.080  0.00  0.00    +0.000 C 
ATOM     28  O   UNL     1       2.544   2.150  19.364  0.00  0.00    +0.000 OA
ENDBRANCH  18  20
ENDBRANCH   1  17
TORSDOF 3
ENDMDL
MODEL 9
REMARK VINA RESULT:      -7.5      3.439      8.928
REMARK  Name = 
REMARK  3 active torsions:
REMARK  status: ('A' for Active; 'I' for Inactive)
REMARK    1  A    between atoms: C_2  and  C_3
REMARK    2  A    between atoms: C_3  and  N_4
REMARK    3  A    between atoms: N_18  and  C_19
REMARK                            x       y       z     vdW  Elec       q    Type
REMARK                         _______ _______ _______ _____ _____    ______ ____
ROOT
ATOM      1  C   UNL     1       1.685   9.589  19.880  0.00  0.00    +0.000 C 
ENDROOT
BRANCH   1   2
ATOM      2  N   UNL     1       0.458  10.339  20.016  0.00  0.00    +0.000 N 
ATOM      3  C   UNL     1      -0.664  10.462  19.103  0.00  0.00    +0.000 A 
ATOM      4  C   UNL     1      -0.807   9.847  17.864  0.00  0.00    +0.000 A 
ATOM      5  C   UNL     1      -1.985  10.119  17.139  0.00  0.00    +0.000 A 
ATOM      6  C   UNL     1      -2.990  10.965  17.636  0.00  0.00    +0.000 A 
ATOM      7  C   UNL     1      -2.836  11.578  18.896  0.00  0.00    +0.000 A 
ATOM      8  C   UNL     1      -3.772  12.433  19.500  0.00  0.00    +0.000 A 
ATOM      9  C   UNL     1      -3.508  12.983  20.771  0.00  0.00    +0.000 A 
ATOM     10  C   UNL     1      -2.320  12.707  21.462  0.00  0.00    +0.000 A 
ATOM     11  C   UNL     1      -1.419  11.864  20.830  0.00  0.00    +0.000 A 
ATOM     12  C   UNL     1      -1.675  11.311  19.584  0.00  0.00    +0.000 A 
ATOM     13  S   UNL     1       0.145  11.269  21.373  0.00  0.00    +0.000 S 
ATOM     14  O   UNL     1      -0.250  10.523  22.536  0.00  0.00    +0.000 OA
ATOM     15  O   UNL     1       0.909  12.498  21.377  0.00  0.00    +0.000 OA
ENDBRANCH   1   2
BRANCH   1  17
ATOM     16  O   UNL     1       0.686   7.900  21.211  0.00  0.00    +0.000 OA
ATOM     17  C   UNL     1       1.546   8.162  20.362  0.00  0.00    +0.000 C 
ATOM     18  N   UNL     1       2.410   7.247  19.779  0.00  0.00    +0.000 N 
ATOM     19  H   UNL     1       2.821   7.507  18.883  0.00  0.00    +0.000 HD
BRANCH  18  20
ATOM     20  C   UNL     1       2.368   5.854  20.054  0.00  0.00    +0.000 A 
ATOM     21  C   UNL     1       1.176   5.214  20.462  0.00  0.00    +0.000 A 
ATOM     22  C   UNL     1       1.010   3.837  20.313  0.00  0.00    +0.000 A 
ATOM     23  C   UNL     1       2.078   3.136  19.817  0.00  0.00    +0.000 A 
ATOM     24  C   UNL     1       3.305   3.731  19.614  0.00  0.00    +0.000 A 
ATOM     25  C   UNL     1       3.497   5.088  19.756  0.00  0.00    +0.000 A 
ATOM     26  O   UNL     1       4.214   2.854  19.102  0.00  0.00    +0.000 OA
ATOM     27  C   UNL     1       3.303   1.837  18.640  0.00  0.00    +0.000 C 
ATOM     28  O   UNL     1       2.058   1.849  19.370  0.00  0.00    +0.000 OA
ENDBRANCH  18  20
ENDBRANCH   1  17
TORSDOF 3
ENDMDL
