MODEL 1
REMARK VINA RESULT:      -8.2      0.000      0.000
REMARK  Name = 
REMARK  4 active torsions:
REMARK  status: ('A' for Active; 'I' for Inactive)
REMARK    1  A    between atoms: C_2  and  C_3
REMARK    2  A    between atoms: N_8  and  C_9
REMARK    3  A    between atoms: N_23  and  C_24
REMARK    4  A    between atoms: C_24  and  C_25
REMARK                            x       y       z     vdW  Elec       q    Type
REMARK                         _______ _______ _______ _____ _____    ______ ____
ROOT
ATOM      1  O   UNL     1      -6.854  11.290  17.922  0.00  0.00    +0.000 OA
ATOM      2  C   UNL     1      -5.935  11.575  18.690  0.00  0.00    +0.000 C 
ATOM      3  N   UNL     1      -4.633  11.728  18.264  0.00  0.00    +0.000 N 
ATOM      4  C   UNL     1      -4.316  11.731  16.855  0.00  0.00    +0.000 C 
ATOM      5  C   UNL     1      -2.927  11.136  16.785  0.00  0.00    +0.000 C 
ATOM      6  C   UNL     1      -2.264  11.490  18.130  0.00  0.00    +0.000 C 
ATOM      7  C   UNL     1      -1.219  12.604  18.009  0.00  0.00    +0.000 C 
ATOM      8  C   UNL     1      -0.203  12.263  19.087  0.00  0.00    +0.000 C 
ATOM      9  N   UNL     1      -0.127  10.805  19.022  0.00  0.00    +0.000 NA
ATOM     10  C   UNL     1      -1.471  10.304  18.709  0.00  0.00    +0.000 C 
ATOM     11  C   UNL     1      -3.435  11.875  19.067  0.00  0.00    +0.000 C 
ENDROOT
BRANCH   2  12
ATOM     12  C   UNL     1      -6.319  11.823  20.152  0.00  0.00    +0.000 A 
ATOM     13  C   UNL     1      -7.464  11.006  20.598  0.00  0.00    +0.000 A 
ATOM     14  C   UNL     1      -7.784  11.061  21.888  0.00  0.00    +0.000 A 
ATOM     15  C   UNL     1      -7.045  11.939  22.820  0.00  0.00    +0.000 A 
ATOM     16  O   UNL     1      -7.421  11.928  23.991  0.00  0.00    +0.000 OA
ATOM     17  N   UNL     1      -6.030  12.724  22.255  0.00  0.00    +0.000 N 
ATOM     18  N   UNL     1      -5.660  12.640  20.915  0.00  0.00    +0.000 NA
BRANCH  17  19
ATOM     19  C   UNL     1      -5.220  13.613  23.045  0.00  0.00    +0.000 A 
ATOM     20  C   UNL     1      -5.623  14.937  23.294  0.00  0.00    +0.000 A 
ATOM     21  C   UNL     1      -4.853  15.808  24.073  0.00  0.00    +0.000 A 
ATOM     22  C   UNL     1      -3.647  15.377  24.618  0.00  0.00    +0.000 A 
ATOM     23  C   UNL     1      -3.219  14.073  24.382  0.00  0.00    +0.000 A 
ATOM     24  C   UNL     1      -3.999  13.204  23.610  0.00  0.00    +0.000 A 
ATOM     25  F   UNL     1      -3.487  11.988  23.368  0.00  0.00    +0.000 F 
ENDBRANCH  17  19
ENDBRANCH   2  12
BRANCH   9  26
ATOM     26  C   UNL     1       0.426  10.221  20.255  0.00  0.00    +0.000 C 
BRANCH  26  27
ATOM     27  C   UNL     1       1.172   8.921  20.016  0.00  0.00    +0.000 A 
ATOM     28  C   UNL     1       1.834   8.690  18.803  0.00  0.00    +0.000 A 
ATOM     29  C   UNL     1       2.443   7.459  18.552  0.00  0.00    +0.000 A 
ATOM     30  C   UNL     1       2.407   6.452  19.515  0.00  0.00    +0.000 A 
ATOM     31  C   UNL     1       1.777   6.679  20.737  0.00  0.00    +0.000 A 
ATOM     32  C   UNL     1       1.163   7.908  20.989  0.00  0.00    +0.000 A 
ENDBRANCH  26  27
ENDBRANCH   9  26
TORSDOF 4
ENDMDL
MODEL 2
REMARK VINA RESULT:      -8.0      2.599      7.714
REMARK  Name = 
REMARK  4 active torsions:
REMARK  status: ('A' for Active; 'I' for Inactive)
REMARK    1  A    between atoms: C_2  and  C_3
REMARK    2  A    between atoms: N_8  and  C_9
REMARK    3  A    between atoms: N_23  and  C_24
REMARK    4  A    between atoms: C_24  and  C_25
REMARK                            x       y       z     vdW  Elec       q    Type
REMARK                         _______ _______ _______ _____ _____    ______ ____
ROOT
ATOM      1  O   UNL     1      -2.265  11.516  16.278  0.00  0.00    +0.000 OA
ATOM      2  C   UNL     1      -2.599  11.499  17.464  0.00  0.00    +0.000 C 
ATOM      3  N   UNL     1      -3.919  11.533  17.862  0.00  0.00    +0.000 N 
ATOM      4  C   UNL     1      -4.983  11.414  16.893  0.00  0.00    +0.000 C 
ATOM      5  C   UNL     1      -6.110  12.239  17.476  0.00  0.00    +0.000 C 
ATOM      6  C   UNL     1      -5.911  12.178  19.002  0.00  0.00    +0.000 C 
ATOM      7  C   UNL     1      -6.923  11.266  19.703  0.00  0.00    +0.000 C 
ATOM      8  C   UNL     1      -7.109  11.915  21.066  0.00  0.00    +0.000 C 
ATOM      9  N   UNL     1      -7.092  13.344  20.758  0.00  0.00    +0.000 NA
ATOM     10  C   UNL     1      -6.133  13.550  19.665  0.00  0.00    +0.000 C 
ATOM     11  C   UNL     1      -4.449  11.705  19.200  0.00  0.00    +0.000 C 
ENDROOT
BRANCH   2  12
ATOM     12  C   UNL     1      -1.470  11.367  18.489  0.00  0.00    +0.000 A 
ATOM     13  C   UNL     1      -1.411  12.498  19.436  0.00  0.00    +0.000 A 
ATOM     14  C   UNL     1      -0.543  12.403  20.441  0.00  0.00    +0.000 A 
ATOM     15  C   UNL     1       0.349  11.232  20.571  0.00  0.00    +0.000 A 
ATOM     16  O   UNL     1       1.122  11.241  21.527  0.00  0.00    +0.000 OA
ATOM     17  N   UNL     1       0.249  10.264  19.561  0.00  0.00    +0.000 N 
ATOM     18  N   UNL     1      -0.686  10.334  18.531  0.00  0.00    +0.000 NA
BRANCH  17  19
ATOM     19  C   UNL     1       1.046   9.066  19.568  0.00  0.00    +0.000 A 
ATOM     20  C   UNL     1       1.061   8.210  20.683  0.00  0.00    +0.000 A 
ATOM     21  C   UNL     1       1.820   7.034  20.698  0.00  0.00    +0.000 A 
ATOM     22  C   UNL     1       2.595   6.688  19.595  0.00  0.00    +0.000 A 
ATOM     23  C   UNL     1       2.605   7.521  18.480  0.00  0.00    +0.000 A 
ATOM     24  C   UNL     1       1.837   8.691  18.467  0.00  0.00    +0.000 A 
ATOM     25  F   UNL     1       1.953   9.478  17.386  0.00  0.00    +0.000 F 
ENDBRANCH  17  19
ENDBRANCH   2  12
BRANCH   9  26
ATOM     26  C   UNL     1      -6.792  14.165  21.941  0.00  0.00    +0.000 C 
BRANCH  26  27
ATOM     27  C   UNL     1      -5.551  13.710  22.685  0.00  0.00    +0.000 A 
ATOM     28  C   UNL     1      -5.658  12.944  23.854  0.00  0.00    +0.000 A 
ATOM     29  C   UNL     1      -4.519  12.603  24.584  0.00  0.00    +0.000 A 
ATOM     30  C   UNL     1      -3.260  13.013  24.147  0.00  0.00    +0.000 A 
ATOM     31  C   UNL     1      -3.137  13.751  22.971  0.00  0.00    +0.000 A 
ATOM     32  C   UNL     1      -4.276  14.096  22.241  0.00  0.00    +0.000 A 
ENDBRANCH  26  27
ENDBRANCH   9  26
TORSDOF 4
ENDMDL
MODEL 3
REMARK VINA RESULT:      -8.0      2.134      7.597
REMARK  Name = 
REMARK  4 active torsions:
REMARK  status: ('A' for Active; 'I' for Inactive)
REMARK    1  A    between atoms: C_2  and  C_3
REMARK    2  A    between atoms: N_8  and  C_9
REMARK    3  A    between atoms: N_23  and  C_24
REMARK    4  A    between atoms: C_24  and  C_25
REMARK                            x       y       z     vdW  Elec       q    Type
REMARK                         _______ _______ _______ _____ _____    ______ ____
ROOT
ATOM      1  O   UNL     1      -3.433  11.641  16.908  0.00  0.00    +0.000 OA
ATOM      2  C   UNL     1      -3.641  11.616  18.122  0.00  0.00    +0.000 C 
ATOM      3  N   UNL     1      -4.910  11.543  18.655  0.00  0.00    +0.000 N 
ATOM      4  C   UNL     1      -6.054  11.315  17.804  0.00  0.00    +0.000 C 
ATOM      5  C   UNL     1      -7.184  12.049  18.493  0.00  0.00    +0.000 C 
ATOM      6  C   UNL     1      -6.824  12.033  19.991  0.00  0.00    +0.000 C 
ATOM      7  C   UNL     1      -7.674  11.049  20.802  0.00  0.00    +0.000 C 
ATOM      8  C   UNL     1      -7.775  11.704  22.170  0.00  0.00    +0.000 C 
ATOM      9  N   UNL     1      -7.916  13.123  21.849  0.00  0.00    +0.000 NA
ATOM     10  C   UNL     1      -7.097  13.392  20.661  0.00  0.00    +0.000 C 
ATOM     11  C   UNL     1      -5.314  11.692  20.040  0.00  0.00    +0.000 C 
ENDROOT
BRANCH   2  12
ATOM     12  C   UNL     1      -2.405  11.602  19.026  0.00  0.00    +0.000 A 
ATOM     13  C   UNL     1      -2.367  12.731  19.976  0.00  0.00    +0.000 A 
ATOM     14  C   UNL     1      -1.396  12.726  20.886  0.00  0.00    +0.000 A 
ATOM     15  C   UNL     1      -0.379  11.655  20.909  0.00  0.00    +0.000 A 
ATOM     16  O   UNL     1       0.484  11.743  21.782  0.00  0.00    +0.000 OA
ATOM     17  N   UNL     1      -0.480  10.683  19.903  0.00  0.00    +0.000 N 
ATOM     18  N   UNL     1      -1.518  10.657  18.974  0.00  0.00    +0.000 NA
BRANCH  17  19
ATOM     19  C   UNL     1       0.433   9.576  19.814  0.00  0.00    +0.000 A 
ATOM     20  C   UNL     1       1.248   9.394  18.683  0.00  0.00    +0.000 A 
ATOM     21  C   UNL     1       2.151   8.329  18.588  0.00  0.00    +0.000 A 
ATOM     22  C   UNL     1       2.256   7.407  19.625  0.00  0.00    +0.000 A 
ATOM     23  C   UNL     1       1.456   7.558  20.755  0.00  0.00    +0.000 A 
ATOM     24  C   UNL     1       0.562   8.631  20.847  0.00  0.00    +0.000 A 
ATOM     25  F   UNL     1      -0.224   8.669  21.934  0.00  0.00    +0.000 F 
ENDBRANCH  17  19
ENDBRANCH   2  12
BRANCH   9  26
ATOM     26  C   UNL     1      -7.570  13.989  22.988  0.00  0.00    +0.000 C 
BRANCH  26  27
ATOM     27  C   UNL     1      -6.117  13.870  23.408  0.00  0.00    +0.000 A 
ATOM     28  C   UNL     1      -5.656  12.722  24.067  0.00  0.00    +0.000 A 
ATOM     29  C   UNL     1      -4.341  12.653  24.531  0.00  0.00    +0.000 A 
ATOM     30  C   UNL     1      -3.472  13.725  24.331  0.00  0.00    +0.000 A 
ATOM     31  C   UNL     1      -3.910  14.860  23.652  0.00  0.00    +0.000 A 
ATOM     32  C   UNL     1      -5.226  14.933  23.190  0.00  0.00    +0.000 A 
ENDBRANCH  26  27
ENDBRANCH   9  26
TORSDOF 4
ENDMDL
MODEL 4
REMARK VINA RESULT:      -7.8      2.334      7.560
REMARK  Name = 
REMARK  4 active torsions:
REMARK  status: ('A' for Active; 'I' for Inactive)
REMARK    1  A    between atoms: C_2  and  C_3
REMARK    2  A    between atoms: N_8  and  C_9
REMARK    3  A    between atoms: N_23  and  C_24
REMARK    4  A    between atoms: C_24  and  C_25
REMARK                            x       y       z     vdW  Elec       q    Type
REMARK                         _______ _______ _______ _____ _____    ______ ____
ROOT
ATOM      1  O   UNL     1      -2.427  11.487  16.226  0.00  0.00    +0.000 OA
ATOM      2  C   UNL     1      -2.678  11.523  17.431  0.00  0.00    +0.000 C 
ATOM      3  N   UNL     1      -3.967  11.577  17.919  0.00  0.00    +0.000 N 
ATOM      4  C   UNL     1      -5.096  11.418  17.033  0.00  0.00    +0.000 C 
ATOM      5  C   UNL     1      -6.180  12.270  17.656  0.00  0.00    +0.000 C 
ATOM      6  C   UNL     1      -5.875  12.276  19.166  0.00  0.00    +0.000 C 
ATOM      7  C   UNL     1      -6.835  11.398  19.975  0.00  0.00    +0.000 C 
ATOM      8  C   UNL     1      -6.926  12.106  21.318  0.00  0.00    +0.000 C 
ATOM      9  N   UNL     1      -6.932  13.520  20.946  0.00  0.00    +0.000 NA
ATOM     10  C   UNL     1      -6.052  13.676  19.781  0.00  0.00    +0.000 C 
ATOM     11  C   UNL     1      -4.403  11.809  19.282  0.00  0.00    +0.000 C 
ENDROOT
BRANCH   2  12
ATOM     12  C   UNL     1      -1.480  11.434  18.381  0.00  0.00    +0.000 A 
ATOM     13  C   UNL     1      -1.337  12.620  19.247  0.00  0.00    +0.000 A 
ATOM     14  C   UNL     1      -0.400  12.573  20.192  0.00  0.00    +0.000 A 
ATOM     15  C   UNL     1       0.482  11.396  20.332  0.00  0.00    +0.000 A 
ATOM     16  O   UNL     1       1.322  11.450  21.228  0.00  0.00    +0.000 OA
ATOM     17  N   UNL     1       0.296  10.368  19.395  0.00  0.00    +0.000 N 
ATOM     18  N   UNL     1      -0.710  10.391  18.432  0.00  0.00    +0.000 NA
BRANCH  17  19
ATOM     19  C   UNL     1       1.074   9.158  19.422  0.00  0.00    +0.000 A 
ATOM     20  C   UNL     1       1.880   8.788  18.331  0.00  0.00    +0.000 A 
ATOM     21  C   UNL     1       2.653   7.622  18.348  0.00  0.00    +0.000 A 
ATOM     22  C   UNL     1       2.631   6.785  19.460  0.00  0.00    +0.000 A 
ATOM     23  C   UNL     1       1.835   7.123  20.552  0.00  0.00    +0.000 A 
ATOM     24  C   UNL     1       1.072   8.296  20.532  0.00  0.00    +0.000 A 
ATOM     25  F   UNL     1       0.278   8.517  21.591  0.00  0.00    +0.000 F 
ENDBRANCH  17  19
ENDBRANCH   2  12
BRANCH   9  26
ATOM     26  C   UNL     1      -6.552  14.392  22.069  0.00  0.00    +0.000 C 
BRANCH  26  27
ATOM     27  C   UNL     1      -5.149  14.126  22.582  0.00  0.00    +0.000 A 
ATOM     28  C   UNL     1      -4.071  14.917  22.160  0.00  0.00    +0.000 A 
ATOM     29  C   UNL     1      -2.770  14.614  22.564  0.00  0.00    +0.000 A 
ATOM     30  C   UNL     1      -2.534  13.526  23.403  0.00  0.00    +0.000 A 
ATOM     31  C   UNL     1      -3.600  12.749  23.853  0.00  0.00    +0.000 A 
ATOM     32  C   UNL     1      -4.902  13.047  23.447  0.00  0.00    +0.000 A 
ENDBRANCH  26  27
ENDBRANCH   9  26
TORSDOF 4
ENDMDL
MODEL 5
REMARK VINA RESULT:      -7.5      5.723      8.465
REMARK  Name = 
REMARK  4 active torsions:
REMARK  status: ('A' for Active; 'I' for Inactive)
REMARK    1  A    between atoms: C_2  and  C_3
REMARK    2  A    between atoms: N_8  and  C_9
REMARK    3  A    between atoms: N_23  and  C_24
REMARK    4  A    between atoms: C_24  and  C_25
REMARK                            x       y       z     vdW  Elec       q    Type
REMARK                         _______ _______ _______ _____ _____    ______ ____
ROOT
ATOM      1  O   UNL     1       0.932  14.805  21.421  0.00  0.00    +0.000 OA
ATOM      2  C   UNL     1       1.659  13.956  20.905  0.00  0.00    +0.000 C 
ATOM      3  N   UNL     1       1.160  12.895  20.181  0.00  0.00    +0.000 N 
ATOM      4  C   UNL     1      -0.243  12.826  19.846  0.00  0.00    +0.000 C 
ATOM      5  C   UNL     1      -0.546  11.344  19.815  0.00  0.00    +0.000 C 
ATOM      6  C   UNL     1       0.780  10.666  19.422  0.00  0.00    +0.000 C 
ATOM      7  C   UNL     1       0.789  10.157  17.977  0.00  0.00    +0.000 C 
ATOM      8  C   UNL     1       1.689   8.933  18.032  0.00  0.00    +0.000 C 
ATOM      9  N   UNL     1       1.336   8.318  19.310  0.00  0.00    +0.000 NA
ATOM     10  C   UNL     1       1.047   9.401  20.259  0.00  0.00    +0.000 C 
ATOM     11  C   UNL     1       1.872  11.734  19.681  0.00  0.00    +0.000 C 
ENDROOT
BRANCH   2  12
ATOM     12  C   UNL     1       3.168  14.173  21.047  0.00  0.00    +0.000 A 
ATOM     13  C   UNL     1       3.729  15.052  20.004  0.00  0.00    +0.000 A 
ATOM     14  C   UNL     1       5.009  15.399  20.125  0.00  0.00    +0.000 A 
ATOM     15  C   UNL     1       5.835  14.885  21.237  0.00  0.00    +0.000 A 
ATOM     16  O   UNL     1       7.008  15.255  21.258  0.00  0.00    +0.000 OA
ATOM     17  N   UNL     1       5.204  13.994  22.116  0.00  0.00    +0.000 N 
ATOM     18  N   UNL     1       3.855  13.660  22.022  0.00  0.00    +0.000 NA
BRANCH  17  19
ATOM     19  C   UNL     1       5.884  13.428  23.251  0.00  0.00    +0.000 A 
ATOM     20  C   UNL     1       6.662  12.264  23.126  0.00  0.00    +0.000 A 
ATOM     21  C   UNL     1       7.340  11.709  24.218  0.00  0.00    +0.000 A 
ATOM     22  C   UNL     1       7.248  12.305  25.473  0.00  0.00    +0.000 A 
ATOM     23  C   UNL     1       6.478  13.454  25.628  0.00  0.00    +0.000 A 
ATOM     24  C   UNL     1       5.810  14.008  24.530  0.00  0.00    +0.000 A 
ATOM     25  F   UNL     1       5.032  15.074  24.772  0.00  0.00    +0.000 F 
ENDBRANCH  17  19
ENDBRANCH   2  12
BRANCH   9  26
ATOM     26  C   UNL     1       2.378   7.399  19.794  0.00  0.00    +0.000 C 
BRANCH  26  27
ATOM     27  C   UNL     1       2.026   5.938  19.591  0.00  0.00    +0.000 A 
ATOM     28  C   UNL     1       2.139   5.344  18.326  0.00  0.00    +0.000 A 
ATOM     29  C   UNL     1       1.730   4.025  18.124  0.00  0.00    +0.000 A 
ATOM     30  C   UNL     1       1.215   3.282  19.186  0.00  0.00    +0.000 A 
ATOM     31  C   UNL     1       1.123   3.852  20.454  0.00  0.00    +0.000 A 
ATOM     32  C   UNL     1       1.529   5.172  20.658  0.00  0.00    +0.000 A 
ENDBRANCH  26  27
ENDBRANCH   9  26
TORSDOF 4
ENDMDL
MODEL 6
REMARK VINA RESULT:      -7.4      4.979      7.792
REMARK  Name = 
REMARK  4 active torsions:
REMARK  status: ('A' for Active; 'I' for Inactive)
REMARK    1  A    between atoms: C_2  and  C_3
REMARK    2  A    between atoms: N_8  and  C_9
REMARK    3  A    between atoms: N_23  and  C_24
REMARK    4  A    between atoms: C_24  and  C_25
REMARK                            x       y       z     vdW  Elec       q    Type
REMARK                         _______ _______ _______ _____ _____    ______ ____
ROOT
ATOM      1  O   UNL     1      -0.264  15.001  21.802  0.00  0.00    +0.000 OA
ATOM      2  C   UNL     1       0.022  14.476  20.726  0.00  0.00    +0.000 C 
ATOM      3  N   UNL     1      -0.359  13.190  20.404  0.00  0.00    +0.000 N 
ATOM      4  C   UNL     1      -1.268  12.457  21.254  0.00  0.00    +0.000 C 
ATOM      5  C   UNL     1      -0.846  11.014  21.092  0.00  0.00    +0.000 C 
ATOM      6  C   UNL     1      -0.244  10.922  19.677  0.00  0.00    +0.000 C 
ATOM      7  C   UNL     1      -1.164  10.213  18.678  0.00  0.00    +0.000 C 
ATOM      8  C   UNL     1      -0.199   9.537  17.717  0.00  0.00    +0.000 C 
ATOM      9  N   UNL     1       0.874   9.074  18.595  0.00  0.00    +0.000 NA
ATOM     10  C   UNL     1       1.042  10.076  19.655  0.00  0.00    +0.000 C 
ATOM     11  C   UNL     1       0.057  12.386  19.272  0.00  0.00    +0.000 C 
ENDROOT
BRANCH   2  12
ATOM     12  C   UNL     1       0.772  15.350  19.718  0.00  0.00    +0.000 A 
ATOM     13  C   UNL     1      -0.110  16.279  18.985  0.00  0.00    +0.000 A 
ATOM     14  C   UNL     1       0.474  17.166  18.183  0.00  0.00    +0.000 A 
ATOM     15  C   UNL     1       1.941  17.184  18.006  0.00  0.00    +0.000 A 
ATOM     16  O   UNL     1       2.386  18.034  17.236  0.00  0.00    +0.000 OA
ATOM     17  N   UNL     1       2.659  16.197  18.697  0.00  0.00    +0.000 N 
ATOM     18  N   UNL     1       2.061  15.294  19.572  0.00  0.00    +0.000 NA
BRANCH  17  19
ATOM     19  C   UNL     1       4.093  16.105  18.629  0.00  0.00    +0.000 A 
ATOM     20  C   UNL     1       4.723  15.103  17.869  0.00  0.00    +0.000 A 
ATOM     21  C   UNL     1       6.117  15.010  17.782  0.00  0.00    +0.000 A 
ATOM     22  C   UNL     1       6.921  15.917  18.465  0.00  0.00    +0.000 A 
ATOM     23  C   UNL     1       6.325  16.915  19.232  0.00  0.00    +0.000 A 
ATOM     24  C   UNL     1       4.931  17.008  19.307  0.00  0.00    +0.000 A 
ATOM     25  F   UNL     1       4.432  17.952  20.120  0.00  0.00    +0.000 F 
ENDBRANCH  17  19
ENDBRANCH   2  12
BRANCH   9  26
ATOM     26  C   UNL     1       2.120   8.808  17.859  0.00  0.00    +0.000 C 
BRANCH  26  27
ATOM     27  C   UNL     1       2.803   7.523  18.290  0.00  0.00    +0.000 A 
ATOM     28  C   UNL     1       3.842   6.975  17.525  0.00  0.00    +0.000 A 
ATOM     29  C   UNL     1       4.407   5.748  17.874  0.00  0.00    +0.000 A 
ATOM     30  C   UNL     1       3.949   5.062  18.999  0.00  0.00    +0.000 A 
ATOM     31  C   UNL     1       2.937   5.610  19.784  0.00  0.00    +0.000 A 
ATOM     32  C   UNL     1       2.367   6.835  19.434  0.00  0.00    +0.000 A 
ENDBRANCH  26  27
ENDBRANCH   9  26
TORSDOF 4
ENDMDL
MODEL 7
REMARK VINA RESULT:      -7.4      4.205      7.779
REMARK  Name = 
REMARK  4 active torsions:
REMARK  status: ('A' for Active; 'I' for Inactive)
REMARK    1  A    between atoms: C_2  and  C_3
REMARK    2  A    between atoms: N_8  and  C_9
REMARK    3  A    between atoms: N_23  and  C_24
REMARK    4  A    between atoms: C_24  and  C_25
REMARK                            x       y       z     vdW  Elec       q    Type
REMARK                         _______ _______ _______ _____ _____    ______ ____
ROOT
ATOM      1  O   UNL     1       2.647   9.571  17.139  0.00  0.00    +0.000 OA
ATOM      2  C   UNL     1       2.698   8.595  17.887  0.00  0.00    +0.000 C 
ATOM      3  N   UNL     1       3.594   7.564  17.700  0.00  0.00    +0.000 N 
ATOM      4  C   UNL     1       4.638   7.667  16.708  0.00  0.00    +0.000 C 
ATOM      5  C   UNL     1       4.852   6.243  16.243  0.00  0.00    +0.000 C 
ATOM      6  C   UNL     1       4.471   5.361  17.447  0.00  0.00    +0.000 C 
ATOM      7  C   UNL     1       5.688   4.753  18.154  0.00  0.00    +0.000 C 
ATOM      8  C   UNL     1       5.171   3.423  18.679  0.00  0.00    +0.000 C 
ATOM      9  N   UNL     1       4.300   2.957  17.602  0.00  0.00    +0.000 NA
ATOM     10  C   UNL     1       3.644   4.135  17.020  0.00  0.00    +0.000 C 
ATOM     11  C   UNL     1       3.644   6.283  18.377  0.00  0.00    +0.000 C 
ENDROOT
BRANCH   2  12
ATOM     12  C   UNL     1       1.755   8.609  19.094  0.00  0.00    +0.000 A 
ATOM     13  C   UNL     1       1.866   7.399  19.932  0.00  0.00    +0.000 A 
ATOM     14  C   UNL     1       1.178   7.384  21.071  0.00  0.00    +0.000 A 
ATOM     15  C   UNL     1       0.308   8.517  21.451  0.00  0.00    +0.000 A 
ATOM     16  O   UNL     1      -0.295   8.405  22.517  0.00  0.00    +0.000 OA
ATOM     17  N   UNL     1       0.228   9.571  20.530  0.00  0.00    +0.000 N 
ATOM     18  N   UNL     1       0.978   9.614  19.357  0.00  0.00    +0.000 NA
BRANCH  17  19
ATOM     19  C   UNL     1      -0.569  10.743  20.776  0.00  0.00    +0.000 A 
ATOM     20  C   UNL     1      -0.404  11.501  21.949  0.00  0.00    +0.000 A 
ATOM     21  C   UNL     1      -1.161  12.652  22.195  0.00  0.00    +0.000 A 
ATOM     22  C   UNL     1      -2.115  13.071  21.273  0.00  0.00    +0.000 A 
ATOM     23  C   UNL     1      -2.306  12.336  20.106  0.00  0.00    +0.000 A 
ATOM     24  C   UNL     1      -1.538  11.191  19.861  0.00  0.00    +0.000 A 
ATOM     25  F   UNL     1      -1.828  10.497  18.750  0.00  0.00    +0.000 F 
ENDBRANCH  17  19
ENDBRANCH   2  12
BRANCH   9  26
ATOM     26  C   UNL     1       3.342   1.939  18.061  0.00  0.00    +0.000 C 
BRANCH  26  27
ATOM     27  C   UNL     1       2.568   2.363  19.295  0.00  0.00    +0.000 A 
ATOM     28  C   UNL     1       1.305   2.959  19.177  0.00  0.00    +0.000 A 
ATOM     29  C   UNL     1       0.635   3.428  20.308  0.00  0.00    +0.000 A 
ATOM     30  C   UNL     1       1.215   3.297  21.569  0.00  0.00    +0.000 A 
ATOM     31  C   UNL     1       2.458   2.681  21.703  0.00  0.00    +0.000 A 
ATOM     32  C   UNL     1       3.131   2.214  20.573  0.00  0.00    +0.000 A 
ENDBRANCH  26  27
ENDBRANCH   9  26
TORSDOF 4
ENDMDL
MODEL 8
REMARK VINA RESULT:      -7.4      4.967      7.484
REMARK  Name = 
REMARK  4 active torsions:
REMARK  status: ('A' for Active; 'I' for Inactive)
REMARK    1  A    between atoms: C_2  and  C_3
REMARK    2  A    between atoms: N_8  and  C_9
REMARK    3  A    between atoms: N_23  and  C_24
REMARK    4  A    between atoms: C_24  and  C_25
REMARK                            x       y       z     vdW  Elec       q    Type
REMARK                         _______ _______ _______ _____ _____    ______ ____
ROOT
ATOM      1  O   UNL     1      -0.891  15.189  21.804  0.00  0.00    +0.000 OA
ATOM      2  C   UNL     1      -0.501  14.688  20.748  0.00  0.00    +0.000 C 
ATOM      3  N   UNL     1      -0.786  13.386  20.397  0.00  0.00    +0.000 N 
ATOM      4  C   UNL     1      -1.709  12.597  21.179  0.00  0.00    +0.000 C 
ATOM      5  C   UNL     1      -1.196  11.180  21.043  0.00  0.00    +0.000 C 
ATOM      6  C   UNL     1      -0.492  11.132  19.673  0.00  0.00    +0.000 C 
ATOM      7  C   UNL     1      -1.299  10.380  18.610  0.00  0.00    +0.000 C 
ATOM      8  C   UNL     1      -0.233   9.766  17.717  0.00  0.00    +0.000 C 
ATOM      9  N   UNL     1       0.801   9.358  18.666  0.00  0.00    +0.000 NA
ATOM     10  C   UNL     1       0.838  10.360  19.739  0.00  0.00    +0.000 C 
ATOM     11  C   UNL     1      -0.247  12.614  19.294  0.00  0.00    +0.000 C 
ENDROOT
BRANCH   2  12
ATOM     12  C   UNL     1       0.267  15.610  19.798  0.00  0.00    +0.000 A 
ATOM     13  C   UNL     1      -0.615  16.399  18.916  0.00  0.00    +0.000 A 
ATOM     14  C   UNL     1      -0.038  17.321  18.148  0.00  0.00    +0.000 A 
ATOM     15  C   UNL     1       1.427  17.509  18.153  0.00  0.00    +0.000 A 
ATOM     16  O   UNL     1       1.866  18.379  17.402  0.00  0.00    +0.000 OA
ATOM     17  N   UNL     1       2.159  16.641  18.976  0.00  0.00    +0.000 N 
ATOM     18  N   UNL     1       1.561  15.704  19.815  0.00  0.00    +0.000 NA
BRANCH  17  19
ATOM     19  C   UNL     1       3.591  16.721  19.091  0.00  0.00    +0.000 A 
ATOM     20  C   UNL     1       4.199  17.499  20.092  0.00  0.00    +0.000 A 
ATOM     21  C   UNL     1       5.590  17.575  20.224  0.00  0.00    +0.000 A 
ATOM     22  C   UNL     1       6.414  16.876  19.347  0.00  0.00    +0.000 A 
ATOM     23  C   UNL     1       5.841  16.104  18.341  0.00  0.00    +0.000 A 
ATOM     24  C   UNL     1       4.448  16.025  18.220  0.00  0.00    +0.000 A 
ATOM     25  F   UNL     1       3.972  15.318  17.184  0.00  0.00    +0.000 F 
ENDBRANCH  17  19
ENDBRANCH   2  12
BRANCH   9  26
ATOM     26  C   UNL     1       2.108   9.167  18.019  0.00  0.00    +0.000 C 
BRANCH  26  27
ATOM     27  C   UNL     1       2.712   7.801  18.288  0.00  0.00    +0.000 A 
ATOM     28  C   UNL     1       2.286   7.033  19.380  0.00  0.00    +0.000 A 
ATOM     29  C   UNL     1       2.906   5.819  19.676  0.00  0.00    +0.000 A 
ATOM     30  C   UNL     1       3.950   5.353  18.878  0.00  0.00    +0.000 A 
ATOM     31  C   UNL     1       4.365   6.093  17.772  0.00  0.00    +0.000 A 
ATOM     32  C   UNL     1       3.748   7.311  17.476  0.00  0.00    +0.000 A 
ENDBRANCH  26  27
ENDBRANCH   9  26
TORSDOF 4
ENDMDL
MODEL 9
REMARK VINA RESULT:      -7.4      3.039      6.271
REMARK  Name = 
REMARK  4 active torsions:
REMARK  status: ('A' for Active; 'I' for Inactive)
REMARK    1  A    between atoms: C_2  and  C_3
REMARK    2  A    between atoms: N_8  and  C_9
REMARK    3  A    between atoms: N_23  and  C_24
REMARK    4  A    between atoms: C_24  and  C_25
REMARK                            x       y       z     vdW  Elec       q    Type
REMARK                         _______ _______ _______ _____ _____    ______ ____
ROOT
ATOM      1  O   UNL     1      -4.866  12.216  24.711  0.00  0.00    +0.000 OA
ATOM      2  C   UNL     1      -4.703  12.786  23.631  0.00  0.00    +0.000 C 
ATOM      3  N   UNL     1      -5.673  12.811  22.652  0.00  0.00    +0.000 N 
ATOM      4  C   UNL     1      -7.002  12.313  22.920  0.00  0.00    +0.000 C 
ATOM      5  C   UNL     1      -7.472  11.772  21.588  0.00  0.00    +0.000 C 
ATOM      6  C   UNL     1      -6.733  12.608  20.526  0.00  0.00    +0.000 C 
ATOM      7  C   UNL     1      -7.637  13.631  19.831  0.00  0.00    +0.000 C 
ATOM      8  C   UNL     1      -7.056  13.733  18.430  0.00  0.00    +0.000 C 
ATOM      9  N   UNL     1      -6.684  12.353  18.124  0.00  0.00    +0.000 NA
ATOM     10  C   UNL     1      -6.212  11.735  19.370  0.00  0.00    +0.000 C 
ATOM     11  C   UNL     1      -5.557  13.273  21.283  0.00  0.00    +0.000 C 
ENDROOT
BRANCH   2  12
ATOM     12  C   UNL     1      -3.380  13.534  23.448  0.00  0.00    +0.000 A 
ATOM     13  C   UNL     1      -3.050  14.416  24.584  0.00  0.00    +0.000 A 
ATOM     14  C   UNL     1      -1.857  15.006  24.568  0.00  0.00    +0.000 A 
ATOM     15  C   UNL     1      -0.927  14.815  23.436  0.00  0.00    +0.000 A 
ATOM     16  O   UNL     1       0.148  15.409  23.509  0.00  0.00    +0.000 OA
ATOM     17  N   UNL     1      -1.392  14.017  22.381  0.00  0.00    +0.000 N 
ATOM     18  N   UNL     1      -2.621  13.361  22.410  0.00  0.00    +0.000 NA
BRANCH  17  19
ATOM     19  C   UNL     1      -0.588  13.733  21.223  0.00  0.00    +0.000 A 
ATOM     20  C   UNL     1       0.295  12.639  21.200  0.00  0.00    +0.000 A 
ATOM     21  C   UNL     1       1.074  12.343  20.076  0.00  0.00    +0.000 A 
ATOM     22  C   UNL     1       0.994  13.144  18.941  0.00  0.00    +0.000 A 
ATOM     23  C   UNL     1       0.134  14.239  18.937  0.00  0.00    +0.000 A 
ATOM     24  C   UNL     1      -0.649  14.524  20.062  0.00  0.00    +0.000 A 
ATOM     25  F   UNL     1      -1.400  15.634  20.008  0.00  0.00    +0.000 F 
ENDBRANCH  17  19
ENDBRANCH   2  12
BRANCH   9  26
ATOM     26  C   UNL     1      -5.697  12.270  17.036  0.00  0.00    +0.000 C 
BRANCH  26  27
ATOM     27  C   UNL     1      -4.406  11.591  17.453  0.00  0.00    +0.000 A 
ATOM     28  C   UNL     1      -4.044  10.349  16.914  0.00  0.00    +0.000 A 
ATOM     29  C   UNL     1      -2.902   9.686  17.365  0.00  0.00    +0.000 A 
ATOM     30  C   UNL     1      -2.103  10.263  18.351  0.00  0.00    +0.000 A 
ATOM     31  C   UNL     1      -2.435  11.510  18.876  0.00  0.00    +0.000 A 
ATOM     32  C   UNL     1      -3.580  12.174  18.428  0.00  0.00    +0.000 A 
ENDBRANCH  26  27
ENDBRANCH   9  26
TORSDOF 4
ENDMDL
