MODEL 1
REMARK VINA RESULT:      -8.7      0.000      0.000
REMARK  Name = 
REMARK  5 active torsions:
REMARK  status: ('A' for Active; 'I' for Inactive)
REMARK    1  A    between atoms: C_1  and  C_2
REMARK    2  A    between atoms: C_4  and  C_5
REMARK    3  A    between atoms: C_5  and  C_6
REMARK    4  A    between atoms: C_10  and  N_11
REMARK    5  A    between atoms: C_18  and  C_19
REMARK                            x       y       z     vdW  Elec       q    Type
REMARK                         _______ _______ _______ _____ _____    ______ ____
ROOT
ATOM      1  N   UNL     1       2.104   7.401  19.565  0.00  0.00    +0.000 N 
ATOM      2  C   UNL     1       1.406   7.777  20.779  0.00  0.00    +0.000 C 
ATOM      3  C   UNL     1       0.883   9.143  20.474  0.00  0.00    +0.000 A 
ATOM      4  C   UNL     1       1.238   9.489  19.172  0.00  0.00    +0.000 A 
ATOM      5  C   UNL     1       0.876  10.693  18.596  0.00  0.00    +0.000 A 
ATOM      6  C   UNL     1       0.130  11.579  19.372  0.00  0.00    +0.000 A 
ATOM      7  C   UNL     1      -0.225  11.248  20.693  0.00  0.00    +0.000 A 
ATOM      8  C   UNL     1       0.151  10.019  21.271  0.00  0.00    +0.000 A 
ATOM      9  C   UNL     1       2.026   8.392  18.588  0.00  0.00    +0.000 C 
ATOM     10  O   UNL     1       2.463   8.458  17.455  0.00  0.00    +0.000 OA
ENDROOT
BRANCH   1  16
ATOM     11  C   UNL     1       6.306   5.176  18.946  0.00  0.00    +0.000 C 
ATOM     12  C   UNL     1       4.823   5.055  19.124  0.00  0.00    +0.000 A 
ATOM     13  C   UNL     1       4.208   3.815  19.201  0.00  0.00    +0.000 A 
ATOM     14  C   UNL     1       2.829   3.766  19.402  0.00  0.00    +0.000 A 
ATOM     15  C   UNL     1       2.128   4.972  19.529  0.00  0.00    +0.000 A 
ATOM     16  C   UNL     1       2.804   6.185  19.434  0.00  0.00    +0.000 A 
ATOM     17  N   UNL     1       4.133   6.215  19.225  0.00  0.00    +0.000 NA
BRANCH  14  18
ATOM     18  C   UNL     1       2.093   2.450  19.468  0.00  0.00    +0.000 C 
ATOM     19  C   UNL     1       0.761   2.525  18.737  0.00  0.00    +0.000 C 
ATOM     20  F   UNL     1       2.811   1.424  18.929  0.00  0.00    +0.000 F 
ATOM     21  F   UNL     1       1.835   2.074  20.756  0.00  0.00    +0.000 F 
ENDBRANCH  14  18
ENDBRANCH   1  16
BRANCH   8  22
ATOM     22  C   UNL     1      -0.225   9.707  22.695  0.00  0.00    +0.000 C 
ATOM     23  F   UNL     1      -0.925  10.704  23.305  0.00  0.00    +0.000 F 
ATOM     24  F   UNL     1      -1.005   8.595  22.794  0.00  0.00    +0.000 F 
ATOM     25  F   UNL     1       0.859   9.479  23.484  0.00  0.00    +0.000 F 
ENDBRANCH   8  22
TORSDOF 3
ENDMDL
MODEL 2
REMARK VINA RESULT:      -8.7      0.524      1.001
REMARK  Name = 
REMARK  5 active torsions:
REMARK  status: ('A' for Active; 'I' for Inactive)
REMARK    1  A    between atoms: C_1  and  C_2
REMARK    2  A    between atoms: C_4  and  C_5
REMARK    3  A    between atoms: C_5  and  C_6
REMARK    4  A    between atoms: C_10  and  N_11
REMARK    5  A    between atoms: C_18  and  C_19
REMARK                            x       y       z     vdW  Elec       q    Type
REMARK                         _______ _______ _______ _____ _____    ______ ____
ROOT
ATOM      1  N   UNL     1       2.167   7.446  19.373  0.00  0.00    +0.000 N 
ATOM      2  C   UNL     1       1.484   7.758  20.613  0.00  0.00    +0.000 C 
ATOM      3  C   UNL     1       0.911   9.115  20.366  0.00  0.00    +0.000 A 
ATOM      4  C   UNL     1       1.228   9.516  19.070  0.00  0.00    +0.000 A 
ATOM      5  C   UNL     1       0.817  10.727  18.543  0.00  0.00    +0.000 A 
ATOM      6  C   UNL     1       0.060  11.562  19.364  0.00  0.00    +0.000 A 
ATOM      7  C   UNL     1      -0.257  11.176  20.679  0.00  0.00    +0.000 A 
ATOM      8  C   UNL     1       0.170   9.941  21.208  0.00  0.00    +0.000 A 
ATOM      9  C   UNL     1       2.037   8.465  18.433  0.00  0.00    +0.000 C 
ATOM     10  O   UNL     1       2.448   8.584  17.294  0.00  0.00    +0.000 OA
ENDROOT
BRANCH   1  16
ATOM     11  C   UNL     1       6.449   5.290  19.253  0.00  0.00    +0.000 C 
ATOM     12  C   UNL     1       4.962   5.164  19.106  0.00  0.00    +0.000 A 
ATOM     13  C   UNL     1       4.367   3.938  18.852  0.00  0.00    +0.000 A 
ATOM     14  C   UNL     1       2.978   3.877  18.760  0.00  0.00    +0.000 A 
ATOM     15  C   UNL     1       2.243   5.056  18.941  0.00  0.00    +0.000 A 
ATOM     16  C   UNL     1       2.901   6.258  19.186  0.00  0.00    +0.000 A 
ATOM     17  N   UNL     1       4.245   6.302  19.257  0.00  0.00    +0.000 NA
BRANCH  14  18
ATOM     18  C   UNL     1       2.268   2.580  18.459  0.00  0.00    +0.000 C 
ATOM     19  C   UNL     1       0.808   2.639  18.880  0.00  0.00    +0.000 C 
ATOM     20  F   UNL     1       2.310   2.259  17.134  0.00  0.00    +0.000 F 
ATOM     21  F   UNL     1       2.841   1.522  19.106  0.00  0.00    +0.000 F 
ENDBRANCH  14  18
ENDBRANCH   1  16
BRANCH   8  22
ATOM     22  C   UNL     1      -0.166   9.568  22.627  0.00  0.00    +0.000 C 
ATOM     23  F   UNL     1       0.929   9.322  23.399  0.00  0.00    +0.000 F 
ATOM     24  F   UNL     1      -0.858  10.548  23.271  0.00  0.00    +0.000 F 
ATOM     25  F   UNL     1      -0.934   8.449  22.706  0.00  0.00    +0.000 F 
ENDBRANCH   8  22
TORSDOF 3
ENDMDL
MODEL 3
REMARK VINA RESULT:      -8.6      1.022      1.122
REMARK  Name = 
REMARK  5 active torsions:
REMARK  status: ('A' for Active; 'I' for Inactive)
REMARK    1  A    between atoms: C_1  and  C_2
REMARK    2  A    between atoms: C_4  and  C_5
REMARK    3  A    between atoms: C_5  and  C_6
REMARK    4  A    between atoms: C_10  and  N_11
REMARK    5  A    between atoms: C_18  and  C_19
REMARK                            x       y       z     vdW  Elec       q    Type
REMARK                         _______ _______ _______ _____ _____    ______ ____
ROOT
ATOM      1  N   UNL     1       1.993   7.703  19.353  0.00  0.00    +0.000 N 
ATOM      2  C   UNL     1       1.344   7.959  20.623  0.00  0.00    +0.000 C 
ATOM      3  C   UNL     1       0.816   9.348  20.473  0.00  0.00    +0.000 A 
ATOM      4  C   UNL     1       1.122   9.819  19.199  0.00  0.00    +0.000 A 
ATOM      5  C   UNL     1       0.745  11.074  18.757  0.00  0.00    +0.000 A 
ATOM      6  C   UNL     1       0.033  11.881  19.643  0.00  0.00    +0.000 A 
ATOM      7  C   UNL     1      -0.273  11.424  20.938  0.00  0.00    +0.000 A 
ATOM      8  C   UNL     1       0.119  10.144  21.380  0.00  0.00    +0.000 A 
ATOM      9  C   UNL     1       1.882   8.784  18.481  0.00  0.00    +0.000 C 
ATOM     10  O   UNL     1       2.277   8.960  17.344  0.00  0.00    +0.000 OA
ENDROOT
BRANCH   1  16
ATOM     11  C   UNL     1       5.265   5.413  16.698  0.00  0.00    +0.000 C 
ATOM     12  C   UNL     1       4.258   5.343  17.806  0.00  0.00    +0.000 A 
ATOM     13  C   UNL     1       4.068   4.176  18.531  0.00  0.00    +0.000 A 
ATOM     14  C   UNL     1       3.142   4.181  19.573  0.00  0.00    +0.000 A 
ATOM     15  C   UNL     1       2.451   5.368  19.848  0.00  0.00    +0.000 A 
ATOM     16  C   UNL     1       2.681   6.504  19.077  0.00  0.00    +0.000 A 
ATOM     17  N   UNL     1       3.569   6.478  18.066  0.00  0.00    +0.000 NA
BRANCH  14  18
ATOM     18  C   UNL     1       2.867   2.939  20.384  0.00  0.00    +0.000 C 
ATOM     19  C   UNL     1       2.069   3.263  21.637  0.00  0.00    +0.000 C 
ATOM     20  F   UNL     1       2.178   1.998  19.678  0.00  0.00    +0.000 F 
ATOM     21  F   UNL     1       4.020   2.322  20.779  0.00  0.00    +0.000 F 
ENDBRANCH  14  18
ENDBRANCH   1  16
BRANCH   8  22
ATOM     22  C   UNL     1      -0.204   9.694  22.780  0.00  0.00    +0.000 C 
ATOM     23  F   UNL     1      -0.908  10.614  23.497  0.00  0.00    +0.000 F 
ATOM     24  F   UNL     1      -0.953   8.558  22.800  0.00  0.00    +0.000 F 
ATOM     25  F   UNL     1       0.909   9.426  23.513  0.00  0.00    +0.000 F 
ENDBRANCH   8  22
TORSDOF 3
ENDMDL
MODEL 4
REMARK VINA RESULT:      -8.4      2.340      3.017
REMARK  Name = 
REMARK  5 active torsions:
REMARK  status: ('A' for Active; 'I' for Inactive)
REMARK    1  A    between atoms: C_1  and  C_2
REMARK    2  A    between atoms: C_4  and  C_5
REMARK    3  A    between atoms: C_5  and  C_6
REMARK    4  A    between atoms: C_10  and  N_11
REMARK    5  A    between atoms: C_18  and  C_19
REMARK                            x       y       z     vdW  Elec       q    Type
REMARK                         _______ _______ _______ _____ _____    ______ ____
ROOT
ATOM      1  N   UNL     1       1.937   8.124  19.205  0.00  0.00    +0.000 N 
ATOM      2  C   UNL     1       1.300   8.236  20.501  0.00  0.00    +0.000 C 
ATOM      3  C   UNL     1       0.650   9.580  20.458  0.00  0.00    +0.000 A 
ATOM      4  C   UNL     1       0.883  10.161  19.213  0.00  0.00    +0.000 A 
ATOM      5  C   UNL     1       0.388  11.404  18.867  0.00  0.00    +0.000 A 
ATOM      6  C   UNL     1      -0.369  12.084  19.820  0.00  0.00    +0.000 A 
ATOM      7  C   UNL     1      -0.603  11.516  21.085  0.00  0.00    +0.000 A 
ATOM      8  C   UNL     1      -0.090  10.249  21.430  0.00  0.00    +0.000 A 
ATOM      9  C   UNL     1       1.712   9.247  18.411  0.00  0.00    +0.000 C 
ATOM     10  O   UNL     1       2.062   9.533  17.282  0.00  0.00    +0.000 OA
ENDROOT
BRANCH   1  16
ATOM     11  C   UNL     1       3.153   3.556  20.014  0.00  0.00    +0.000 C 
ATOM     12  C   UNL     1       3.354   4.794  19.193  0.00  0.00    +0.000 A 
ATOM     13  C   UNL     1       4.222   4.806  18.112  0.00  0.00    +0.000 A 
ATOM     14  C   UNL     1       4.341   5.976  17.365  0.00  0.00    +0.000 A 
ATOM     15  C   UNL     1       3.568   7.086  17.732  0.00  0.00    +0.000 A 
ATOM     16  C   UNL     1       2.720   7.012  18.834  0.00  0.00    +0.000 A 
ATOM     17  N   UNL     1       2.628   5.879  19.553  0.00  0.00    +0.000 NA
BRANCH  14  18
ATOM     18  C   UNL     1       5.287   6.066  16.193  0.00  0.00    +0.000 C 
ATOM     19  C   UNL     1       5.434   4.722  15.498  0.00  0.00    +0.000 C 
ATOM     20  F   UNL     1       4.878   6.977  15.264  0.00  0.00    +0.000 F 
ATOM     21  F   UNL     1       6.534   6.472  16.574  0.00  0.00    +0.000 F 
ENDBRANCH  14  18
ENDBRANCH   1  16
BRANCH   8  22
ATOM     22  C   UNL     1      -0.339   9.679  22.801  0.00  0.00    +0.000 C 
ATOM     23  F   UNL     1      -1.118  10.474  23.587  0.00  0.00    +0.000 F 
ATOM     24  F   UNL     1      -0.970   8.474  22.756  0.00  0.00    +0.000 F 
ATOM     25  F   UNL     1       0.810   9.479  23.500  0.00  0.00    +0.000 F 
ENDBRANCH   8  22
TORSDOF 3
ENDMDL
MODEL 5
REMARK VINA RESULT:      -8.4      2.112      3.062
REMARK  Name = 
REMARK  5 active torsions:
REMARK  status: ('A' for Active; 'I' for Inactive)
REMARK    1  A    between atoms: C_1  and  C_2
REMARK    2  A    between atoms: C_4  and  C_5
REMARK    3  A    between atoms: C_5  and  C_6
REMARK    4  A    between atoms: C_10  and  N_11
REMARK    5  A    between atoms: C_18  and  C_19
REMARK                            x       y       z     vdW  Elec       q    Type
REMARK                         _______ _______ _______ _____ _____    ______ ____
ROOT
ATOM      1  N   UNL     1       1.975   8.034  19.204  0.00  0.00    +0.000 N 
ATOM      2  C   UNL     1       1.337   8.173  20.498  0.00  0.00    +0.000 C 
ATOM      3  C   UNL     1       0.716   9.531  20.439  0.00  0.00    +0.000 A 
ATOM      4  C   UNL     1       0.965  10.094  19.189  0.00  0.00    +0.000 A 
ATOM      5  C   UNL     1       0.498  11.344  18.829  0.00  0.00    +0.000 A 
ATOM      6  C   UNL     1      -0.246  12.050  19.773  0.00  0.00    +0.000 A 
ATOM      7  C   UNL     1      -0.495  11.499  21.044  0.00  0.00    +0.000 A 
ATOM      8  C   UNL     1      -0.011  10.225  21.402  0.00  0.00    +0.000 A 
ATOM      9  C   UNL     1       1.776   9.154  18.398  0.00  0.00    +0.000 C 
ATOM     10  O   UNL     1       2.134   9.421  17.267  0.00  0.00    +0.000 OA
ENDROOT
BRANCH   1  16
ATOM     11  C   UNL     1       3.155   3.477  20.118  0.00  0.00    +0.000 C 
ATOM     12  C   UNL     1       3.349   4.687  19.255  0.00  0.00    +0.000 A 
ATOM     13  C   UNL     1       4.189   4.656  18.152  0.00  0.00    +0.000 A 
ATOM     14  C   UNL     1       4.302   5.802  17.367  0.00  0.00    +0.000 A 
ATOM     15  C   UNL     1       3.553   6.932  17.721  0.00  0.00    +0.000 A 
ATOM     16  C   UNL     1       2.734   6.902  18.846  0.00  0.00    +0.000 A 
ATOM     17  N   UNL     1       2.647   5.791  19.601  0.00  0.00    +0.000 NA
BRANCH  14  18
ATOM     18  C   UNL     1       5.218   5.845  16.169  0.00  0.00    +0.000 C 
ATOM     19  C   UNL     1       6.678   5.905  16.591  0.00  0.00    +0.000 C 
ATOM     20  F   UNL     1       5.060   4.762  15.355  0.00  0.00    +0.000 F 
ATOM     21  F   UNL     1       4.973   6.931  15.378  0.00  0.00    +0.000 F 
ENDBRANCH  14  18
ENDBRANCH   1  16
BRANCH   8  22
ATOM     22  C   UNL     1      -0.276   9.675  22.778  0.00  0.00    +0.000 C 
ATOM     23  F   UNL     1       0.858   9.428  23.493  0.00  0.00    +0.000 F 
ATOM     24  F   UNL     1      -1.017  10.523  23.543  0.00  0.00    +0.000 F 
ATOM     25  F   UNL     1      -0.958   8.498  22.749  0.00  0.00    +0.000 F 
ENDBRANCH   8  22
TORSDOF 3
ENDMDL
MODEL 6
REMARK VINA RESULT:      -8.4      1.032      1.295
REMARK  Name = 
REMARK  5 active torsions:
REMARK  status: ('A' for Active; 'I' for Inactive)
REMARK    1  A    between atoms: C_1  and  C_2
REMARK    2  A    between atoms: C_4  and  C_5
REMARK    3  A    between atoms: C_5  and  C_6
REMARK    4  A    between atoms: C_10  and  N_11
REMARK    5  A    between atoms: C_18  and  C_19
REMARK                            x       y       z     vdW  Elec       q    Type
REMARK                         _______ _______ _______ _____ _____    ______ ____
ROOT
ATOM      1  N   UNL     1       1.957   7.955  19.067  0.00  0.00    +0.000 N 
ATOM      2  C   UNL     1       1.339   8.085  20.372  0.00  0.00    +0.000 C 
ATOM      3  C   UNL     1       0.828   9.489  20.379  0.00  0.00    +0.000 A 
ATOM      4  C   UNL     1       1.113  10.086  19.153  0.00  0.00    +0.000 A 
ATOM      5  C   UNL     1       0.744  11.384  18.852  0.00  0.00    +0.000 A 
ATOM      6  C   UNL     1       0.063  12.103  19.833  0.00  0.00    +0.000 A 
ATOM      7  C   UNL     1      -0.222  11.517  21.081  0.00  0.00    +0.000 A 
ATOM      8  C   UNL     1       0.162  10.194  21.378  0.00  0.00    +0.000 A 
ATOM      9  C   UNL     1       1.843   9.122  18.314  0.00  0.00    +0.000 C 
ATOM     10  O   UNL     1       2.215   9.410  17.192  0.00  0.00    +0.000 OA
ENDROOT
BRANCH   1  16
ATOM     11  C   UNL     1       5.702   5.992  16.804  0.00  0.00    +0.000 C 
ATOM     12  C   UNL     1       4.421   5.780  17.553  0.00  0.00    +0.000 A 
ATOM     13  C   UNL     1       3.966   4.504  17.851  0.00  0.00    +0.000 A 
ATOM     14  C   UNL     1       2.786   4.370  18.581  0.00  0.00    +0.000 A 
ATOM     15  C   UNL     1       2.117   5.532  18.991  0.00  0.00    +0.000 A 
ATOM     16  C   UNL     1       2.623   6.784  18.653  0.00  0.00    +0.000 A 
ATOM     17  N   UNL     1       3.756   6.895  17.935  0.00  0.00    +0.000 NA
BRANCH  14  18
ATOM     18  C   UNL     1       2.220   3.012  18.916  0.00  0.00    +0.000 C 
ATOM     19  C   UNL     1       0.928   3.133  19.709  0.00  0.00    +0.000 C 
ATOM     20  F   UNL     1       1.963   2.267  17.803  0.00  0.00    +0.000 F 
ATOM     21  F   UNL     1       3.091   2.266  19.657  0.00  0.00    +0.000 F 
ENDBRANCH  14  18
ENDBRANCH   1  16
BRANCH   8  22
ATOM     22  C   UNL     1      -0.137   9.606  22.731  0.00  0.00    +0.000 C 
ATOM     23  F   UNL     1      -0.882   8.466  22.676  0.00  0.00    +0.000 F 
ATOM     24  F   UNL     1       0.993   9.275  23.415  0.00  0.00    +0.000 F 
ATOM     25  F   UNL     1      -0.828  10.461  23.532  0.00  0.00    +0.000 F 
ENDBRANCH   8  22
TORSDOF 3
ENDMDL
MODEL 7
REMARK VINA RESULT:      -8.3      1.004      1.298
REMARK  Name = 
REMARK  5 active torsions:
REMARK  status: ('A' for Active; 'I' for Inactive)
REMARK    1  A    between atoms: C_1  and  C_2
REMARK    2  A    between atoms: C_4  and  C_5
REMARK    3  A    between atoms: C_5  and  C_6
REMARK    4  A    between atoms: C_10  and  N_11
REMARK    5  A    between atoms: C_18  and  C_19
REMARK                            x       y       z     vdW  Elec       q    Type
REMARK                         _______ _______ _______ _____ _____    ______ ____
ROOT
ATOM      1  N   UNL     1       1.938   7.855  19.399  0.00  0.00    +0.000 N 
ATOM      2  C   UNL     1       1.280   8.090  20.668  0.00  0.00    +0.000 C 
ATOM      3  C   UNL     1       0.729   9.472  20.527  0.00  0.00    +0.000 A 
ATOM      4  C   UNL     1       1.032   9.958  19.257  0.00  0.00    +0.000 A 
ATOM      5  C   UNL     1       0.635  11.209  18.824  0.00  0.00    +0.000 A 
ATOM      6  C   UNL     1      -0.093  11.997  19.714  0.00  0.00    +0.000 A 
ATOM      7  C   UNL     1      -0.396  11.525  21.004  0.00  0.00    +0.000 A 
ATOM      8  C   UNL     1       0.016  10.249  21.437  0.00  0.00    +0.000 A 
ATOM      9  C   UNL     1       1.812   8.940  18.534  0.00  0.00    +0.000 C 
ATOM     10  O   UNL     1       2.207   9.132  17.400  0.00  0.00    +0.000 OA
ENDROOT
BRANCH   1  16
ATOM     11  C   UNL     1       5.224   5.629  16.708  0.00  0.00    +0.000 C 
ATOM     12  C   UNL     1       4.232   5.539  17.828  0.00  0.00    +0.000 A 
ATOM     13  C   UNL     1       4.075   4.370  18.556  0.00  0.00    +0.000 A 
ATOM     14  C   UNL     1       3.161   4.357  19.608  0.00  0.00    +0.000 A 
ATOM     15  C   UNL     1       2.449   5.531  19.891  0.00  0.00    +0.000 A 
ATOM     16  C   UNL     1       2.647   6.670  19.116  0.00  0.00    +0.000 A 
ATOM     17  N   UNL     1       3.523   6.661  18.094  0.00  0.00    +0.000 NA
BRANCH  14  18
ATOM     18  C   UNL     1       2.921   3.111  20.425  0.00  0.00    +0.000 C 
ATOM     19  C   UNL     1       1.854   2.232  19.790  0.00  0.00    +0.000 C 
ATOM     20  F   UNL     1       4.050   2.361  20.572  0.00  0.00    +0.000 F 
ATOM     21  F   UNL     1       2.512   3.404  21.695  0.00  0.00    +0.000 F 
ENDBRANCH  14  18
ENDBRANCH   1  16
BRANCH   8  22
ATOM     22  C   UNL     1      -0.305   9.783  22.832  0.00  0.00    +0.000 C 
ATOM     23  F   UNL     1       0.800   9.526  23.588  0.00  0.00    +0.000 F 
ATOM     24  F   UNL     1      -1.026  10.700  23.533  0.00  0.00    +0.000 F 
ATOM     25  F   UNL     1      -1.036   8.636  22.845  0.00  0.00    +0.000 F 
ENDBRANCH   8  22
TORSDOF 3
ENDMDL
MODEL 8
REMARK VINA RESULT:      -8.3      1.216      1.385
REMARK  Name = 
REMARK  5 active torsions:
REMARK  status: ('A' for Active; 'I' for Inactive)
REMARK    1  A    between atoms: C_1  and  C_2
REMARK    2  A    between atoms: C_4  and  C_5
REMARK    3  A    between atoms: C_5  and  C_6
REMARK    4  A    between atoms: C_10  and  N_11
REMARK    5  A    between atoms: C_18  and  C_19
REMARK                            x       y       z     vdW  Elec       q    Type
REMARK                         _______ _______ _______ _____ _____    ______ ____
ROOT
ATOM      1  N   UNL     1       1.980   8.004  18.981  0.00  0.00    +0.000 N 
ATOM      2  C   UNL     1       1.368   8.098  20.292  0.00  0.00    +0.000 C 
ATOM      3  C   UNL     1       0.840   9.495  20.334  0.00  0.00    +0.000 A 
ATOM      4  C   UNL     1       1.112  10.123  19.120  0.00  0.00    +0.000 A 
ATOM      5  C   UNL     1       0.726  11.423  18.852  0.00  0.00    +0.000 A 
ATOM      6  C   UNL     1       0.042  12.112  19.853  0.00  0.00    +0.000 A 
ATOM      7  C   UNL     1      -0.228  11.494  21.088  0.00  0.00    +0.000 A 
ATOM      8  C   UNL     1       0.172  10.169  21.353  0.00  0.00    +0.000 A 
ATOM      9  C   UNL     1       1.848   9.186  18.256  0.00  0.00    +0.000 C 
ATOM     10  O   UNL     1       2.210   9.505  17.139  0.00  0.00    +0.000 OA
ENDROOT
BRANCH   1  16
ATOM     11  C   UNL     1       5.937   6.102  17.054  0.00  0.00    +0.000 C 
ATOM     12  C   UNL     1       4.556   5.877  17.592  0.00  0.00    +0.000 A 
ATOM     13  C   UNL     1       4.019   4.602  17.682  0.00  0.00    +0.000 A 
ATOM     14  C   UNL     1       2.743   4.452  18.224  0.00  0.00    +0.000 A 
ATOM     15  C   UNL     1       2.064   5.597  18.663  0.00  0.00    +0.000 A 
ATOM     16  C   UNL     1       2.656   6.850  18.537  0.00  0.00    +0.000 A 
ATOM     17  N   UNL     1       3.883   6.979  17.998  0.00  0.00    +0.000 NA
BRANCH  14  18
ATOM     18  C   UNL     1       2.089   3.097  18.327  0.00  0.00    +0.000 C 
ATOM     19  C   UNL     1       2.425   2.420  19.647  0.00  0.00    +0.000 C 
ATOM     20  F   UNL     1       0.731   3.166  18.224  0.00  0.00    +0.000 F 
ATOM     21  F   UNL     1       2.485   2.261  17.322  0.00  0.00    +0.000 F 
ENDBRANCH  14  18
ENDBRANCH   1  16
BRANCH   8  22
ATOM     22  C   UNL     1      -0.113   9.546  22.694  0.00  0.00    +0.000 C 
ATOM     23  F   UNL     1      -0.805  10.363  23.537  0.00  0.00    +0.000 F 
ATOM     24  F   UNL     1      -0.853   8.409  22.590  0.00  0.00    +0.000 F 
ATOM     25  F   UNL     1       1.021   9.201  23.361  0.00  0.00    +0.000 F 
ENDBRANCH   8  22
TORSDOF 3
ENDMDL
MODEL 9
REMARK VINA RESULT:      -8.3      1.827      2.619
REMARK  Name = 
REMARK  5 active torsions:
REMARK  status: ('A' for Active; 'I' for Inactive)
REMARK    1  A    between atoms: C_1  and  C_2
REMARK    2  A    between atoms: C_4  and  C_5
REMARK    3  A    between atoms: C_5  and  C_6
REMARK    4  A    between atoms: C_10  and  N_11
REMARK    5  A    between atoms: C_18  and  C_19
REMARK                            x       y       z     vdW  Elec       q    Type
REMARK                         _______ _______ _______ _____ _____    ______ ____
ROOT
ATOM      1  N   UNL     1       1.989   7.670  19.415  0.00  0.00    +0.000 N 
ATOM      2  C   UNL     1       1.325   7.953  20.672  0.00  0.00    +0.000 C 
ATOM      3  C   UNL     1       0.818   9.348  20.494  0.00  0.00    +0.000 A 
ATOM      4  C   UNL     1       1.150   9.796  19.217  0.00  0.00    +0.000 A 
ATOM      5  C   UNL     1       0.797  11.049  18.753  0.00  0.00    +0.000 A 
ATOM      6  C   UNL     1       0.083  11.878  19.616  0.00  0.00    +0.000 A 
ATOM      7  C   UNL     1      -0.249  11.444  20.913  0.00  0.00    +0.000 A 
ATOM      8  C   UNL     1       0.119  10.166  21.378  0.00  0.00    +0.000 A 
ATOM      9  C   UNL     1       1.907   8.740  18.526  0.00  0.00    +0.000 C 
ATOM     10  O   UNL     1       2.320   8.894  17.392  0.00  0.00    +0.000 OA
ENDROOT
BRANCH   1  16
ATOM     11  C   UNL     1       2.782   3.120  20.703  0.00  0.00    +0.000 C 
ATOM     12  C   UNL     1       3.093   4.242  19.759  0.00  0.00    +0.000 A 
ATOM     13  C   UNL     1       3.955   4.061  18.688  0.00  0.00    +0.000 A 
ATOM     14  C   UNL     1       4.179   5.131  17.824  0.00  0.00    +0.000 A 
ATOM     15  C   UNL     1       3.512   6.340  18.068  0.00  0.00    +0.000 A 
ATOM     16  C   UNL     1       2.665   6.459  19.167  0.00  0.00    +0.000 A 
ATOM     17  N   UNL     1       2.472   5.420  20.000  0.00  0.00    +0.000 NA
BRANCH  14  18
ATOM     18  C   UNL     1       5.125   5.011  16.654  0.00  0.00    +0.000 C 
ATOM     19  C   UNL     1       5.200   6.312  15.869  0.00  0.00    +0.000 C 
ATOM     20  F   UNL     1       6.390   4.681  17.041  0.00  0.00    +0.000 F 
ATOM     21  F   UNL     1       4.743   4.027  15.788  0.00  0.00    +0.000 F 
ENDBRANCH  14  18
ENDBRANCH   1  16
BRANCH   8  22
ATOM     22  C   UNL     1      -0.231   9.741  22.779  0.00  0.00    +0.000 C 
ATOM     23  F   UNL     1      -0.926  10.683  23.476  0.00  0.00    +0.000 F 
ATOM     24  F   UNL     1      -1.004   8.620  22.804  0.00  0.00    +0.000 F 
ATOM     25  F   UNL     1       0.867   9.460  23.531  0.00  0.00    +0.000 F 
ENDBRANCH   8  22
TORSDOF 3
ENDMDL
