MODEL 1
REMARK VINA RESULT:      -8.9      0.000      0.000
REMARK  Name = 
REMARK  4 active torsions:
REMARK  status: ('A' for Active; 'I' for Inactive)
REMARK    1  A    between atoms: C_1  and  C_2
REMARK    2  A    between atoms: C_4  and  N_5
REMARK    3  A    between atoms: C_6  and  C_8
REMARK    4  A    between atoms: C_18  and  C_19
REMARK                            x       y       z     vdW  Elec       q    Type
REMARK                         _______ _______ _______ _____ _____    ______ ____
ROOT
ATOM      1  N   UNL     1       3.117   6.861  19.786  0.00  0.00    +0.000 N 
ATOM      2  C   UNL     1       1.846   6.967  20.333  0.00  0.00    +0.000 C 
ATOM      3  O   UNL     1       1.069   6.049  20.550  0.00  0.00    +0.000 OA
ATOM      4  H   UNL     1       3.652   7.713  19.715  0.00  0.00    +0.000 HD
ENDROOT
BRANCH   1   8
ATOM      5  C   UNL     1       4.306   2.067  20.163  0.00  0.00    +0.000 C 
ATOM      6  C   UNL     1       4.296   3.360  19.405  0.00  0.00    +0.000 A 
ATOM      7  C   UNL     1       3.727   4.493  19.961  0.00  0.00    +0.000 A 
ATOM      8  C   UNL     1       3.722   5.689  19.243  0.00  0.00    +0.000 A 
ATOM      9  C   UNL     1       4.307   5.713  17.941  0.00  0.00    +0.000 A 
ATOM     10  C   UNL     1       4.385   6.844  17.084  0.00  0.00    +0.000 A 
ATOM     11  C   UNL     1       4.985   6.769  15.823  0.00  0.00    +0.000 A 
ATOM     12  C   UNL     1       5.520   5.567  15.388  0.00  0.00    +0.000 A 
ATOM     13  C   UNL     1       5.450   4.449  16.216  0.00  0.00    +0.000 A 
ATOM     14  C   UNL     1       4.862   4.496  17.473  0.00  0.00    +0.000 A 
ATOM     15  N   UNL     1       4.856   3.359  18.180  0.00  0.00    +0.000 NA
ENDBRANCH   1   8
BRANCH   2  16
ATOM     16  C   UNL     1       1.464   8.328  20.665  0.00  0.00    +0.000 A 
ATOM     17  C   UNL     1       1.303   8.910  21.931  0.00  0.00    +0.000 A 
ATOM     18  N   UNL     1       0.943  10.187  21.868  0.00  0.00    +0.000 NA
ATOM     19  N   UNL     1       0.820  10.455  20.531  0.00  0.00    +0.000 N 
ATOM     20  C   UNL     1       0.444  11.773  20.098  0.00  0.00    +0.000 A 
ATOM     21  C   UNL     1       0.265  12.775  21.050  0.00  0.00    +0.000 A 
ATOM     22  C   UNL     1      -0.056  14.062  20.620  0.00  0.00    +0.000 A 
ATOM     23  C   UNL     1      -0.197  14.311  19.260  0.00  0.00    +0.000 A 
ATOM     24  C   UNL     1      -0.014  13.258  18.382  0.00  0.00    +0.000 A 
ATOM     25  N   UNL     1       0.296  12.004  18.772  0.00  0.00    +0.000 NA
ATOM     26  C   UNL     1       1.130   9.342  19.770  0.00  0.00    +0.000 A 
BRANCH  26  27
ATOM     27  C   UNL     1       1.115   9.365  18.292  0.00  0.00    +0.000 C 
ATOM     28  F   UNL     1       1.445   8.161  17.754  0.00  0.00    +0.000 F 
ATOM     29  F   UNL     1      -0.099   9.678  17.782  0.00  0.00    +0.000 F 
ATOM     30  F   UNL     1       2.036  10.223  17.783  0.00  0.00    +0.000 F 
ENDBRANCH  26  27
ENDBRANCH   2  16
TORSDOF 3
ENDMDL
MODEL 2
REMARK VINA RESULT:      -8.7      2.022      2.987
REMARK  Name = 
REMARK  4 active torsions:
REMARK  status: ('A' for Active; 'I' for Inactive)
REMARK    1  A    between atoms: C_1  and  C_2
REMARK    2  A    between atoms: C_4  and  N_5
REMARK    3  A    between atoms: C_6  and  C_8
REMARK    4  A    between atoms: C_18  and  C_19
REMARK                            x       y       z     vdW  Elec       q    Type
REMARK                         _______ _______ _______ _____ _____    ______ ____
ROOT
ATOM      1  N   UNL     1       2.269   6.672  20.240  0.00  0.00    +0.000 N 
ATOM      2  C   UNL     1       2.000   7.923  19.703  0.00  0.00    +0.000 C 
ATOM      3  O   UNL     1       2.292   8.313  18.582  0.00  0.00    +0.000 OA
ATOM      4  H   UNL     1       1.916   6.492  21.168  0.00  0.00    +0.000 HD
ENDROOT
BRANCH   1   8
ATOM      5  C   UNL     1       6.601   5.036  18.479  0.00  0.00    +0.000 C 
ATOM      6  C   UNL     1       5.152   4.824  18.804  0.00  0.00    +0.000 A 
ATOM      7  C   UNL     1       4.400   5.849  19.351  0.00  0.00    +0.000 A 
ATOM      8  C   UNL     1       3.055   5.638  19.651  0.00  0.00    +0.000 A 
ATOM      9  C   UNL     1       2.483   4.357  19.386  0.00  0.00    +0.000 A 
ATOM     10  C   UNL     1       1.135   3.979  19.630  0.00  0.00    +0.000 A 
ATOM     11  C   UNL     1       0.666   2.696  19.329  0.00  0.00    +0.000 A 
ATOM     12  C   UNL     1       1.529   1.762  18.781  0.00  0.00    +0.000 A 
ATOM     13  C   UNL     1       2.854   2.115  18.536  0.00  0.00    +0.000 A 
ATOM     14  C   UNL     1       3.346   3.383  18.823  0.00  0.00    +0.000 A 
ATOM     15  N   UNL     1       4.634   3.609  18.542  0.00  0.00    +0.000 NA
ENDBRANCH   1   8
BRANCH   2  16
ATOM     16  C   UNL     1       1.292   8.809  20.612  0.00  0.00    +0.000 A 
ATOM     17  C   UNL     1       1.389   8.892  22.008  0.00  0.00    +0.000 A 
ATOM     18  N   UNL     1       0.591   9.820  22.525  0.00  0.00    +0.000 NA
ATOM     19  N   UNL     1      -0.086  10.341  21.455  0.00  0.00    +0.000 N 
ATOM     20  C   UNL     1      -1.043  11.393  21.658  0.00  0.00    +0.000 A 
ATOM     21  C   UNL     1      -1.226  11.906  22.941  0.00  0.00    +0.000 A 
ATOM     22  C   UNL     1      -2.124  12.957  23.124  0.00  0.00    +0.000 A 
ATOM     23  C   UNL     1      -2.818  13.459  22.029  0.00  0.00    +0.000 A 
ATOM     24  C   UNL     1      -2.587  12.886  20.793  0.00  0.00    +0.000 A 
ATOM     25  N   UNL     1      -1.724  11.868  20.589  0.00  0.00    +0.000 NA
ATOM     26  C   UNL     1       0.318   9.744  20.273  0.00  0.00    +0.000 A 
BRANCH  26  27
ATOM     27  C   UNL     1      -0.226  10.145  18.959  0.00  0.00    +0.000 C 
ATOM     28  F   UNL     1       0.312   9.429  17.937  0.00  0.00    +0.000 F 
ATOM     29  F   UNL     1      -1.566   9.971  18.868  0.00  0.00    +0.000 F 
ATOM     30  F   UNL     1       0.066  11.436  18.653  0.00  0.00    +0.000 F 
ENDBRANCH  26  27
ENDBRANCH   2  16
TORSDOF 3
ENDMDL
MODEL 3
REMARK VINA RESULT:      -8.6      2.456      3.692
REMARK  Name = 
REMARK  4 active torsions:
REMARK  status: ('A' for Active; 'I' for Inactive)
REMARK    1  A    between atoms: C_1  and  C_2
REMARK    2  A    between atoms: C_4  and  N_5
REMARK    3  A    between atoms: C_6  and  C_8
REMARK    4  A    between atoms: C_18  and  C_19
REMARK                            x       y       z     vdW  Elec       q    Type
REMARK                         _______ _______ _______ _____ _____    ______ ____
ROOT
ATOM      1  N   UNL     1       1.678   8.158  19.125  0.00  0.00    +0.000 N 
ATOM      2  C   UNL     1       1.488   9.388  18.513  0.00  0.00    +0.000 C 
ATOM      3  O   UNL     1       1.967   9.755  17.450  0.00  0.00    +0.000 OA
ATOM      4  H   UNL     1       1.170   7.994  19.982  0.00  0.00    +0.000 HD
ENDROOT
BRANCH   1   8
ATOM      5  C   UNL     1       5.316   6.540  16.177  0.00  0.00    +0.000 C 
ATOM      6  C   UNL     1       4.343   6.327  17.299  0.00  0.00    +0.000 A 
ATOM      7  C   UNL     1       3.468   7.334  17.666  0.00  0.00    +0.000 A 
ATOM      8  C   UNL     1       2.570   7.124  18.713  0.00  0.00    +0.000 A 
ATOM      9  C   UNL     1       2.581   5.866  19.387  0.00  0.00    +0.000 A 
ATOM     10  C   UNL     1       1.735   5.492  20.467  0.00  0.00    +0.000 A 
ATOM     11  C   UNL     1       1.817   4.228  21.060  0.00  0.00    +0.000 A 
ATOM     12  C   UNL     1       2.743   3.310  20.591  0.00  0.00    +0.000 A 
ATOM     13  C   UNL     1       3.580   3.660  19.534  0.00  0.00    +0.000 A 
ATOM     14  C   UNL     1       3.518   4.908  18.926  0.00  0.00    +0.000 A 
ATOM     15  N   UNL     1       4.370   5.131  17.917  0.00  0.00    +0.000 NA
ENDBRANCH   1   8
BRANCH   2  16
ATOM     16  C   UNL     1       0.618  10.283  19.257  0.00  0.00    +0.000 A 
ATOM     17  C   UNL     1       0.886  10.980  20.444  0.00  0.00    +0.000 A 
ATOM     18  N   UNL     1      -0.143  11.713  20.854  0.00  0.00    +0.000 NA
ATOM     19  N   UNL     1      -1.137  11.469  19.943  0.00  0.00    +0.000 N 
ATOM     20  C   UNL     1      -2.410  12.120  20.083  0.00  0.00    +0.000 A 
ATOM     21  C   UNL     1      -2.594  13.037  21.116  0.00  0.00    +0.000 A 
ATOM     22  C   UNL     1      -3.817  13.698  21.220  0.00  0.00    +0.000 A 
ATOM     23  C   UNL     1      -4.821  13.423  20.298  0.00  0.00    +0.000 A 
ATOM     24  C   UNL     1      -4.561  12.492  19.310  0.00  0.00    +0.000 A 
ATOM     25  N   UNL     1      -3.386  11.838  19.189  0.00  0.00    +0.000 NA
ATOM     26  C   UNL     1      -0.704  10.600  18.957  0.00  0.00    +0.000 A 
BRANCH  26  27
ATOM     27  C   UNL     1      -1.565  10.196  17.826  0.00  0.00    +0.000 C 
ATOM     28  F   UNL     1      -0.947   9.317  16.994  0.00  0.00    +0.000 F 
ATOM     29  F   UNL     1      -2.708   9.588  18.224  0.00  0.00    +0.000 F 
ATOM     30  F   UNL     1      -1.887  11.245  17.025  0.00  0.00    +0.000 F 
ENDBRANCH  26  27
ENDBRANCH   2  16
TORSDOF 3
ENDMDL
MODEL 4
REMARK VINA RESULT:      -8.5      2.116      3.181
REMARK  Name = 
REMARK  4 active torsions:
REMARK  status: ('A' for Active; 'I' for Inactive)
REMARK    1  A    between atoms: C_1  and  C_2
REMARK    2  A    between atoms: C_4  and  N_5
REMARK    3  A    between atoms: C_6  and  C_8
REMARK    4  A    between atoms: C_18  and  C_19
REMARK                            x       y       z     vdW  Elec       q    Type
REMARK                         _______ _______ _______ _____ _____    ______ ____
ROOT
ATOM      1  N   UNL     1       2.067   7.067  19.236  0.00  0.00    +0.000 N 
ATOM      2  C   UNL     1       1.826   8.385  18.876  0.00  0.00    +0.000 C 
ATOM      3  O   UNL     1       2.064   8.900  17.793  0.00  0.00    +0.000 OA
ATOM      4  H   UNL     1       1.767   6.786  20.157  0.00  0.00    +0.000 HD
ENDROOT
BRANCH   1   8
ATOM      5  C   UNL     1       5.674   5.837  16.070  0.00  0.00    +0.000 C 
ATOM      6  C   UNL     1       4.513   5.467  16.945  0.00  0.00    +0.000 A 
ATOM      7  C   UNL     1       3.837   6.441  17.659  0.00  0.00    +0.000 A 
ATOM      8  C   UNL     1       2.761   6.083  18.471  0.00  0.00    +0.000 A 
ATOM      9  C   UNL     1       2.385   4.708  18.548  0.00  0.00    +0.000 A 
ATOM     10  C   UNL     1       1.317   4.179  19.323  0.00  0.00    +0.000 A 
ATOM     11  C   UNL     1       1.021   2.812  19.328  0.00  0.00    +0.000 A 
ATOM     12  C   UNL     1       1.782   1.943  18.563  0.00  0.00    +0.000 A 
ATOM     13  C   UNL     1       2.832   2.445  17.798  0.00  0.00    +0.000 A 
ATOM     14  C   UNL     1       3.146   3.798  17.773  0.00  0.00    +0.000 A 
ATOM     15  N   UNL     1       4.175   4.165  16.999  0.00  0.00    +0.000 NA
ENDBRANCH   1   8
BRANCH   2  16
ATOM     16  C   UNL     1       1.223   9.178  19.933  0.00  0.00    +0.000 A 
ATOM     17  C   UNL     1       1.555   9.222  21.295  0.00  0.00    +0.000 A 
ATOM     18  N   UNL     1       0.792  10.062  21.984  0.00  0.00    +0.000 NA
ATOM     19  N   UNL     1      -0.098  10.562  21.071  0.00  0.00    +0.000 N 
ATOM     20  C   UNL     1      -1.082  11.525  21.486  0.00  0.00    +0.000 A 
ATOM     21  C   UNL     1      -1.076  11.978  22.804  0.00  0.00    +0.000 A 
ATOM     22  C   UNL     1      -2.004  12.944  23.187  0.00  0.00    +0.000 A 
ATOM     23  C   UNL     1      -2.914  13.425  22.252  0.00  0.00    +0.000 A 
ATOM     24  C   UNL     1      -2.860  12.915  20.969  0.00  0.00    +0.000 A 
ATOM     25  N   UNL     1      -1.972  11.979  20.572  0.00  0.00    +0.000 NA
ATOM     26  C   UNL     1       0.137  10.041  19.811  0.00  0.00    +0.000 A 
BRANCH  26  27
ATOM     27  C   UNL     1      -0.656  10.441  18.630  0.00  0.00    +0.000 C 
ATOM     28  F   UNL     1      -0.310   9.743  17.516  0.00  0.00    +0.000 F 
ATOM     29  F   UNL     1      -1.985  10.240  18.795  0.00  0.00    +0.000 F 
ATOM     30  F   UNL     1      -0.451  11.739  18.289  0.00  0.00    +0.000 F 
ENDBRANCH  26  27
ENDBRANCH   2  16
TORSDOF 3
ENDMDL
MODEL 5
REMARK VINA RESULT:      -8.5      2.255      3.787
REMARK  Name = 
REMARK  4 active torsions:
REMARK  status: ('A' for Active; 'I' for Inactive)
REMARK    1  A    between atoms: C_1  and  C_2
REMARK    2  A    between atoms: C_4  and  N_5
REMARK    3  A    between atoms: C_6  and  C_8
REMARK    4  A    between atoms: C_18  and  C_19
REMARK                            x       y       z     vdW  Elec       q    Type
REMARK                         _______ _______ _______ _____ _____    ______ ____
ROOT
ATOM      1  N   UNL     1       1.885   6.816  18.426  0.00  0.00    +0.000 N 
ATOM      2  C   UNL     1       2.387   8.101  18.280  0.00  0.00    +0.000 C 
ATOM      3  O   UNL     1       3.488   8.408  17.846  0.00  0.00    +0.000 OA
ATOM      4  H   UNL     1       0.935   6.735  18.756  0.00  0.00    +0.000 HD
ENDROOT
BRANCH   1   8
ATOM      5  C   UNL     1       5.356   4.182  16.068  0.00  0.00    +0.000 C 
ATOM      6  C   UNL     1       4.280   4.304  17.106  0.00  0.00    +0.000 A 
ATOM      7  C   UNL     1       3.588   5.492  17.261  0.00  0.00    +0.000 A 
ATOM      8  C   UNL     1       2.592   5.592  18.232  0.00  0.00    +0.000 A 
ATOM      9  C   UNL     1       2.311   4.456  19.049  0.00  0.00    +0.000 A 
ATOM     10  C   UNL     1       1.331   4.392  20.077  0.00  0.00    +0.000 A 
ATOM     11  C   UNL     1       1.125   3.226  20.823  0.00  0.00    +0.000 A 
ATOM     12  C   UNL     1       1.890   2.101  20.562  0.00  0.00    +0.000 A 
ATOM     13  C   UNL     1       2.855   2.148  19.558  0.00  0.00    +0.000 A 
ATOM     14  C   UNL     1       3.079   3.292  18.801  0.00  0.00    +0.000 A 
ATOM     15  N   UNL     1       4.030   3.218  17.863  0.00  0.00    +0.000 NA
ENDBRANCH   1   8
BRANCH   2  16
ATOM     16  C   UNL     1       1.461   9.141  18.694  0.00  0.00    +0.000 A 
ATOM     17  C   UNL     1       0.924  10.190  17.934  0.00  0.00    +0.000 A 
ATOM     18  N   UNL     1       0.104  10.965  18.634  0.00  0.00    +0.000 NA
ATOM     19  N   UNL     1       0.124  10.448  19.902  0.00  0.00    +0.000 N 
ATOM     20  C   UNL     1      -0.674  11.052  20.933  0.00  0.00    +0.000 A 
ATOM     21  C   UNL     1      -1.503  12.125  20.610  0.00  0.00    +0.000 A 
ATOM     22  C   UNL     1      -2.307  12.678  21.605  0.00  0.00    +0.000 A 
ATOM     23  C   UNL     1      -2.258  12.153  22.891  0.00  0.00    +0.000 A 
ATOM     24  C   UNL     1      -1.400  11.096  23.131  0.00  0.00    +0.000 A 
ATOM     25  N   UNL     1      -0.611  10.544  22.186  0.00  0.00    +0.000 NA
ATOM     26  C   UNL     1       0.944   9.336  19.972  0.00  0.00    +0.000 A 
BRANCH  26  27
ATOM     27  C   UNL     1       1.119   8.559  21.217  0.00  0.00    +0.000 C 
ATOM     28  F   UNL     1       1.944   7.493  21.050  0.00  0.00    +0.000 F 
ATOM     29  F   UNL     1       1.657   9.289  22.223  0.00  0.00    +0.000 F 
ATOM     30  F   UNL     1      -0.047   8.014  21.651  0.00  0.00    +0.000 F 
ENDBRANCH  26  27
ENDBRANCH   2  16
TORSDOF 3
ENDMDL
MODEL 6
REMARK VINA RESULT:      -8.3      0.995      1.026
REMARK  Name = 
REMARK  4 active torsions:
REMARK  status: ('A' for Active; 'I' for Inactive)
REMARK    1  A    between atoms: C_1  and  C_2
REMARK    2  A    between atoms: C_4  and  N_5
REMARK    3  A    between atoms: C_6  and  C_8
REMARK    4  A    between atoms: C_18  and  C_19
REMARK                            x       y       z     vdW  Elec       q    Type
REMARK                         _______ _______ _______ _____ _____    ______ ____
ROOT
ATOM      1  N   UNL     1       2.913   6.861  19.160  0.00  0.00    +0.000 N 
ATOM      2  C   UNL     1       1.915   6.917  20.123  0.00  0.00    +0.000 C 
ATOM      3  O   UNL     1       1.361   5.965  20.653  0.00  0.00    +0.000 OA
ATOM      4  H   UNL     1       3.300   7.743  18.858  0.00  0.00    +0.000 HD
ENDROOT
BRANCH   1   8
ATOM      5  C   UNL     1       2.329   2.140  17.778  0.00  0.00    +0.000 C 
ATOM      6  C   UNL     1       3.126   3.410  17.806  0.00  0.00    +0.000 A 
ATOM      7  C   UNL     1       2.648   4.521  18.479  0.00  0.00    +0.000 A 
ATOM      8  C   UNL     1       3.399   5.697  18.495  0.00  0.00    +0.000 A 
ATOM      9  C   UNL     1       4.649   5.724  17.808  0.00  0.00    +0.000 A 
ATOM     10  C   UNL     1       5.532   6.836  17.728  0.00  0.00    +0.000 A 
ATOM     11  C   UNL     1       6.743   6.764  17.034  0.00  0.00    +0.000 A 
ATOM     12  C   UNL     1       7.102   5.584  16.402  0.00  0.00    +0.000 A 
ATOM     13  C   UNL     1       6.248   4.485  16.470  0.00  0.00    +0.000 A 
ATOM     14  C   UNL     1       5.040   4.529  17.155  0.00  0.00    +0.000 A 
ATOM     15  N   UNL     1       4.304   3.411  17.154  0.00  0.00    +0.000 NA
ENDBRANCH   1   8
BRANCH   2  16
ATOM     16  C   UNL     1       1.542   8.269  20.501  0.00  0.00    +0.000 A 
ATOM     17  C   UNL     1       1.429   8.820  21.786  0.00  0.00    +0.000 A 
ATOM     18  N   UNL     1       1.062  10.097  21.767  0.00  0.00    +0.000 NA
ATOM     19  N   UNL     1       0.886  10.395  20.442  0.00  0.00    +0.000 N 
ATOM     20  C   UNL     1       0.489  11.721  20.055  0.00  0.00    +0.000 A 
ATOM     21  C   UNL     1       0.345  12.701  21.036  0.00  0.00    +0.000 A 
ATOM     22  C   UNL     1       0.003  13.995  20.649  0.00  0.00    +0.000 A 
ATOM     23  C   UNL     1      -0.192  14.275  19.302  0.00  0.00    +0.000 A 
ATOM     24  C   UNL     1      -0.041  13.244  18.393  0.00  0.00    +0.000 A 
ATOM     25  N   UNL     1       0.289  11.982  18.742  0.00  0.00    +0.000 NA
ATOM     26  C   UNL     1       1.170   9.301  19.644  0.00  0.00    +0.000 A 
BRANCH  26  27
ATOM     27  C   UNL     1       1.097   9.358  18.169  0.00  0.00    +0.000 C 
ATOM     28  F   UNL     1       1.363   8.157  17.592  0.00  0.00    +0.000 F 
ATOM     29  F   UNL     1      -0.125   9.724  17.715  0.00  0.00    +0.000 F 
ATOM     30  F   UNL     1       2.026  10.196  17.641  0.00  0.00    +0.000 F 
ENDBRANCH  26  27
ENDBRANCH   2  16
TORSDOF 3
ENDMDL
MODEL 7
REMARK VINA RESULT:      -8.2      1.985      3.594
REMARK  Name = 
REMARK  4 active torsions:
REMARK  status: ('A' for Active; 'I' for Inactive)
REMARK    1  A    between atoms: C_1  and  C_2
REMARK    2  A    between atoms: C_4  and  N_5
REMARK    3  A    between atoms: C_6  and  C_8
REMARK    4  A    between atoms: C_18  and  C_19
REMARK                            x       y       z     vdW  Elec       q    Type
REMARK                         _______ _______ _______ _____ _____    ______ ____
ROOT
ATOM      1  N   UNL     1       2.953   7.095  19.493  0.00  0.00    +0.000 N 
ATOM      2  C   UNL     1       2.140   7.694  18.542  0.00  0.00    +0.000 C 
ATOM      3  O   UNL     1       1.836   7.236  17.450  0.00  0.00    +0.000 OA
ATOM      4  H   UNL     1       3.067   7.587  20.367  0.00  0.00    +0.000 HD
ENDROOT
BRANCH   1   8
ATOM      5  C   UNL     1       6.853   4.672  17.633  0.00  0.00    +0.000 C 
ATOM      6  C   UNL     1       5.601   4.706  18.457  0.00  0.00    +0.000 A 
ATOM      7  C   UNL     1       4.869   5.875  18.570  0.00  0.00    +0.000 A 
ATOM      8  C   UNL     1       3.708   5.894  19.342  0.00  0.00    +0.000 A 
ATOM      9  C   UNL     1       3.302   4.696  20.004  0.00  0.00    +0.000 A 
ATOM     10  C   UNL     1       2.150   4.546  20.823  0.00  0.00    +0.000 A 
ATOM     11  C   UNL     1       1.831   3.325  21.426  0.00  0.00    +0.000 A 
ATOM     12  C   UNL     1       2.654   2.228  21.228  0.00  0.00    +0.000 A 
ATOM     13  C   UNL     1       3.788   2.358  20.429  0.00  0.00    +0.000 A 
ATOM     14  C   UNL     1       4.126   3.558  19.816  0.00  0.00    +0.000 A 
ATOM     15  N   UNL     1       5.236   3.563  19.069  0.00  0.00    +0.000 NA
ENDBRANCH   1   8
BRANCH   2  16
ATOM     16  C   UNL     1       1.623   8.990  18.947  0.00  0.00    +0.000 A 
ATOM     17  C   UNL     1       1.717  10.219  18.279  0.00  0.00    +0.000 A 
ATOM     18  N   UNL     1       1.130  11.210  18.940  0.00  0.00    +0.000 NA
ATOM     19  N   UNL     1       0.667  10.640  20.096  0.00  0.00    +0.000 N 
ATOM     20  C   UNL     1      -0.040  11.442  21.056  0.00  0.00    +0.000 A 
ATOM     21  C   UNL     1      -0.294  12.782  20.766  0.00  0.00    +0.000 A 
ATOM     22  C   UNL     1      -1.019  13.543  21.681  0.00  0.00    +0.000 A 
ATOM     23  C   UNL     1      -1.463  12.953  22.859  0.00  0.00    +0.000 A 
ATOM     24  C   UNL     1      -1.159  11.621  23.075  0.00  0.00    +0.000 A 
ATOM     25  N   UNL     1      -0.458  10.863  22.205  0.00  0.00    +0.000 NA
ATOM     26  C   UNL     1       0.954   9.287  20.132  0.00  0.00    +0.000 A 
BRANCH  26  27
ATOM     27  C   UNL     1       0.533   8.418  21.252  0.00  0.00    +0.000 C 
ATOM     28  F   UNL     1       0.759   7.103  20.998  0.00  0.00    +0.000 F 
ATOM     29  F   UNL     1       1.189   8.691  22.405  0.00  0.00    +0.000 F 
ATOM     30  F   UNL     1      -0.803   8.490  21.484  0.00  0.00    +0.000 F 
ENDBRANCH  26  27
ENDBRANCH   2  16
TORSDOF 3
ENDMDL
MODEL 8
REMARK VINA RESULT:      -7.9      2.260      3.500
REMARK  Name = 
REMARK  4 active torsions:
REMARK  status: ('A' for Active; 'I' for Inactive)
REMARK    1  A    between atoms: C_1  and  C_2
REMARK    2  A    between atoms: C_4  and  N_5
REMARK    3  A    between atoms: C_6  and  C_8
REMARK    4  A    between atoms: C_18  and  C_19
REMARK                            x       y       z     vdW  Elec       q    Type
REMARK                         _______ _______ _______ _____ _____    ______ ____
ROOT
ATOM      1  N   UNL     1       2.579   6.816  17.890  0.00  0.00    +0.000 N 
ATOM      2  C   UNL     1       2.462   7.431  19.129  0.00  0.00    +0.000 C 
ATOM      3  O   UNL     1       2.983   7.068  20.173  0.00  0.00    +0.000 OA
ATOM      4  H   UNL     1       2.122   7.271  17.114  0.00  0.00    +0.000 HD
ENDROOT
BRANCH   1   8
ATOM      5  C   UNL     1       6.337   4.249  15.934  0.00  0.00    +0.000 C 
ATOM      6  C   UNL     1       5.034   4.310  16.674  0.00  0.00    +0.000 A 
ATOM      7  C   UNL     1       4.423   5.528  16.915  0.00  0.00    +0.000 A 
ATOM      8  C   UNL     1       3.213   5.570  17.608  0.00  0.00    +0.000 A 
ATOM      9  C   UNL     1       2.633   4.345  18.056  0.00  0.00    +0.000 A 
ATOM     10  C   UNL     1       1.411   4.214  18.771  0.00  0.00    +0.000 A 
ATOM     11  C   UNL     1       0.921   2.964  19.163  0.00  0.00    +0.000 A 
ATOM     12  C   UNL     1       1.637   1.819  18.855  0.00  0.00    +0.000 A 
ATOM     13  C   UNL     1       2.837   1.930  18.156  0.00  0.00    +0.000 A 
ATOM     14  C   UNL     1       3.346   3.158  17.752  0.00  0.00    +0.000 A 
ATOM     15  N   UNL     1       4.505   3.142  17.084  0.00  0.00    +0.000 NA
ENDBRANCH   1   8
BRANCH   2  16
ATOM     16  C   UNL     1       1.631   8.622  19.114  0.00  0.00    +0.000 A 
ATOM     17  C   UNL     1       1.413   9.527  18.064  0.00  0.00    +0.000 A 
ATOM     18  N   UNL     1       0.590  10.513  18.398  0.00  0.00    +0.000 NA
ATOM     19  N   UNL     1       0.280  10.287  19.713  0.00  0.00    +0.000 N 
ATOM     20  C   UNL     1      -0.614  11.178  20.400  0.00  0.00    +0.000 A 
ATOM     21  C   UNL     1      -1.198  12.230  19.696  0.00  0.00    +0.000 A 
ATOM     22  C   UNL     1      -2.098  13.065  20.358  0.00  0.00    +0.000 A 
ATOM     23  C   UNL     1      -2.384  12.832  21.698  0.00  0.00    +0.000 A 
ATOM     24  C   UNL     1      -1.753  11.774  22.325  0.00  0.00    +0.000 A 
ATOM     25  N   UNL     1      -0.878  10.953  21.708  0.00  0.00    +0.000 NA
ATOM     26  C   UNL     1       0.901   9.142  20.179  0.00  0.00    +0.000 A 
BRANCH  26  27
ATOM     27  C   UNL     1       0.708   8.644  21.557  0.00  0.00    +0.000 C 
ATOM     28  F   UNL     1       1.253   7.413  21.742  0.00  0.00    +0.000 F 
ATOM     29  F   UNL     1       1.275   9.444  22.491  0.00  0.00    +0.000 F 
ATOM     30  F   UNL     1      -0.604   8.479  21.866  0.00  0.00    +0.000 F 
ENDBRANCH  26  27
ENDBRANCH   2  16
TORSDOF 3
ENDMDL
MODEL 9
REMARK VINA RESULT:      -7.9      2.010      3.458
REMARK  Name = 
REMARK  4 active torsions:
REMARK  status: ('A' for Active; 'I' for Inactive)
REMARK    1  A    between atoms: C_1  and  C_2
REMARK    2  A    between atoms: C_4  and  N_5
REMARK    3  A    between atoms: C_6  and  C_8
REMARK    4  A    between atoms: C_18  and  C_19
REMARK                            x       y       z     vdW  Elec       q    Type
REMARK                         _______ _______ _______ _____ _____    ______ ____
ROOT
ATOM      1  N   UNL     1       1.887   8.156  19.588  0.00  0.00    +0.000 N 
ATOM      2  C   UNL     1       1.165   9.165  18.967  0.00  0.00    +0.000 C 
ATOM      3  O   UNL     1       0.893   9.240  17.778  0.00  0.00    +0.000 OA
ATOM      4  H   UNL     1       1.983   8.218  20.590  0.00  0.00    +0.000 HD
ENDROOT
BRANCH   1   8
ATOM      5  C   UNL     1       5.077   6.501  16.178  0.00  0.00    +0.000 C 
ATOM      6  C   UNL     1       4.127   6.259  17.313  0.00  0.00    +0.000 A 
ATOM      7  C   UNL     1       3.451   7.317  17.897  0.00  0.00    +0.000 A 
ATOM      8  C   UNL     1       2.573   7.078  18.953  0.00  0.00    +0.000 A 
ATOM      9  C   UNL     1       2.393   5.737  19.410  0.00  0.00    +0.000 A 
ATOM     10  C   UNL     1       1.538   5.325  20.468  0.00  0.00    +0.000 A 
ATOM     11  C   UNL     1       1.425   3.981  20.839  0.00  0.00    +0.000 A 
ATOM     12  C   UNL     1       2.161   3.019  20.166  0.00  0.00    +0.000 A 
ATOM     13  C   UNL     1       3.004   3.407  19.127  0.00  0.00    +0.000 A 
ATOM     14  C   UNL     1       3.134   4.734  18.736  0.00  0.00    +0.000 A 
ATOM     15  N   UNL     1       3.971   4.986  17.723  0.00  0.00    +0.000 NA
ENDBRANCH   1   8
BRANCH   2  16
ATOM     16  C   UNL     1       0.708  10.201  19.877  0.00  0.00    +0.000 A 
ATOM     17  C   UNL     1      -0.138  10.081  20.989  0.00  0.00    +0.000 A 
ATOM     18  N   UNL     1      -0.351  11.241  21.600  0.00  0.00    +0.000 NA
ATOM     19  N   UNL     1       0.335  12.164  20.858  0.00  0.00    +0.000 N 
ATOM     20  C   UNL     1       0.326  13.546  21.252  0.00  0.00    +0.000 A 
ATOM     21  C   UNL     1      -0.337  13.916  22.421  0.00  0.00    +0.000 A 
ATOM     22  C   UNL     1      -0.305  15.251  22.820  0.00  0.00    +0.000 A 
ATOM     23  C   UNL     1       0.380  16.178  22.043  0.00  0.00    +0.000 A 
ATOM     24  C   UNL     1       1.002  15.732  20.892  0.00  0.00    +0.000 A 
ATOM     25  N   UNL     1       0.985  14.445  20.483  0.00  0.00    +0.000 NA
ATOM     26  C   UNL     1       0.991  11.562  19.799  0.00  0.00    +0.000 A 
BRANCH  26  27
ATOM     27  C   UNL     1       1.839  12.324  18.858  0.00  0.00    +0.000 C 
ATOM     28  F   UNL     1       2.527  11.514  18.012  0.00  0.00    +0.000 F 
ATOM     29  F   UNL     1       1.128  13.165  18.070  0.00  0.00    +0.000 F 
ATOM     30  F   UNL     1       2.802  13.037  19.497  0.00  0.00    +0.000 F 
ENDBRANCH  26  27
ENDBRANCH   2  16
TORSDOF 3
ENDMDL
