MODEL 1
REMARK VINA RESULT:      -8.8      0.000      0.000
REMARK  Name = 
REMARK  5 active torsions:
REMARK  status: ('A' for Active; 'I' for Inactive)
REMARK    1  A    between atoms: C_2  and  C_17
REMARK    2  A    between atoms: N_3  and  C_4
REMARK    3  A    between atoms: C_8  and  S_9
REMARK    4  A    between atoms: S_9  and  N_12
REMARK    5  A    between atoms: N_12  and  C_13
REMARK                            x       y       z     vdW  Elec       q    Type
REMARK                         _______ _______ _______ _____ _____    ______ ____
ROOT
ATOM      1  O   UNL     1       1.792   7.910  20.481  0.00  0.00    +0.000 OA
ATOM      2  C   UNL     1       1.671   8.489  19.401  0.00  0.00    +0.000 C 
ATOM      3  N   UNL     1       2.361   7.884  18.187  0.00  0.00    +0.000 N 
ATOM      4  H   UNL     1       2.330   8.388  17.298  0.00  0.00    +0.000 HD
ENDROOT
BRANCH   2   5
ATOM      5  C   UNL     1       0.588   9.876  19.192  0.00  0.00    +0.000 A 
ATOM      6  C   UNL     1       0.241  11.045  19.996  0.00  0.00    +0.000 A 
ATOM      7  N   UNL     1      -0.490  11.891  19.195  0.00  0.00    +0.000 NA
ATOM      8  C   UNL     1      -1.428  11.356  18.473  0.00  0.00    +0.000 A 
ATOM      9  C   UNL     1      -2.676  11.886  18.618  0.00  0.00    +0.000 A 
ATOM     10  C   UNL     1      -3.707  11.438  17.832  0.00  0.00    +0.000 A 
ATOM     11  C   UNL     1      -3.450  10.442  16.899  0.00  0.00    +0.000 A 
ATOM     12  C   UNL     1      -2.173   9.871  16.814  0.00  0.00    +0.000 A 
ATOM     13  C   UNL     1      -1.192  10.224  17.746  0.00  0.00    +0.000 A 
ATOM     14  N   UNL     1      -0.101   9.515  18.052  0.00  0.00    +0.000 NA
ENDBRANCH   2   5
BRANCH   3  15
ATOM     15  C   UNL     1       3.187   6.619  18.117  0.00  0.00    +0.000 A 
ATOM     16  C   UNL     1       2.659   5.316  18.082  0.00  0.00    +0.000 A 
ATOM     17  C   UNL     1       3.477   4.138  17.995  0.00  0.00    +0.000 A 
ATOM     18  C   UNL     1       4.865   4.201  17.963  0.00  0.00    +0.000 A 
ATOM     19  C   UNL     1       5.426   5.462  17.941  0.00  0.00    +0.000 A 
ATOM     20  C   UNL     1       4.613   6.654  18.021  0.00  0.00    +0.000 A 
BRANCH  19  21
ATOM     21  S   UNL     1       7.184   5.605  17.579  0.00  0.00    +0.000 S 
ATOM     22  O   UNL     1       7.632   6.853  18.200  0.00  0.00    +0.000 OA
ATOM     23  O   UNL     1       7.775   4.284  17.802  0.00  0.00    +0.000 OA
BRANCH  21  24
ATOM     24  N   UNL     1       7.377   5.895  15.750  0.00  0.00    +0.000 NA
ATOM     25  H   UNL     1       8.398   5.933  15.579  0.00  0.00    +0.000 HD
BRANCH  24  26
ATOM     26  C   UNL     1       6.839   4.670  15.077  0.00  0.00    +0.000 C 
ATOM     27  C   UNL     1       6.793   4.208  13.650  0.00  0.00    +0.000 C 
ATOM     28  C   UNL     1       5.504   4.450  14.412  0.00  0.00    +0.000 C 
ENDBRANCH  24  26
ENDBRANCH  21  24
ENDBRANCH  19  21
ENDBRANCH   3  15
TORSDOF 5
ENDMDL
MODEL 2
REMARK VINA RESULT:      -8.7      2.030      2.766
REMARK  Name = 
REMARK  5 active torsions:
REMARK  status: ('A' for Active; 'I' for Inactive)
REMARK    1  A    between atoms: C_2  and  C_17
REMARK    2  A    between atoms: N_3  and  C_4
REMARK    3  A    between atoms: C_8  and  S_9
REMARK    4  A    between atoms: S_9  and  N_12
REMARK    5  A    between atoms: N_12  and  C_13
REMARK                            x       y       z     vdW  Elec       q    Type
REMARK                         _______ _______ _______ _____ _____    ______ ____
ROOT
ATOM      1  O   UNL     1       1.594   6.324  20.897  0.00  0.00    +0.000 OA
ATOM      2  C   UNL     1       1.772   7.355  20.247  0.00  0.00    +0.000 C 
ATOM      3  N   UNL     1       2.427   7.231  18.878  0.00  0.00    +0.000 N 
ATOM      4  H   UNL     1       2.646   8.081  18.356  0.00  0.00    +0.000 HD
ENDROOT
BRANCH   2   5
ATOM      5  C   UNL     1       1.135   8.922  20.772  0.00  0.00    +0.000 A 
ATOM      6  C   UNL     1       0.872   9.547  22.066  0.00  0.00    +0.000 A 
ATOM      7  N   UNL     1       0.592  10.874  21.830  0.00  0.00    +0.000 NA
ATOM      8  C   UNL     1      -0.222  11.141  20.854  0.00  0.00    +0.000 A 
ATOM      9  C   UNL     1      -1.307  11.907  21.168  0.00  0.00    +0.000 A 
ATOM     10  C   UNL     1      -2.171  12.307  20.181  0.00  0.00    +0.000 A 
ATOM     11  C   UNL     1      -1.919  11.915  18.873  0.00  0.00    +0.000 A 
ATOM     12  C   UNL     1      -0.833  11.076  18.589  0.00  0.00    +0.000 A 
ATOM     13  C   UNL     1      -0.075  10.543  19.635  0.00  0.00    +0.000 A 
ATOM     14  N   UNL     1       0.703   9.457  19.576  0.00  0.00    +0.000 NA
ENDBRANCH   2   5
BRANCH   3  15
ATOM     15  C   UNL     1       2.888   5.973  18.175  0.00  0.00    +0.000 A 
ATOM     16  C   UNL     1       2.135   4.791  18.069  0.00  0.00    +0.000 A 
ATOM     17  C   UNL     1       2.599   3.621  17.375  0.00  0.00    +0.000 A 
ATOM     18  C   UNL     1       3.849   3.567  16.771  0.00  0.00    +0.000 A 
ATOM     19  C   UNL     1       4.602   4.724  16.803  0.00  0.00    +0.000 A 
ATOM     20  C   UNL     1       4.142   5.908  17.493  0.00  0.00    +0.000 A 
BRANCH  19  21
ATOM     21  S   UNL     1       6.075   4.809  15.772  0.00  0.00    +0.000 S 
ATOM     22  O   UNL     1       6.103   3.572  14.989  0.00  0.00    +0.000 OA
ATOM     23  O   UNL     1       6.135   6.165  15.222  0.00  0.00    +0.000 OA
BRANCH  21  24
ATOM     24  N   UNL     1       7.567   4.696  16.881  0.00  0.00    +0.000 NA
ATOM     25  H   UNL     1       8.362   5.047  16.319  0.00  0.00    +0.000 HD
BRANCH  24  26
ATOM     26  C   UNL     1       7.326   5.662  17.999  0.00  0.00    +0.000 C 
ATOM     27  C   UNL     1       7.951   6.969  18.392  0.00  0.00    +0.000 C 
ATOM     28  C   UNL     1       8.023   5.780  19.331  0.00  0.00    +0.000 C 
ENDBRANCH  24  26
ENDBRANCH  21  24
ENDBRANCH  19  21
ENDBRANCH   3  15
TORSDOF 5
ENDMDL
MODEL 3
REMARK VINA RESULT:      -8.5      1.760      2.241
REMARK  Name = 
REMARK  5 active torsions:
REMARK  status: ('A' for Active; 'I' for Inactive)
REMARK    1  A    between atoms: C_2  and  C_17
REMARK    2  A    between atoms: N_3  and  C_4
REMARK    3  A    between atoms: C_8  and  S_9
REMARK    4  A    between atoms: S_9  and  N_12
REMARK    5  A    between atoms: N_12  and  C_13
REMARK                            x       y       z     vdW  Elec       q    Type
REMARK                         _______ _______ _______ _____ _____    ______ ____
ROOT
ATOM      1  O   UNL     1       1.961   6.348  20.996  0.00  0.00    +0.000 OA
ATOM      2  C   UNL     1       1.932   7.364  20.300  0.00  0.00    +0.000 C 
ATOM      3  N   UNL     1       2.409   7.255  18.859  0.00  0.00    +0.000 N 
ATOM      4  H   UNL     1       2.458   8.103  18.289  0.00  0.00    +0.000 HD
ENDROOT
BRANCH   2   5
ATOM      5  C   UNL     1       1.194   8.872  20.866  0.00  0.00    +0.000 A 
ATOM      6  C   UNL     1       0.688   9.355  22.148  0.00  0.00    +0.000 A 
ATOM      7  N   UNL     1       0.446  10.703  22.012  0.00  0.00    +0.000 NA
ATOM      8  C   UNL     1      -0.173  11.085  20.936  0.00  0.00    +0.000 A 
ATOM      9  C   UNL     1      -1.304  11.825  21.123  0.00  0.00    +0.000 A 
ATOM     10  C   UNL     1      -1.972  12.341  20.042  0.00  0.00    +0.000 A 
ATOM     11  C   UNL     1      -1.475  12.091  18.770  0.00  0.00    +0.000 A 
ATOM     12  C   UNL     1      -0.348  11.276  18.603  0.00  0.00    +0.000 A 
ATOM     13  C   UNL     1       0.205  10.622  19.708  0.00  0.00    +0.000 A 
ATOM     14  N   UNL     1       0.989   9.540  19.677  0.00  0.00    +0.000 NA
ENDBRANCH   2   5
BRANCH   3  15
ATOM     15  C   UNL     1       2.914   6.028  18.133  0.00  0.00    +0.000 A 
ATOM     16  C   UNL     1       2.164   4.859  17.914  0.00  0.00    +0.000 A 
ATOM     17  C   UNL     1       2.673   3.719  17.202  0.00  0.00    +0.000 A 
ATOM     18  C   UNL     1       3.965   3.682  16.692  0.00  0.00    +0.000 A 
ATOM     19  C   UNL     1       4.720   4.828  16.836  0.00  0.00    +0.000 A 
ATOM     20  C   UNL     1       4.216   5.983  17.545  0.00  0.00    +0.000 A 
BRANCH  19  21
ATOM     21  S   UNL     1       6.267   4.948  15.924  0.00  0.00    +0.000 S 
ATOM     22  O   UNL     1       6.111   6.065  14.991  0.00  0.00    +0.000 OA
ATOM     23  O   UNL     1       7.351   4.800  16.899  0.00  0.00    +0.000 OA
BRANCH  21  24
ATOM     24  N   UNL     1       6.417   3.444  14.836  0.00  0.00    +0.000 NA
ATOM     25  H   UNL     1       5.659   2.805  15.135  0.00  0.00    +0.000 HD
BRANCH  24  26
ATOM     26  C   UNL     1       6.115   3.907  13.445  0.00  0.00    +0.000 C 
ATOM     27  C   UNL     1       5.654   3.210  12.199  0.00  0.00    +0.000 C 
ATOM     28  C   UNL     1       6.998   3.913  12.223  0.00  0.00    +0.000 C 
ENDBRANCH  24  26
ENDBRANCH  21  24
ENDBRANCH  19  21
ENDBRANCH   3  15
TORSDOF 5
ENDMDL
MODEL 4
REMARK VINA RESULT:      -8.3      2.016      2.594
REMARK  Name = 
REMARK  5 active torsions:
REMARK  status: ('A' for Active; 'I' for Inactive)
REMARK    1  A    between atoms: C_2  and  C_17
REMARK    2  A    between atoms: N_3  and  C_4
REMARK    3  A    between atoms: C_8  and  S_9
REMARK    4  A    between atoms: S_9  and  N_12
REMARK    5  A    between atoms: N_12  and  C_13
REMARK                            x       y       z     vdW  Elec       q    Type
REMARK                         _______ _______ _______ _____ _____    ______ ____
ROOT
ATOM      1  O   UNL     1       2.742   8.773  17.195  0.00  0.00    +0.000 OA
ATOM      2  C   UNL     1       2.028   8.550  18.173  0.00  0.00    +0.000 C 
ATOM      3  N   UNL     1       2.154   7.195  18.854  0.00  0.00    +0.000 N 
ATOM      4  H   UNL     1       1.520   6.967  19.623  0.00  0.00    +0.000 HD
ENDROOT
BRANCH   2   5
ATOM      5  C   UNL     1       1.015   9.806  18.905  0.00  0.00    +0.000 A 
ATOM      6  C   UNL     1       0.866  11.247  18.724  0.00  0.00    +0.000 A 
ATOM      7  N   UNL     1      -0.254  11.635  19.422  0.00  0.00    +0.000 NA
ATOM      8  C   UNL     1      -0.394  11.161  20.623  0.00  0.00    +0.000 A 
ATOM      9  C   UNL     1      -0.567  12.079  21.617  0.00  0.00    +0.000 A 
ATOM     10  C   UNL     1      -0.808  11.663  22.901  0.00  0.00    +0.000 A 
ATOM     11  C   UNL     1      -0.865  10.300  23.161  0.00  0.00    +0.000 A 
ATOM     12  C   UNL     1      -0.620   9.378  22.134  0.00  0.00    +0.000 A 
ATOM     13  C   UNL     1      -0.205   9.832  20.878  0.00  0.00    +0.000 A 
ATOM     14  N   UNL     1       0.434   9.115  19.949  0.00  0.00    +0.000 NA
ENDBRANCH   2   5
BRANCH   3  15
ATOM     15  C   UNL     1       3.077   6.052  18.494  0.00  0.00    +0.000 A 
ATOM     16  C   UNL     1       2.657   4.740  18.209  0.00  0.00    +0.000 A 
ATOM     17  C   UNL     1       3.563   3.684  17.851  0.00  0.00    +0.000 A 
ATOM     18  C   UNL     1       4.936   3.880  17.780  0.00  0.00    +0.000 A 
ATOM     19  C   UNL     1       5.390   5.165  17.998  0.00  0.00    +0.000 A 
ATOM     20  C   UNL     1       4.487   6.236  18.353  0.00  0.00    +0.000 A 
BRANCH  19  21
ATOM     21  S   UNL     1       7.107   5.540  17.608  0.00  0.00    +0.000 S 
ATOM     22  O   UNL     1       7.109   6.866  16.988  0.00  0.00    +0.000 OA
ATOM     23  O   UNL     1       7.906   5.142  18.769  0.00  0.00    +0.000 OA
BRANCH  21  24
ATOM     24  N   UNL     1       7.658   4.387  16.253  0.00  0.00    +0.000 NA
ATOM     25  H   UNL     1       7.261   3.461  16.493  0.00  0.00    +0.000 HD
BRANCH  24  26
ATOM     26  C   UNL     1       6.991   4.869  15.002  0.00  0.00    +0.000 C 
ATOM     27  C   UNL     1       5.568   4.880  14.526  0.00  0.00    +0.000 C 
ATOM     28  C   UNL     1       6.620   4.103  13.758  0.00  0.00    +0.000 C 
ENDBRANCH  24  26
ENDBRANCH  21  24
ENDBRANCH  19  21
ENDBRANCH   3  15
TORSDOF 5
ENDMDL
MODEL 5
REMARK VINA RESULT:      -8.2      2.495      3.931
REMARK  Name = 
REMARK  5 active torsions:
REMARK  status: ('A' for Active; 'I' for Inactive)
REMARK    1  A    between atoms: C_2  and  C_17
REMARK    2  A    between atoms: N_3  and  C_4
REMARK    3  A    between atoms: C_8  and  S_9
REMARK    4  A    between atoms: S_9  and  N_12
REMARK    5  A    between atoms: N_12  and  C_13
REMARK                            x       y       z     vdW  Elec       q    Type
REMARK                         _______ _______ _______ _____ _____    ______ ____
ROOT
ATOM      1  O   UNL     1       2.056   7.737  20.237  0.00  0.00    +0.000 OA
ATOM      2  C   UNL     1       1.894   8.417  19.223  0.00  0.00    +0.000 C 
ATOM      3  N   UNL     1       2.552   7.943  17.935  0.00  0.00    +0.000 N 
ATOM      4  H   UNL     1       2.487   8.531  17.101  0.00  0.00    +0.000 HD
ENDROOT
BRANCH   2   5
ATOM      5  C   UNL     1       0.788   9.801  19.183  0.00  0.00    +0.000 A 
ATOM      6  C   UNL     1       0.464  10.888  20.102  0.00  0.00    +0.000 A 
ATOM      7  N   UNL     1      -0.310  11.792  19.411  0.00  0.00    +0.000 NA
ATOM      8  C   UNL     1      -1.271  11.310  18.683  0.00  0.00    +0.000 A 
ATOM      9  C   UNL     1      -2.518  11.807  18.926  0.00  0.00    +0.000 A 
ATOM     10  C   UNL     1      -3.576  11.417  18.146  0.00  0.00    +0.000 A 
ATOM     11  C   UNL     1      -3.348  10.511  17.118  0.00  0.00    +0.000 A 
ATOM     12  C   UNL     1      -2.070   9.969  16.929  0.00  0.00    +0.000 A 
ATOM     13  C   UNL     1      -1.054  10.251  17.848  0.00  0.00    +0.000 A 
ATOM     14  N   UNL     1       0.056   9.534  18.045  0.00  0.00    +0.000 NA
ENDBRANCH   2   5
BRANCH   3  15
ATOM     15  C   UNL     1       3.391   6.704  17.716  0.00  0.00    +0.000 A 
ATOM     16  C   UNL     1       4.776   6.704  17.472  0.00  0.00    +0.000 A 
ATOM     17  C   UNL     1       5.543   5.503  17.289  0.00  0.00    +0.000 A 
ATOM     18  C   UNL     1       4.961   4.242  17.319  0.00  0.00    +0.000 A 
ATOM     19  C   UNL     1       3.613   4.189  17.610  0.00  0.00    +0.000 A 
ATOM     20  C   UNL     1       2.833   5.391  17.802  0.00  0.00    +0.000 A 
BRANCH  19  21
ATOM     21  S   UNL     1       2.883   2.585  17.973  0.00  0.00    +0.000 S 
ATOM     22  O   UNL     1       2.279   2.114  16.726  0.00  0.00    +0.000 OA
ATOM     23  O   UNL     1       3.856   1.844  18.779  0.00  0.00    +0.000 OA
BRANCH  21  24
ATOM     24  N   UNL     1       1.441   2.851  19.122  0.00  0.00    +0.000 NA
ATOM     25  H   UNL     1       0.825   2.028  18.994  0.00  0.00    +0.000 HD
BRANCH  24  26
ATOM     26  C   UNL     1       2.002   2.801  20.509  0.00  0.00    +0.000 C 
ATOM     27  C   UNL     1       1.387   2.652  21.870  0.00  0.00    +0.000 C 
ATOM     28  C   UNL     1       2.160   3.909  21.519  0.00  0.00    +0.000 C 
ENDBRANCH  24  26
ENDBRANCH  21  24
ENDBRANCH  19  21
ENDBRANCH   3  15
TORSDOF 5
ENDMDL
MODEL 6
REMARK VINA RESULT:      -8.1      2.224      2.900
REMARK  Name = 
REMARK  5 active torsions:
REMARK  status: ('A' for Active; 'I' for Inactive)
REMARK    1  A    between atoms: C_2  and  C_17
REMARK    2  A    between atoms: N_3  and  C_4
REMARK    3  A    between atoms: C_8  and  S_9
REMARK    4  A    between atoms: S_9  and  N_12
REMARK    5  A    between atoms: N_12  and  C_13
REMARK                            x       y       z     vdW  Elec       q    Type
REMARK                         _______ _______ _______ _____ _____    ______ ____
ROOT
ATOM      1  O   UNL     1       3.349   8.595  17.863  0.00  0.00    +0.000 OA
ATOM      2  C   UNL     1       2.238   8.287  18.296  0.00  0.00    +0.000 C 
ATOM      3  N   UNL     1       1.901   6.806  18.405  0.00  0.00    +0.000 N 
ATOM      4  H   UNL     1       0.960   6.534  18.694  0.00  0.00    +0.000 HD
ENDROOT
BRANCH   2   5
ATOM      5  C   UNL     1       1.115   9.490  18.952  0.00  0.00    +0.000 A 
ATOM      6  C   UNL     1       0.823  10.892  18.666  0.00  0.00    +0.000 A 
ATOM      7  N   UNL     1      -0.321  11.222  19.357  0.00  0.00    +0.000 NA
ATOM      8  C   UNL     1      -0.396  10.829  20.593  0.00  0.00    +0.000 A 
ATOM      9  C   UNL     1      -0.647  11.800  21.518  0.00  0.00    +0.000 A 
ATOM     10  C   UNL     1      -0.828  11.461  22.835  0.00  0.00    +0.000 A 
ATOM     11  C   UNL     1      -0.747  10.123  23.197  0.00  0.00    +0.000 A 
ATOM     12  C   UNL     1      -0.426   9.154  22.237  0.00  0.00    +0.000 A 
ATOM     13  C   UNL     1      -0.075   9.548  20.943  0.00  0.00    +0.000 A 
ATOM     14  N   UNL     1       0.619   8.828  20.056  0.00  0.00    +0.000 NA
ENDBRANCH   2   5
BRANCH   3  15
ATOM     15  C   UNL     1       2.777   5.622  18.060  0.00  0.00    +0.000 A 
ATOM     16  C   UNL     1       2.475   4.284  18.368  0.00  0.00    +0.000 A 
ATOM     17  C   UNL     1       3.324   3.182  18.006  0.00  0.00    +0.000 A 
ATOM     18  C   UNL     1       4.529   3.365  17.338  0.00  0.00    +0.000 A 
ATOM     19  C   UNL     1       4.841   4.658  16.967  0.00  0.00    +0.000 A 
ATOM     20  C   UNL     1       3.991   5.772  17.320  0.00  0.00    +0.000 A 
BRANCH  19  21
ATOM     21  S   UNL     1       6.215   4.910  15.833  0.00  0.00    +0.000 S 
ATOM     22  O   UNL     1       5.812   5.989  14.929  0.00  0.00    +0.000 OA
ATOM     23  O   UNL     1       7.441   4.885  16.634  0.00  0.00    +0.000 OA
BRANCH  21  24
ATOM     24  N   UNL     1       6.348   3.408  14.740  0.00  0.00    +0.000 NA
ATOM     25  H   UNL     1       5.570   2.785  15.024  0.00  0.00    +0.000 HD
BRANCH  24  26
ATOM     26  C   UNL     1       6.079   3.883  13.347  0.00  0.00    +0.000 C 
ATOM     27  C   UNL     1       5.628   3.201  12.088  0.00  0.00    +0.000 C 
ATOM     28  C   UNL     1       6.984   3.879  12.141  0.00  0.00    +0.000 C 
ENDBRANCH  24  26
ENDBRANCH  21  24
ENDBRANCH  19  21
ENDBRANCH   3  15
TORSDOF 5
ENDMDL
MODEL 7
REMARK VINA RESULT:      -8.1      3.686      8.823
REMARK  Name = 
REMARK  5 active torsions:
REMARK  status: ('A' for Active; 'I' for Inactive)
REMARK    1  A    between atoms: C_2  and  C_17
REMARK    2  A    between atoms: N_3  and  C_4
REMARK    3  A    between atoms: C_8  and  S_9
REMARK    4  A    between atoms: S_9  and  N_12
REMARK    5  A    between atoms: N_12  and  C_13
REMARK                            x       y       z     vdW  Elec       q    Type
REMARK                         _______ _______ _______ _____ _____    ______ ____
ROOT
ATOM      1  O   UNL     1       1.711   8.955  18.446  0.00  0.00    +0.000 OA
ATOM      2  C   UNL     1       1.972   8.090  19.282  0.00  0.00    +0.000 C 
ATOM      3  N   UNL     1       1.371   8.239  20.673  0.00  0.00    +0.000 N 
ATOM      4  H   UNL     1       1.634   7.570  21.399  0.00  0.00    +0.000 HD
ENDROOT
BRANCH   2   5
ATOM      5  C   UNL     1       2.857   6.613  18.866  0.00  0.00    +0.000 A 
ATOM      6  C   UNL     1       3.934   6.284  17.935  0.00  0.00    +0.000 A 
ATOM      7  N   UNL     1       4.358   5.009  18.234  0.00  0.00    +0.000 NA
ATOM      8  C   UNL     1       3.438   4.114  18.434  0.00  0.00    +0.000 A 
ATOM      9  C   UNL     1       3.520   2.986  17.671  0.00  0.00    +0.000 A 
ATOM     10  C   UNL     1       2.641   1.953  17.878  0.00  0.00    +0.000 A 
ATOM     11  C   UNL     1       1.676   2.087  18.868  0.00  0.00    +0.000 A 
ATOM     12  C   UNL     1       1.575   3.281  19.594  0.00  0.00    +0.000 A 
ATOM     13  C   UNL     1       2.368   4.377  19.241  0.00  0.00    +0.000 A 
ATOM     14  N   UNL     1       2.128   5.657  19.542  0.00  0.00    +0.000 NA
ENDBRANCH   2   5
BRANCH   3  15
ATOM     15  C   UNL     1       0.455   9.330  21.182  0.00  0.00    +0.000 A 
ATOM     16  C   UNL     1       0.184   9.583  22.538  0.00  0.00    +0.000 A 
ATOM     17  C   UNL     1      -0.678  10.643  22.984  0.00  0.00    +0.000 A 
ATOM     18  C   UNL     1      -1.330  11.489  22.096  0.00  0.00    +0.000 A 
ATOM     19  C   UNL     1      -1.051  11.313  20.755  0.00  0.00    +0.000 A 
ATOM     20  C   UNL     1      -0.181  10.254  20.296  0.00  0.00    +0.000 A 
BRANCH  19  21
ATOM     21  S   UNL     1      -1.611  12.572  19.597  0.00  0.00    +0.000 S 
ATOM     22  O   UNL     1      -3.074  12.546  19.635  0.00  0.00    +0.000 OA
ATOM     23  O   UNL     1      -0.775  13.755  19.814  0.00  0.00    +0.000 OA
BRANCH  21  24
ATOM     24  N   UNL     1      -1.176  12.010  17.876  0.00  0.00    +0.000 NA
ATOM     25  H   UNL     1      -0.390  11.344  17.987  0.00  0.00    +0.000 HD
BRANCH  24  26
ATOM     26  C   UNL     1      -2.364  11.248  17.376  0.00  0.00    +0.000 C 
ATOM     27  C   UNL     1      -2.791   9.812  17.477  0.00  0.00    +0.000 C 
ATOM     28  C   UNL     1      -2.519  10.430  16.119  0.00  0.00    +0.000 C 
ENDBRANCH  24  26
ENDBRANCH  21  24
ENDBRANCH  19  21
ENDBRANCH   3  15
TORSDOF 5
ENDMDL
MODEL 8
REMARK VINA RESULT:      -8.1      1.216      1.437
REMARK  Name = 
REMARK  5 active torsions:
REMARK  status: ('A' for Active; 'I' for Inactive)
REMARK    1  A    between atoms: C_2  and  C_17
REMARK    2  A    between atoms: N_3  and  C_4
REMARK    3  A    between atoms: C_8  and  S_9
REMARK    4  A    between atoms: S_9  and  N_12
REMARK    5  A    between atoms: N_12  and  C_13
REMARK                            x       y       z     vdW  Elec       q    Type
REMARK                         _______ _______ _______ _____ _____    ______ ____
ROOT
ATOM      1  O   UNL     1       1.517   7.065  20.772  0.00  0.00    +0.000 OA
ATOM      2  C   UNL     1       1.618   8.034  20.020  0.00  0.00    +0.000 C 
ATOM      3  N   UNL     1       2.345   7.837  18.696  0.00  0.00    +0.000 N 
ATOM      4  H   UNL     1       2.500   8.647  18.092  0.00  0.00    +0.000 HD
ENDROOT
BRANCH   2   5
ATOM      5  C   UNL     1       0.799   9.571  20.347  0.00  0.00    +0.000 A 
ATOM      6  C   UNL     1       0.566  10.382  21.539  0.00  0.00    +0.000 A 
ATOM      7  N   UNL     1       0.065  11.593  21.120  0.00  0.00    +0.000 NA
ATOM      8  C   UNL     1      -0.869  11.564  20.218  0.00  0.00    +0.000 A 
ATOM      9  C   UNL     1      -2.024  12.221  20.526  0.00  0.00    +0.000 A 
ATOM     10  C   UNL     1      -3.028  12.314  19.596  0.00  0.00    +0.000 A 
ATOM     11  C   UNL     1      -2.843  11.725  18.352  0.00  0.00    +0.000 A 
ATOM     12  C   UNL     1      -1.672  11.003  18.085  0.00  0.00    +0.000 A 
ATOM     13  C   UNL     1      -0.746  10.778  19.107  0.00  0.00    +0.000 A 
ATOM     14  N   UNL     1       0.180   9.815  19.139  0.00  0.00    +0.000 NA
ENDBRANCH   2   5
BRANCH   3  15
ATOM     15  C   UNL     1       2.965   6.569  18.153  0.00  0.00    +0.000 A 
ATOM     16  C   UNL     1       2.303   5.333  18.047  0.00  0.00    +0.000 A 
ATOM     17  C   UNL     1       2.920   4.154  17.506  0.00  0.00    +0.000 A 
ATOM     18  C   UNL     1       4.237   4.144  17.064  0.00  0.00    +0.000 A 
ATOM     19  C   UNL     1       4.910   5.349  17.098  0.00  0.00    +0.000 A 
ATOM     20  C   UNL     1       4.297   6.543  17.634  0.00  0.00    +0.000 A 
BRANCH  19  21
ATOM     21  S   UNL     1       6.493   5.465  16.250  0.00  0.00    +0.000 S 
ATOM     22  O   UNL     1       7.079   6.747  16.643  0.00  0.00    +0.000 OA
ATOM     23  O   UNL     1       7.143   4.158  16.377  0.00  0.00    +0.000 OA
BRANCH  21  24
ATOM     24  N   UNL     1       6.162   5.638  14.426  0.00  0.00    +0.000 NA
ATOM     25  H   UNL     1       6.886   6.288  14.069  0.00  0.00    +0.000 HD
BRANCH  24  26
ATOM     26  C   UNL     1       6.413   4.289  13.829  0.00  0.00    +0.000 C 
ATOM     27  C   UNL     1       7.002   3.825  12.528  0.00  0.00    +0.000 C 
ATOM     28  C   UNL     1       5.563   3.490  12.873  0.00  0.00    +0.000 C 
ENDBRANCH  24  26
ENDBRANCH  21  24
ENDBRANCH  19  21
ENDBRANCH   3  15
TORSDOF 5
ENDMDL
MODEL 9
REMARK VINA RESULT:      -8.1      3.840      8.954
REMARK  Name = 
REMARK  5 active torsions:
REMARK  status: ('A' for Active; 'I' for Inactive)
REMARK    1  A    between atoms: C_2  and  C_17
REMARK    2  A    between atoms: N_3  and  C_4
REMARK    3  A    between atoms: C_8  and  S_9
REMARK    4  A    between atoms: S_9  and  N_12
REMARK    5  A    between atoms: N_12  and  C_13
REMARK                            x       y       z     vdW  Elec       q    Type
REMARK                         _______ _______ _______ _____ _____    ______ ____
ROOT
ATOM      1  O   UNL     1       1.963   8.665  17.079  0.00  0.00    +0.000 OA
ATOM      2  C   UNL     1       2.118   8.349  18.259  0.00  0.00    +0.000 C 
ATOM      3  N   UNL     1       1.394   9.169  19.318  0.00  0.00    +0.000 N 
ATOM      4  H   UNL     1       1.567   8.966  20.304  0.00  0.00    +0.000 HD
ENDROOT
BRANCH   2   5
ATOM      5  C   UNL     1       2.993   6.884  18.735  0.00  0.00    +0.000 A 
ATOM      6  C   UNL     1       4.156   6.165  18.221  0.00  0.00    +0.000 A 
ATOM      7  N   UNL     1       4.500   5.218  19.159  0.00  0.00    +0.000 NA
ATOM      8  C   UNL     1       3.533   4.517  19.670  0.00  0.00    +0.000 A 
ATOM      9  C   UNL     1       3.662   3.161  19.583  0.00  0.00    +0.000 A 
ATOM     10  C   UNL     1       2.730   2.345  20.172  0.00  0.00    +0.000 A 
ATOM     11  C   UNL     1       1.665   2.927  20.847  0.00  0.00    +0.000 A 
ATOM     12  C   UNL     1       1.524   4.321  20.867  0.00  0.00    +0.000 A 
ATOM     13  C   UNL     1       2.389   5.117  20.111  0.00  0.00    +0.000 A 
ATOM     14  N   UNL     1       2.161   6.371  19.708  0.00  0.00    +0.000 NA
ENDBRANCH   2   5
BRANCH   3  15
ATOM     15  C   UNL     1       0.468  10.347  19.113  0.00  0.00    +0.000 A 
ATOM     16  C   UNL     1       0.831  11.694  19.289  0.00  0.00    +0.000 A 
ATOM     17  C   UNL     1      -0.073  12.789  19.066  0.00  0.00    +0.000 A 
ATOM     18  C   UNL     1      -1.392  12.591  18.677  0.00  0.00    +0.000 A 
ATOM     19  C   UNL     1      -1.778  11.288  18.439  0.00  0.00    +0.000 A 
ATOM     20  C   UNL     1      -0.875  10.180  18.654  0.00  0.00    +0.000 A 
BRANCH  19  21
ATOM     21  S   UNL     1      -3.362  11.003  17.633  0.00  0.00    +0.000 S 
ATOM     22  O   UNL     1      -3.544   9.551  17.583  0.00  0.00    +0.000 OA
ATOM     23  O   UNL     1      -4.312  11.959  18.207  0.00  0.00    +0.000 OA
BRANCH  21  24
ATOM     24  N   UNL     1      -3.207  11.519  15.851  0.00  0.00    +0.000 NA
ATOM     25  H   UNL     1      -2.229  11.841  15.736  0.00  0.00    +0.000 HD
BRANCH  24  26
ATOM     26  C   UNL     1      -3.386  10.273  15.041  0.00  0.00    +0.000 C 
ATOM     27  C   UNL     1      -2.696   9.718  13.829  0.00  0.00    +0.000 C 
ATOM     28  C   UNL     1      -4.174  10.057  13.774  0.00  0.00    +0.000 C 
ENDBRANCH  24  26
ENDBRANCH  21  24
ENDBRANCH  19  21
ENDBRANCH   3  15
TORSDOF 5
ENDMDL
