MODEL 1
REMARK VINA RESULT:      -8.7      0.000      0.000
REMARK  Name = 
REMARK  8 active torsions:
REMARK  status: ('A' for Active; 'I' for Inactive)
REMARK    1  A    between atoms: C_1  and  C_2
REMARK    2  A    between atoms: C_3  and  C_4
REMARK    3  A    between atoms: N_6  and  C_7
REMARK    4  A    between atoms: C_11  and  C_12
REMARK    5  A    between atoms: C_12  and  C_13
REMARK    6  A    between atoms: C_13  and  C_14
REMARK    7  A    between atoms: N_18  and  C_19
REMARK    8  A    between atoms: C_28  and  C_29
REMARK                            x       y       z     vdW  Elec       q    Type
REMARK                         _______ _______ _______ _____ _____    ______ ____
ROOT
ATOM      1  C   UNL     1       3.090   5.753  19.951  0.00  0.00    +0.000 A 
ATOM      2  C   UNL     1       2.661   4.426  19.895  0.00  0.00    +0.000 A 
ATOM      3  C   UNL     1       3.506   3.428  19.418  0.00  0.00    +0.000 A 
ATOM      4  C   UNL     1       4.780   3.752  18.962  0.00  0.00    +0.000 A 
ATOM      5  C   UNL     1       5.251   5.080  18.960  0.00  0.00    +0.000 A 
ATOM      6  C   UNL     1       4.376   6.059  19.485  0.00  0.00    +0.000 A 
ENDROOT
BRANCH   1   9
ATOM      7  C   UNL     1       1.883   7.925  19.730  0.00  0.00    +0.000 C 
ATOM      8  O   UNL     1       2.104   8.144  18.543  0.00  0.00    +0.000 OA
ATOM      9  N   UNL     1       2.300   6.819  20.445  0.00  0.00    +0.000 N 
ATOM     10  H   UNL     1       1.989   6.731  21.404  0.00  0.00    +0.000 HD
BRANCH   7  13
ATOM     11  C   UNL     1       0.116  10.103  18.349  0.00  0.00    +0.000 C 
ATOM     12  C   UNL     1       0.196   9.896  19.842  0.00  0.00    +0.000 A 
ATOM     13  C   UNL     1       1.024   8.917  20.444  0.00  0.00    +0.000 A 
ATOM     14  C   UNL     1       1.015   8.748  21.842  0.00  0.00    +0.000 A 
ATOM     15  C   UNL     1       0.203   9.534  22.637  0.00  0.00    +0.000 A 
ATOM     16  F   UNL     1       0.195   9.349  23.963  0.00  0.00    +0.000 F 
ATOM     17  C   UNL     1      -0.609  10.505  22.077  0.00  0.00    +0.000 A 
ATOM     18  C   UNL     1      -0.623  10.706  20.685  0.00  0.00    +0.000 A 
BRANCH  18  19
ATOM     19  C   UNL     1      -1.543  11.778  20.134  0.00  0.00    +0.000 C 
ATOM     20  F   UNL     1      -2.514  12.141  21.015  0.00  0.00    +0.000 F 
ATOM     21  F   UNL     1      -0.894  12.935  19.815  0.00  0.00    +0.000 F 
ENDBRANCH  18  19
ENDBRANCH   7  13
ENDBRANCH   1   9
BRANCH   5  22
ATOM     22  C   UNL     1       6.674   5.456  18.328  0.00  0.00    +0.000 C 
ATOM     23  C   UNL     1       7.771   5.916  19.333  0.00  0.00    +0.000 C 
ATOM     24  O   UNL     1       8.196   6.963  18.427  0.00  0.00    +0.000 OA
ATOM     25  C   UNL     1       6.912   6.877  17.746  0.00  0.00    +0.000 C 
BRANCH  22  26
ATOM     26  C   UNL     1       7.176   4.318  17.414  0.00  0.00    +0.000 C 
BRANCH  26  27
ATOM     27  C   UNL     1       6.920   4.580  15.963  0.00  0.00    +0.000 A 
ATOM     28  N   UNL     1       7.752   5.159  15.120  0.00  0.00    +0.000 NA
ATOM     29  N   UNL     1       7.150   5.214  13.886  0.00  0.00    +0.000 NA
ATOM     30  C   UNL     1       5.968   4.663  13.997  0.00  0.00    +0.000 A 
ATOM     31  N   UNL     1       5.762   4.276  15.286  0.00  0.00    +0.000 N 
ATOM     32  C   UNL     1       4.558   3.685  15.799  0.00  0.00    +0.000 C 
ENDBRANCH  26  27
ENDBRANCH  22  26
ENDBRANCH   5  22
TORSDOF 6
ENDMDL
MODEL 2
REMARK VINA RESULT:      -8.7      4.790      9.378
REMARK  Name = 
REMARK  8 active torsions:
REMARK  status: ('A' for Active; 'I' for Inactive)
REMARK    1  A    between atoms: C_1  and  C_2
REMARK    2  A    between atoms: C_3  and  C_4
REMARK    3  A    between atoms: N_6  and  C_7
REMARK    4  A    between atoms: C_11  and  C_12
REMARK    5  A    between atoms: C_12  and  C_13
REMARK    6  A    between atoms: C_13  and  C_14
REMARK    7  A    between atoms: N_18  and  C_19
REMARK    8  A    between atoms: C_28  and  C_29
REMARK                            x       y       z     vdW  Elec       q    Type
REMARK                         _______ _______ _______ _____ _____    ______ ____
ROOT
ATOM      1  C   UNL     1       1.973   9.833  17.991  0.00  0.00    +0.000 A 
ATOM      2  C   UNL     1       2.721  10.999  17.824  0.00  0.00    +0.000 A 
ATOM      3  C   UNL     1       2.213  12.232  18.226  0.00  0.00    +0.000 A 
ATOM      4  C   UNL     1       0.936  12.315  18.771  0.00  0.00    +0.000 A 
ATOM      5  C   UNL     1       0.122  11.176  18.928  0.00  0.00    +0.000 A 
ATOM      6  C   UNL     1       0.687   9.939  18.540  0.00  0.00    +0.000 A 
ENDROOT
BRANCH   1   9
ATOM      7  C   UNL     1       2.643   7.483  18.492  0.00  0.00    +0.000 C 
ATOM      8  O   UNL     1       2.442   7.482  19.702  0.00  0.00    +0.000 OA
ATOM      9  N   UNL     1       2.428   8.542  17.631  0.00  0.00    +0.000 N 
ATOM     10  H   UNL     1       2.571   8.385  16.642  0.00  0.00    +0.000 HD
BRANCH   7  13
ATOM     11  C   UNL     1       5.414   7.010  17.122  0.00  0.00    +0.000 C 
ATOM     12  C   UNL     1       4.355   5.947  17.285  0.00  0.00    +0.000 A 
ATOM     13  C   UNL     1       3.096   6.194  17.888  0.00  0.00    +0.000 A 
ATOM     14  C   UNL     1       2.174   5.143  18.048  0.00  0.00    +0.000 A 
ATOM     15  C   UNL     1       2.482   3.867  17.619  0.00  0.00    +0.000 A 
ATOM     16  F   UNL     1       1.599   2.876  17.794  0.00  0.00    +0.000 F 
ATOM     17  C   UNL     1       3.700   3.599  17.017  0.00  0.00    +0.000 A 
ATOM     18  C   UNL     1       4.646   4.624  16.836  0.00  0.00    +0.000 A 
BRANCH  18  19
ATOM     19  C   UNL     1       5.964   4.262  16.180  0.00  0.00    +0.000 C 
ATOM     20  F   UNL     1       6.980   4.134  17.076  0.00  0.00    +0.000 F 
ATOM     21  F   UNL     1       5.925   3.076  15.507  0.00  0.00    +0.000 F 
ENDBRANCH  18  19
ENDBRANCH   7  13
ENDBRANCH   1   9
BRANCH   5  22
ATOM     22  C   UNL     1      -1.388  11.300  19.451  0.00  0.00    +0.000 C 
ATOM     23  C   UNL     1      -2.057  12.696  19.292  0.00  0.00    +0.000 C 
ATOM     24  O   UNL     1      -2.650  12.589  20.608  0.00  0.00    +0.000 OA
ATOM     25  C   UNL     1      -1.665  11.574  20.955  0.00  0.00    +0.000 C 
BRANCH  22  26
ATOM     26  C   UNL     1      -2.260  10.174  18.854  0.00  0.00    +0.000 C 
BRANCH  26  27
ATOM     27  C   UNL     1      -2.827  10.525  17.514  0.00  0.00    +0.000 A 
ATOM     28  N   UNL     1      -2.166  10.556  16.375  0.00  0.00    +0.000 NA
ATOM     29  N   UNL     1      -3.038  10.921  15.377  0.00  0.00    +0.000 NA
ATOM     30  C   UNL     1      -4.213  11.099  15.925  0.00  0.00    +0.000 A 
ATOM     31  N   UNL     1      -4.129  10.893  17.268  0.00  0.00    +0.000 N 
ATOM     32  C   UNL     1      -5.204  11.051  18.206  0.00  0.00    +0.000 C 
ENDBRANCH  26  27
ENDBRANCH  22  26
ENDBRANCH   5  22
TORSDOF 6
ENDMDL
MODEL 3
REMARK VINA RESULT:      -8.6      2.001      2.890
REMARK  Name = 
REMARK  8 active torsions:
REMARK  status: ('A' for Active; 'I' for Inactive)
REMARK    1  A    between atoms: C_1  and  C_2
REMARK    2  A    between atoms: C_3  and  C_4
REMARK    3  A    between atoms: N_6  and  C_7
REMARK    4  A    between atoms: C_11  and  C_12
REMARK    5  A    between atoms: C_12  and  C_13
REMARK    6  A    between atoms: C_13  and  C_14
REMARK    7  A    between atoms: N_18  and  C_19
REMARK    8  A    between atoms: C_28  and  C_29
REMARK                            x       y       z     vdW  Elec       q    Type
REMARK                         _______ _______ _______ _____ _____    ______ ____
ROOT
ATOM      1  C   UNL     1       2.731   5.607  18.171  0.00  0.00    +0.000 A 
ATOM      2  C   UNL     1       2.062   4.393  18.330  0.00  0.00    +0.000 A 
ATOM      3  C   UNL     1       2.606   3.213  17.829  0.00  0.00    +0.000 A 
ATOM      4  C   UNL     1       3.811   3.241  17.135  0.00  0.00    +0.000 A 
ATOM      5  C   UNL     1       4.510   4.443  16.912  0.00  0.00    +0.000 A 
ATOM      6  C   UNL     1       3.943   5.614  17.466  0.00  0.00    +0.000 A 
ENDROOT
BRANCH   1   9
ATOM      7  C   UNL     1       1.803   7.086  19.953  0.00  0.00    +0.000 C 
ATOM      8  O   UNL     1       1.772   6.276  20.874  0.00  0.00    +0.000 OA
ATOM      9  N   UNL     1       2.255   6.844  18.671  0.00  0.00    +0.000 N 
ATOM     10  H   UNL     1       2.289   7.623  18.026  0.00  0.00    +0.000 HD
BRANCH   7  13
ATOM     11  C   UNL     1       1.641   9.440  17.902  0.00  0.00    +0.000 C 
ATOM     12  C   UNL     1       1.270   9.557  19.359  0.00  0.00    +0.000 A 
ATOM     13  C   UNL     1       1.376   8.481  20.275  0.00  0.00    +0.000 A 
ATOM     14  C   UNL     1       0.969   8.649  21.612  0.00  0.00    +0.000 A 
ATOM     15  C   UNL     1       0.466   9.862  22.044  0.00  0.00    +0.000 A 
ATOM     16  F   UNL     1       0.069  10.000  23.315  0.00  0.00    +0.000 F 
ATOM     17  C   UNL     1       0.361  10.934  21.175  0.00  0.00    +0.000 A 
ATOM     18  C   UNL     1       0.762  10.804  19.833  0.00  0.00    +0.000 A 
BRANCH  18  19
ATOM     19  C   UNL     1       0.610  12.013  18.930  0.00  0.00    +0.000 C 
ATOM     20  F   UNL     1      -0.690  12.314  18.667  0.00  0.00    +0.000 F 
ATOM     21  F   UNL     1       1.145  13.152  19.456  0.00  0.00    +0.000 F 
ENDBRANCH  18  19
ENDBRANCH   7  13
ENDBRANCH   1   9
BRANCH   5  22
ATOM     22  C   UNL     1       5.838   4.478  16.016  0.00  0.00    +0.000 C 
ATOM     23  C   UNL     1       5.884   5.563  14.901  0.00  0.00    +0.000 C 
ATOM     24  O   UNL     1       6.465   4.617  13.970  0.00  0.00    +0.000 OA
ATOM     25  C   UNL     1       5.974   3.524  14.798  0.00  0.00    +0.000 C 
BRANCH  22  26
ATOM     26  C   UNL     1       7.093   4.524  16.913  0.00  0.00    +0.000 C 
BRANCH  26  27
ATOM     27  C   UNL     1       7.469   5.914  17.320  0.00  0.00    +0.000 A 
ATOM     28  N   UNL     1       7.579   6.955  16.518  0.00  0.00    +0.000 NA
ATOM     29  N   UNL     1       7.941   8.046  17.271  0.00  0.00    +0.000 NA
ATOM     30  C   UNL     1       8.040   7.652  18.515  0.00  0.00    +0.000 A 
ATOM     31  N   UNL     1       7.783   6.318  18.596  0.00  0.00    +0.000 N 
ATOM     32  C   UNL     1       7.851   5.524  19.791  0.00  0.00    +0.000 C 
ENDBRANCH  26  27
ENDBRANCH  22  26
ENDBRANCH   5  22
TORSDOF 6
ENDMDL
MODEL 4
REMARK VINA RESULT:      -8.6      5.055     10.127
REMARK  Name = 
REMARK  8 active torsions:
REMARK  status: ('A' for Active; 'I' for Inactive)
REMARK    1  A    between atoms: C_1  and  C_2
REMARK    2  A    between atoms: C_3  and  C_4
REMARK    3  A    between atoms: N_6  and  C_7
REMARK    4  A    between atoms: C_11  and  C_12
REMARK    5  A    between atoms: C_12  and  C_13
REMARK    6  A    between atoms: C_13  and  C_14
REMARK    7  A    between atoms: N_18  and  C_19
REMARK    8  A    between atoms: C_28  and  C_29
REMARK                            x       y       z     vdW  Elec       q    Type
REMARK                         _______ _______ _______ _____ _____    ______ ____
ROOT
ATOM      1  C   UNL     1       0.972   9.453  17.993  0.00  0.00    +0.000 A 
ATOM      2  C   UNL     1       1.371  10.588  18.700  0.00  0.00    +0.000 A 
ATOM      3  C   UNL     1       0.474  11.625  18.942  0.00  0.00    +0.000 A 
ATOM      4  C   UNL     1      -0.825  11.552  18.449  0.00  0.00    +0.000 A 
ATOM      5  C   UNL     1      -1.271  10.448  17.696  0.00  0.00    +0.000 A 
ATOM      6  C   UNL     1      -0.341   9.400  17.503  0.00  0.00    +0.000 A 
ENDROOT
BRANCH   1   9
ATOM      7  C   UNL     1       2.339   7.478  18.665  0.00  0.00    +0.000 C 
ATOM      8  O   UNL     1       2.129   7.504  19.873  0.00  0.00    +0.000 OA
ATOM      9  N   UNL     1       1.816   8.348  17.728  0.00  0.00    +0.000 N 
ATOM     10  H   UNL     1       2.018   8.171  16.753  0.00  0.00    +0.000 HD
BRANCH   7  13
ATOM     11  C   UNL     1       1.740   4.438  19.083  0.00  0.00    +0.000 C 
ATOM     12  C   UNL     1       2.921   4.972  18.311  0.00  0.00    +0.000 A 
ATOM     13  C   UNL     1       3.185   6.356  18.157  0.00  0.00    +0.000 A 
ATOM     14  C   UNL     1       4.281   6.783  17.385  0.00  0.00    +0.000 A 
ATOM     15  C   UNL     1       5.111   5.862  16.775  0.00  0.00    +0.000 A 
ATOM     16  F   UNL     1       6.140   6.286  16.031  0.00  0.00    +0.000 F 
ATOM     17  C   UNL     1       4.884   4.504  16.916  0.00  0.00    +0.000 A 
ATOM     18  C   UNL     1       3.801   4.039  17.684  0.00  0.00    +0.000 A 
BRANCH  18  19
ATOM     19  C   UNL     1       3.601   2.539  17.790  0.00  0.00    +0.000 C 
ATOM     20  F   UNL     1       3.652   2.091  19.073  0.00  0.00    +0.000 F 
ATOM     21  F   UNL     1       2.396   2.119  17.308  0.00  0.00    +0.000 F 
ENDBRANCH  18  19
ENDBRANCH   7  13
ENDBRANCH   1   9
BRANCH   5  22
ATOM     22  C   UNL     1      -2.732  10.426  17.039  0.00  0.00    +0.000 C 
ATOM     23  C   UNL     1      -2.896   9.555  15.760  0.00  0.00    +0.000 C 
ATOM     24  O   UNL     1      -3.706  10.580  15.136  0.00  0.00    +0.000 OA
ATOM     25  C   UNL     1      -3.160  11.559  16.066  0.00  0.00    +0.000 C 
BRANCH  22  26
ATOM     26  C   UNL     1      -3.797  10.086  18.104  0.00  0.00    +0.000 C 
BRANCH  26  27
ATOM     27  C   UNL     1      -4.829  11.159  18.259  0.00  0.00    +0.000 A 
ATOM     28  N   UNL     1      -5.955  11.257  17.580  0.00  0.00    +0.000 NA
ATOM     29  N   UNL     1      -6.627  12.374  18.015  0.00  0.00    +0.000 NA
ATOM     30  C   UNL     1      -5.903  12.932  18.951  0.00  0.00    +0.000 A 
ATOM     31  N   UNL     1      -4.752  12.226  19.123  0.00  0.00    +0.000 N 
ATOM     32  C   UNL     1      -3.688  12.568  20.024  0.00  0.00    +0.000 C 
ENDBRANCH  26  27
ENDBRANCH  22  26
ENDBRANCH   5  22
TORSDOF 6
ENDMDL
MODEL 5
REMARK VINA RESULT:      -8.5      0.975      2.043
REMARK  Name = 
REMARK  8 active torsions:
REMARK  status: ('A' for Active; 'I' for Inactive)
REMARK    1  A    between atoms: C_1  and  C_2
REMARK    2  A    between atoms: C_3  and  C_4
REMARK    3  A    between atoms: N_6  and  C_7
REMARK    4  A    between atoms: C_11  and  C_12
REMARK    5  A    between atoms: C_12  and  C_13
REMARK    6  A    between atoms: C_13  and  C_14
REMARK    7  A    between atoms: N_18  and  C_19
REMARK    8  A    between atoms: C_28  and  C_29
REMARK                            x       y       z     vdW  Elec       q    Type
REMARK                         _______ _______ _______ _____ _____    ______ ____
ROOT
ATOM      1  C   UNL     1       3.044   5.903  19.767  0.00  0.00    +0.000 A 
ATOM      2  C   UNL     1       2.718   4.565  19.990  0.00  0.00    +0.000 A 
ATOM      3  C   UNL     1       3.659   3.560  19.777  0.00  0.00    +0.000 A 
ATOM      4  C   UNL     1       4.927   3.883  19.306  0.00  0.00    +0.000 A 
ATOM      5  C   UNL     1       5.298   5.213  19.027  0.00  0.00    +0.000 A 
ATOM      6  C   UNL     1       4.326   6.207  19.290  0.00  0.00    +0.000 A 
ENDROOT
BRANCH   1   9
ATOM      7  C   UNL     1       2.029   8.109  19.195  0.00  0.00    +0.000 C 
ATOM      8  O   UNL     1       2.650   8.341  18.162  0.00  0.00    +0.000 OA
ATOM      9  N   UNL     1       2.152   6.981  19.983  0.00  0.00    +0.000 N 
ATOM     10  H   UNL     1       1.527   6.886  20.773  0.00  0.00    +0.000 HD
BRANCH   7  13
ATOM     11  C   UNL     1       1.467   9.053  22.122  0.00  0.00    +0.000 C 
ATOM     12  C   UNL     1       0.739   9.573  20.908  0.00  0.00    +0.000 A 
ATOM     13  C   UNL     1       0.995   9.111  19.593  0.00  0.00    +0.000 A 
ATOM     14  C   UNL     1       0.309   9.675  18.501  0.00  0.00    +0.000 A 
ATOM     15  C   UNL     1      -0.620  10.679  18.698  0.00  0.00    +0.000 A 
ATOM     16  F   UNL     1      -1.251  11.215  17.647  0.00  0.00    +0.000 F 
ATOM     17  C   UNL     1      -0.898  11.143  19.972  0.00  0.00    +0.000 A 
ATOM     18  C   UNL     1      -0.236  10.601  21.089  0.00  0.00    +0.000 A 
BRANCH  18  19
ATOM     19  C   UNL     1      -0.579  11.162  22.456  0.00  0.00    +0.000 C 
ATOM     20  F   UNL     1      -0.281  12.484  22.572  0.00  0.00    +0.000 F 
ATOM     21  F   UNL     1      -1.903  11.061  22.764  0.00  0.00    +0.000 F 
ENDBRANCH  18  19
ENDBRANCH   7  13
ENDBRANCH   1   9
BRANCH   5  22
ATOM     22  C   UNL     1       6.722   5.560  18.379  0.00  0.00    +0.000 C 
ATOM     23  C   UNL     1       7.830   6.025  19.367  0.00  0.00    +0.000 C 
ATOM     24  O   UNL     1       8.262   7.050  18.440  0.00  0.00    +0.000 OA
ATOM     25  C   UNL     1       6.972   6.967  17.769  0.00  0.00    +0.000 C 
BRANCH  22  26
ATOM     26  C   UNL     1       7.203   4.400  17.482  0.00  0.00    +0.000 C 
BRANCH  26  27
ATOM     27  C   UNL     1       6.878   4.606  16.036  0.00  0.00    +0.000 A 
ATOM     28  N   UNL     1       7.658   5.176  15.139  0.00  0.00    +0.000 NA
ATOM     29  N   UNL     1       7.001   5.173  13.931  0.00  0.00    +0.000 NA
ATOM     30  C   UNL     1       5.840   4.599  14.113  0.00  0.00    +0.000 A 
ATOM     31  N   UNL     1       5.700   4.251  15.422  0.00  0.00    +0.000 N 
ATOM     32  C   UNL     1       4.535   3.649  16.007  0.00  0.00    +0.000 C 
ENDBRANCH  26  27
ENDBRANCH  22  26
ENDBRANCH   5  22
TORSDOF 6
ENDMDL
MODEL 6
REMARK VINA RESULT:      -8.4      4.471      9.170
REMARK  Name = 
REMARK  8 active torsions:
REMARK  status: ('A' for Active; 'I' for Inactive)
REMARK    1  A    between atoms: C_1  and  C_2
REMARK    2  A    between atoms: C_3  and  C_4
REMARK    3  A    between atoms: N_6  and  C_7
REMARK    4  A    between atoms: C_11  and  C_12
REMARK    5  A    between atoms: C_12  and  C_13
REMARK    6  A    between atoms: C_13  and  C_14
REMARK    7  A    between atoms: N_18  and  C_19
REMARK    8  A    between atoms: C_28  and  C_29
REMARK                            x       y       z     vdW  Elec       q    Type
REMARK                         _______ _______ _______ _____ _____    ______ ____
ROOT
ATOM      1  C   UNL     1       0.682   9.616  17.987  0.00  0.00    +0.000 A 
ATOM      2  C   UNL     1      -0.674   9.590  17.659  0.00  0.00    +0.000 A 
ATOM      3  C   UNL     1      -1.493  10.680  17.939  0.00  0.00    +0.000 A 
ATOM      4  C   UNL     1      -0.969  11.798  18.582  0.00  0.00    +0.000 A 
ATOM      5  C   UNL     1       0.383  11.863  18.970  0.00  0.00    +0.000 A 
ATOM      6  C   UNL     1       1.190  10.751  18.636  0.00  0.00    +0.000 A 
ENDROOT
BRANCH   1   9
ATOM      7  C   UNL     1       2.165   7.721  18.644  0.00  0.00    +0.000 C 
ATOM      8  O   UNL     1       1.968   7.738  19.855  0.00  0.00    +0.000 OA
ATOM      9  N   UNL     1       1.583   8.559  17.713  0.00  0.00    +0.000 N 
ATOM     10  H   UNL     1       1.783   8.391  16.736  0.00  0.00    +0.000 HD
BRANCH   7  13
ATOM     11  C   UNL     1       1.712   4.652  19.029  0.00  0.00    +0.000 C 
ATOM     12  C   UNL     1       2.869   5.250  18.267  0.00  0.00    +0.000 A 
ATOM     13  C   UNL     1       3.065   6.646  18.128  0.00  0.00    +0.000 A 
ATOM     14  C   UNL     1       4.142   7.134  17.364  0.00  0.00    +0.000 A 
ATOM     15  C   UNL     1       5.017   6.261  16.747  0.00  0.00    +0.000 A 
ATOM     16  F   UNL     1       6.026   6.742  16.010  0.00  0.00    +0.000 F 
ATOM     17  C   UNL     1       4.855   4.892  16.873  0.00  0.00    +0.000 A 
ATOM     18  C   UNL     1       3.794   4.367  17.633  0.00  0.00    +0.000 A 
BRANCH  18  19
ATOM     19  C   UNL     1       3.667   2.858  17.723  0.00  0.00    +0.000 C 
ATOM     20  F   UNL     1       3.744   2.400  19.001  0.00  0.00    +0.000 F 
ATOM     21  F   UNL     1       2.482   2.386  17.241  0.00  0.00    +0.000 F 
ENDBRANCH  18  19
ENDBRANCH   7  13
ENDBRANCH   1   9
BRANCH   5  22
ATOM     22  C   UNL     1       0.948  13.107  19.809  0.00  0.00    +0.000 C 
ATOM     23  C   UNL     1       1.103  14.445  19.030  0.00  0.00    +0.000 C 
ATOM     24  O   UNL     1       2.377  14.699  19.671  0.00  0.00    +0.000 OA
ATOM     25  C   UNL     1       2.480  13.283  19.995  0.00  0.00    +0.000 C 
BRANCH  22  26
ATOM     26  C   UNL     1       0.138  13.292  21.110  0.00  0.00    +0.000 C 
BRANCH  26  27
ATOM     27  C   UNL     1      -0.071  12.010  21.854  0.00  0.00    +0.000 A 
ATOM     28  N   UNL     1       0.796  11.023  21.959  0.00  0.00    +0.000 NA
ATOM     29  N   UNL     1       0.230  10.029  22.721  0.00  0.00    +0.000 NA
ATOM     30  C   UNL     1      -0.965  10.430  23.070  0.00  0.00    +0.000 A 
ATOM     31  N   UNL     1      -1.215  11.653  22.528  0.00  0.00    +0.000 N 
ATOM     32  C   UNL     1      -2.445  12.384  22.647  0.00  0.00    +0.000 C 
ENDBRANCH  26  27
ENDBRANCH  22  26
ENDBRANCH   5  22
TORSDOF 6
ENDMDL
MODEL 7
REMARK VINA RESULT:      -8.4      5.100      9.220
REMARK  Name = 
REMARK  8 active torsions:
REMARK  status: ('A' for Active; 'I' for Inactive)
REMARK    1  A    between atoms: C_1  and  C_2
REMARK    2  A    between atoms: C_3  and  C_4
REMARK    3  A    between atoms: N_6  and  C_7
REMARK    4  A    between atoms: C_11  and  C_12
REMARK    5  A    between atoms: C_12  and  C_13
REMARK    6  A    between atoms: C_13  and  C_14
REMARK    7  A    between atoms: N_18  and  C_19
REMARK    8  A    between atoms: C_28  and  C_29
REMARK                            x       y       z     vdW  Elec       q    Type
REMARK                         _______ _______ _______ _____ _____    ______ ____
ROOT
ATOM      1  C   UNL     1       0.605  10.092  18.363  0.00  0.00    +0.000 A 
ATOM      2  C   UNL     1      -0.754  10.103  18.047  0.00  0.00    +0.000 A 
ATOM      3  C   UNL     1      -1.531  11.231  18.299  0.00  0.00    +0.000 A 
ATOM      4  C   UNL     1      -0.962  12.349  18.901  0.00  0.00    +0.000 A 
ATOM      5  C   UNL     1       0.395  12.378  19.276  0.00  0.00    +0.000 A 
ATOM      6  C   UNL     1       1.159  11.227  18.971  0.00  0.00    +0.000 A 
ENDROOT
BRANCH   1   9
ATOM      7  C   UNL     1       1.982   8.133  19.064  0.00  0.00    +0.000 C 
ATOM      8  O   UNL     1       1.751   8.161  20.268  0.00  0.00    +0.000 OA
ATOM      9  N   UNL     1       1.466   8.995  18.116  0.00  0.00    +0.000 N 
ATOM     10  H   UNL     1       1.686   8.817  17.144  0.00  0.00    +0.000 HD
BRANCH   7  13
ATOM     11  C   UNL     1       1.909   5.194  20.127  0.00  0.00    +0.000 C 
ATOM     12  C   UNL     1       2.816   5.674  19.021  0.00  0.00    +0.000 A 
ATOM     13  C   UNL     1       2.849   7.019  18.574  0.00  0.00    +0.000 A 
ATOM     14  C   UNL     1       3.688   7.387  17.506  0.00  0.00    +0.000 A 
ATOM     15  C   UNL     1       4.489   6.447  16.887  0.00  0.00    +0.000 A 
ATOM     16  F   UNL     1       5.269   6.811  15.862  0.00  0.00    +0.000 F 
ATOM     17  C   UNL     1       4.486   5.128  17.309  0.00  0.00    +0.000 A 
ATOM     18  C   UNL     1       3.664   4.724  18.376  0.00  0.00    +0.000 A 
BRANCH  18  19
ATOM     19  C   UNL     1       3.700   3.263  18.782  0.00  0.00    +0.000 C 
ATOM     20  F   UNL     1       3.947   2.431  17.734  0.00  0.00    +0.000 F 
ATOM     21  F   UNL     1       4.667   2.981  19.702  0.00  0.00    +0.000 F 
ENDBRANCH  18  19
ENDBRANCH   7  13
ENDBRANCH   1   9
BRANCH   5  22
ATOM     22  C   UNL     1       1.011  13.627  20.069  0.00  0.00    +0.000 C 
ATOM     23  C   UNL     1       2.402  13.401  20.731  0.00  0.00    +0.000 C 
ATOM     24  O   UNL     1       1.979  14.113  21.919  0.00  0.00    +0.000 OA
ATOM     25  C   UNL     1       0.590  13.893  21.541  0.00  0.00    +0.000 C 
BRANCH  22  26
ATOM     26  C   UNL     1       0.997  14.890  19.181  0.00  0.00    +0.000 C 
BRANCH  26  27
ATOM     27  C   UNL     1       2.360  15.283  18.704  0.00  0.00    +0.000 A 
ATOM     28  N   UNL     1       3.071  14.660  17.785  0.00  0.00    +0.000 NA
ATOM     29  N   UNL     1       4.261  15.328  17.631  0.00  0.00    +0.000 NA
ATOM     30  C   UNL     1       4.252  16.347  18.452  0.00  0.00    +0.000 A 
ATOM     31  N   UNL     1       3.095  16.347  19.170  0.00  0.00    +0.000 N 
ATOM     32  C   UNL     1       2.755  17.281  20.206  0.00  0.00    +0.000 C 
ENDBRANCH  26  27
ENDBRANCH  22  26
ENDBRANCH   5  22
TORSDOF 6
ENDMDL
MODEL 8
REMARK VINA RESULT:      -8.3      4.655      9.672
REMARK  Name = 
REMARK  8 active torsions:
REMARK  status: ('A' for Active; 'I' for Inactive)
REMARK    1  A    between atoms: C_1  and  C_2
REMARK    2  A    between atoms: C_3  and  C_4
REMARK    3  A    between atoms: N_6  and  C_7
REMARK    4  A    between atoms: C_11  and  C_12
REMARK    5  A    between atoms: C_12  and  C_13
REMARK    6  A    between atoms: C_13  and  C_14
REMARK    7  A    between atoms: N_18  and  C_19
REMARK    8  A    between atoms: C_28  and  C_29
REMARK                            x       y       z     vdW  Elec       q    Type
REMARK                         _______ _______ _______ _____ _____    ______ ____
ROOT
ATOM      1  C   UNL     1       0.497  10.036  18.200  0.00  0.00    +0.000 A 
ATOM      2  C   UNL     1      -0.871   9.972  17.939  0.00  0.00    +0.000 A 
ATOM      3  C   UNL     1      -1.678  11.096  18.101  0.00  0.00    +0.000 A 
ATOM      4  C   UNL     1      -1.126  12.289  18.558  0.00  0.00    +0.000 A 
ATOM      5  C   UNL     1       0.242  12.400  18.874  0.00  0.00    +0.000 A 
ATOM      6  C   UNL     1       1.033  11.246  18.662  0.00  0.00    +0.000 A 
ENDROOT
BRANCH   1   9
ATOM      7  C   UNL     1       1.913   8.164  19.045  0.00  0.00    +0.000 C 
ATOM      8  O   UNL     1       1.669   8.268  20.243  0.00  0.00    +0.000 OA
ATOM      9  N   UNL     1       1.386   8.946  18.036  0.00  0.00    +0.000 N 
ATOM     10  H   UNL     1       1.620   8.707  17.081  0.00  0.00    +0.000 HD
BRANCH   7  13
ATOM     11  C   UNL     1       1.842   5.280  20.250  0.00  0.00    +0.000 C 
ATOM     12  C   UNL     1       2.780   5.718  19.153  0.00  0.00    +0.000 A 
ATOM     13  C   UNL     1       2.809   7.039  18.641  0.00  0.00    +0.000 A 
ATOM     14  C   UNL     1       3.680   7.367  17.584  0.00  0.00    +0.000 A 
ATOM     15  C   UNL     1       4.514   6.409  17.040  0.00  0.00    +0.000 A 
ATOM     16  F   UNL     1       5.323   6.734  16.024  0.00  0.00    +0.000 F 
ATOM     17  C   UNL     1       4.513   5.113  17.526  0.00  0.00    +0.000 A 
ATOM     18  C   UNL     1       3.661   4.749  18.584  0.00  0.00    +0.000 A 
BRANCH  18  19
ATOM     19  C   UNL     1       3.702   3.311  19.064  0.00  0.00    +0.000 C 
ATOM     20  F   UNL     1       3.592   2.414  18.047  0.00  0.00    +0.000 F 
ATOM     21  F   UNL     1       4.861   2.989  19.706  0.00  0.00    +0.000 F 
ENDBRANCH  18  19
ENDBRANCH   7  13
ENDBRANCH   1   9
BRANCH   5  22
ATOM     22  C   UNL     1       0.843  13.744  19.505  0.00  0.00    +0.000 C 
ATOM     23  C   UNL     1      -0.085  14.993  19.470  0.00  0.00    +0.000 C 
ATOM     24  O   UNL     1       1.028  15.840  19.096  0.00  0.00    +0.000 OA
ATOM     25  C   UNL     1       1.757  14.662  18.647  0.00  0.00    +0.000 C 
BRANCH  22  26
ATOM     26  C   UNL     1       1.390  13.476  20.924  0.00  0.00    +0.000 C 
BRANCH  26  27
ATOM     27  C   UNL     1       0.415  13.834  22.002  0.00  0.00    +0.000 A 
ATOM     28  N   UNL     1       0.370  14.975  22.660  0.00  0.00    +0.000 NA
ATOM     29  N   UNL     1      -0.664  14.912  23.564  0.00  0.00    +0.000 NA
ATOM     30  C   UNL     1      -1.231  13.740  23.436  0.00  0.00    +0.000 A 
ATOM     31  N   UNL     1      -0.575  13.013  22.491  0.00  0.00    +0.000 N 
ATOM     32  C   UNL     1      -0.877  11.660  22.118  0.00  0.00    +0.000 C 
ENDBRANCH  26  27
ENDBRANCH  22  26
ENDBRANCH   5  22
TORSDOF 6
ENDMDL
MODEL 9
REMARK VINA RESULT:      -8.3      4.610      9.158
REMARK  Name = 
REMARK  8 active torsions:
REMARK  status: ('A' for Active; 'I' for Inactive)
REMARK    1  A    between atoms: C_1  and  C_2
REMARK    2  A    between atoms: C_3  and  C_4
REMARK    3  A    between atoms: N_6  and  C_7
REMARK    4  A    between atoms: C_11  and  C_12
REMARK    5  A    between atoms: C_12  and  C_13
REMARK    6  A    between atoms: C_13  and  C_14
REMARK    7  A    between atoms: N_18  and  C_19
REMARK    8  A    between atoms: C_28  and  C_29
REMARK                            x       y       z     vdW  Elec       q    Type
REMARK                         _______ _______ _______ _____ _____    ______ ____
ROOT
ATOM      1  C   UNL     1       1.384   8.599  20.597  0.00  0.00    +0.000 A 
ATOM      2  C   UNL     1       0.855   8.479  21.882  0.00  0.00    +0.000 A 
ATOM      3  C   UNL     1       0.119   9.518  22.445  0.00  0.00    +0.000 A 
ATOM      4  C   UNL     1      -0.069  10.702  21.739  0.00  0.00    +0.000 A 
ATOM      5  C   UNL     1       0.476  10.892  20.454  0.00  0.00    +0.000 A 
ATOM      6  C   UNL     1       1.187   9.801  19.903  0.00  0.00    +0.000 A 
ENDROOT
BRANCH   1   9
ATOM      7  C   UNL     1       2.257   7.414  18.582  0.00  0.00    +0.000 C 
ATOM      8  O   UNL     1       1.787   8.144  17.715  0.00  0.00    +0.000 OA
ATOM      9  N   UNL     1       2.122   7.580  19.947  0.00  0.00    +0.000 N 
ATOM     10  H   UNL     1       2.621   6.941  20.552  0.00  0.00    +0.000 HD
BRANCH   7  13
ATOM     11  C   UNL     1       1.644   4.382  19.033  0.00  0.00    +0.000 C 
ATOM     12  C   UNL     1       2.845   4.903  18.282  0.00  0.00    +0.000 A 
ATOM     13  C   UNL     1       3.114   6.283  18.113  0.00  0.00    +0.000 A 
ATOM     14  C   UNL     1       4.229   6.698  17.361  0.00  0.00    +0.000 A 
ATOM     15  C   UNL     1       5.072   5.767  16.785  0.00  0.00    +0.000 A 
ATOM     16  F   UNL     1       6.119   6.179  16.059  0.00  0.00    +0.000 F 
ATOM     17  C   UNL     1       4.840   4.411  16.942  0.00  0.00    +0.000 A 
ATOM     18  C   UNL     1       3.738   3.959  17.690  0.00  0.00    +0.000 A 
BRANCH  18  19
ATOM     19  C   UNL     1       3.534   2.461  17.815  0.00  0.00    +0.000 C 
ATOM     20  F   UNL     1       3.562   2.032  19.105  0.00  0.00    +0.000 F 
ATOM     21  F   UNL     1       2.337   2.036  17.319  0.00  0.00    +0.000 F 
ENDBRANCH  18  19
ENDBRANCH   7  13
ENDBRANCH   1   9
BRANCH   5  22
ATOM     22  C   UNL     1       0.350  12.299  19.698  0.00  0.00    +0.000 C 
ATOM     23  C   UNL     1      -0.507  13.386  20.411  0.00  0.00    +0.000 C 
ATOM     24  O   UNL     1      -1.109  13.772  19.151  0.00  0.00    +0.000 OA
ATOM     25  C   UNL     1      -0.719  12.487  18.587  0.00  0.00    +0.000 C 
BRANCH  22  26
ATOM     26  C   UNL     1       1.746  12.832  19.313  0.00  0.00    +0.000 C 
BRANCH  26  27
ATOM     27  C   UNL     1       2.317  13.764  20.335  0.00  0.00    +0.000 A 
ATOM     28  N   UNL     1       2.824  13.421  21.503  0.00  0.00    +0.000 NA
ATOM     29  N   UNL     1       3.241  14.561  22.146  0.00  0.00    +0.000 NA
ATOM     30  C   UNL     1       2.988  15.575  21.359  0.00  0.00    +0.000 A 
ATOM     31  N   UNL     1       2.381  15.133  20.223  0.00  0.00    +0.000 N 
ATOM     32  C   UNL     1       1.906  15.964  19.152  0.00  0.00    +0.000 C 
ENDBRANCH  26  27
ENDBRANCH  22  26
ENDBRANCH   5  22
TORSDOF 6
ENDMDL
