MODEL 1
REMARK VINA RESULT:      -8.5      0.000      0.000
REMARK  Name = 
REMARK  10 active torsions:
REMARK  status: ('A' for Active; 'I' for Inactive)
REMARK    1  A    between atoms: C_2  and  C_3
REMARK    2  A    between atoms: C_3  and  C_4
REMARK    3  A    between atoms: C_6  and  C_7
REMARK    4  A    between atoms: N_9  and  C_10
REMARK    5  A    between atoms: C_14  and  C_15
REMARK    6  A    between atoms: C_15  and  C_16
REMARK    7  A    between atoms: C_15  and  C_17
REMARK    8  A    between atoms: C_17  and  C_18
REMARK    9  A    between atoms: N_22  and  C_23
REMARK   10  A    between atoms: C_26  and  C_27
REMARK                            x       y       z     vdW  Elec       q    Type
REMARK                         _______ _______ _______ _____ _____    ______ ____
ROOT
ATOM      1  C   UNL     1       2.644   5.886  18.601  0.00  0.00    +0.000 A 
ATOM      2  C   UNL     1       1.868   4.756  18.322  0.00  0.00    +0.000 A 
ATOM      3  C   UNL     1       2.369   3.695  17.572  0.00  0.00    +0.000 A 
ATOM      4  C   UNL     1       3.657   3.759  17.056  0.00  0.00    +0.000 A 
ATOM      5  C   UNL     1       4.446   4.900  17.265  0.00  0.00    +0.000 A 
ATOM      6  C   UNL     1       3.924   5.964  18.037  0.00  0.00    +0.000 A 
ENDROOT
BRANCH   1   9
ATOM      7  C   UNL     1       1.727   8.166  18.941  0.00  0.00    +0.000 C 
ATOM      8  O   UNL     1       1.634   8.471  17.751  0.00  0.00    +0.000 OA
ATOM      9  N   UNL     1       2.173   6.945  19.423  0.00  0.00    +0.000 N 
ATOM     10  H   UNL     1       2.056   6.779  20.414  0.00  0.00    +0.000 HD
BRANCH   7  13
ATOM     11  C   UNL     1       1.035  11.460  20.468  0.00  0.00    +0.000 A 
ATOM     12  C   UNL     1       1.384  10.514  19.539  0.00  0.00    +0.000 A 
ATOM     13  C   UNL     1       1.291   9.192  19.930  0.00  0.00    +0.000 A 
ATOM     14  N   UNL     1       0.863   8.790  21.149  0.00  0.00    +0.000 NA
ATOM     15  C   UNL     1       0.532   9.792  21.988  0.00  0.00    +0.000 A 
ATOM     16  C   UNL     1       0.063   9.447  23.369  0.00  0.00    +0.000 C 
ATOM     17  N   UNL     1       0.601  11.111  21.697  0.00  0.00    +0.000 NA
BRANCH  11  18
ATOM     18  C   UNL     1       1.131  12.928  20.120  0.00  0.00    +0.000 C 
BRANCH  18  20
ATOM     19  C   UNL     1       2.315  13.401  17.945  0.00  0.00    +0.000 C 
ATOM     20  C   UNL     1       2.335  13.252  19.278  0.00  0.00    +0.000 C 
ENDBRANCH  18  20
ENDBRANCH  11  18
ENDBRANCH   7  13
ENDBRANCH   1   9
BRANCH   5  21
ATOM     21  C   UNL     1       5.835   5.012  16.646  0.00  0.00    +0.000 C 
ATOM     22  C   UNL     1       6.938   4.809  17.698  0.00  0.00    +0.000 C 
BRANCH  21  23
ATOM     23  C   UNL     1       6.033   4.019  15.478  0.00  0.00    +0.000 C 
BRANCH  23  24
ATOM     24  C   UNL     1       6.827   4.600  14.355  0.00  0.00    +0.000 A 
ATOM     25  N   UNL     1       7.765   5.519  14.468  0.00  0.00    +0.000 NA
ATOM     26  N   UNL     1       8.277   5.771  13.218  0.00  0.00    +0.000 NA
ATOM     27  C   UNL     1       7.646   4.996  12.369  0.00  0.00    +0.000 A 
ATOM     28  N   UNL     1       6.728   4.243  13.034  0.00  0.00    +0.000 N 
ATOM     29  C   UNL     1       5.861   3.262  12.439  0.00  0.00    +0.000 C 
ENDBRANCH  23  24
ENDBRANCH  21  23
ENDBRANCH   5  21
TORSDOF 7
ENDMDL
MODEL 2
REMARK VINA RESULT:      -8.5      1.164      2.332
REMARK  Name = 
REMARK  10 active torsions:
REMARK  status: ('A' for Active; 'I' for Inactive)
REMARK    1  A    between atoms: C_2  and  C_3
REMARK    2  A    between atoms: C_3  and  C_4
REMARK    3  A    between atoms: C_6  and  C_7
REMARK    4  A    between atoms: N_9  and  C_10
REMARK    5  A    between atoms: C_14  and  C_15
REMARK    6  A    between atoms: C_15  and  C_16
REMARK    7  A    between atoms: C_15  and  C_17
REMARK    8  A    between atoms: C_17  and  C_18
REMARK    9  A    between atoms: N_22  and  C_23
REMARK   10  A    between atoms: C_26  and  C_27
REMARK                            x       y       z     vdW  Elec       q    Type
REMARK                         _______ _______ _______ _____ _____    ______ ____
ROOT
ATOM      1  C   UNL     1       2.670   6.244  18.353  0.00  0.00    +0.000 A 
ATOM      2  C   UNL     1       1.892   5.090  18.217  0.00  0.00    +0.000 A 
ATOM      3  C   UNL     1       2.410   3.923  17.660  0.00  0.00    +0.000 A 
ATOM      4  C   UNL     1       3.719   3.900  17.196  0.00  0.00    +0.000 A 
ATOM      5  C   UNL     1       4.514   5.053  17.263  0.00  0.00    +0.000 A 
ATOM      6  C   UNL     1       3.974   6.227  17.839  0.00  0.00    +0.000 A 
ENDROOT
BRANCH   1   9
ATOM      7  C   UNL     1       1.985   8.628  18.333  0.00  0.00    +0.000 C 
ATOM      8  O   UNL     1       2.161   8.826  17.130  0.00  0.00    +0.000 OA
ATOM      9  N   UNL     1       2.180   7.419  18.983  0.00  0.00    +0.000 N 
ATOM     10  H   UNL     1       1.854   7.361  19.940  0.00  0.00    +0.000 HD
BRANCH   7  13
ATOM     11  C   UNL     1       0.463  10.555  21.096  0.00  0.00    +0.000 A 
ATOM     12  C   UNL     1       0.966   9.499  20.381  0.00  0.00    +0.000 A 
ATOM     13  C   UNL     1       1.492   9.783  19.135  0.00  0.00    +0.000 A 
ATOM     14  N   UNL     1       1.555  11.027  18.605  0.00  0.00    +0.000 NA
ATOM     15  C   UNL     1       1.046  11.999  19.387  0.00  0.00    +0.000 A 
ATOM     16  C   UNL     1       1.055  13.409  18.879  0.00  0.00    +0.000 C 
ATOM     17  N   UNL     1       0.503  11.814  20.612  0.00  0.00    +0.000 NA
BRANCH  11  18
ATOM     18  C   UNL     1      -0.149  10.318  22.458  0.00  0.00    +0.000 C 
BRANCH  18  20
ATOM     19  C   UNL     1      -1.256  12.508  23.036  0.00  0.00    +0.000 C 
ATOM     20  C   UNL     1      -1.334  11.205  22.729  0.00  0.00    +0.000 C 
ENDBRANCH  18  20
ENDBRANCH  11  18
ENDBRANCH   7  13
ENDBRANCH   1   9
BRANCH   5  21
ATOM     21  C   UNL     1       5.928   5.061  16.694  0.00  0.00    +0.000 C 
ATOM     22  C   UNL     1       6.974   4.758  17.780  0.00  0.00    +0.000 C 
BRANCH  21  23
ATOM     23  C   UNL     1       6.088   4.068  15.519  0.00  0.00    +0.000 C 
BRANCH  23  24
ATOM     24  C   UNL     1       6.889   4.632  14.392  0.00  0.00    +0.000 A 
ATOM     25  N   UNL     1       7.853   5.525  14.501  0.00  0.00    +0.000 NA
ATOM     26  N   UNL     1       8.361   5.768  13.248  0.00  0.00    +0.000 NA
ATOM     27  C   UNL     1       7.702   5.015  12.401  0.00  0.00    +0.000 A 
ATOM     28  N   UNL     1       6.769   4.285  13.070  0.00  0.00    +0.000 N 
ATOM     29  C   UNL     1       5.870   3.331  12.478  0.00  0.00    +0.000 C 
ENDBRANCH  23  24
ENDBRANCH  21  23
ENDBRANCH   5  21
TORSDOF 7
ENDMDL
MODEL 3
REMARK VINA RESULT:      -8.2      0.983      1.057
REMARK  Name = 
REMARK  10 active torsions:
REMARK  status: ('A' for Active; 'I' for Inactive)
REMARK    1  A    between atoms: C_2  and  C_3
REMARK    2  A    between atoms: C_3  and  C_4
REMARK    3  A    between atoms: C_6  and  C_7
REMARK    4  A    between atoms: N_9  and  C_10
REMARK    5  A    between atoms: C_14  and  C_15
REMARK    6  A    between atoms: C_15  and  C_16
REMARK    7  A    between atoms: C_15  and  C_17
REMARK    8  A    between atoms: C_17  and  C_18
REMARK    9  A    between atoms: N_22  and  C_23
REMARK   10  A    between atoms: C_26  and  C_27
REMARK                            x       y       z     vdW  Elec       q    Type
REMARK                         _______ _______ _______ _____ _____    ______ ____
ROOT
ATOM      1  C   UNL     1       2.968   5.840  18.197  0.00  0.00    +0.000 A 
ATOM      2  C   UNL     1       2.321   4.601  18.256  0.00  0.00    +0.000 A 
ATOM      3  C   UNL     1       2.938   3.435  17.809  0.00  0.00    +0.000 A 
ATOM      4  C   UNL     1       4.213   3.493  17.262  0.00  0.00    +0.000 A 
ATOM      5  C   UNL     1       4.873   4.724  17.134  0.00  0.00    +0.000 A 
ATOM      6  C   UNL     1       4.235   5.897  17.601  0.00  0.00    +0.000 A 
ENDROOT
BRANCH   1   9
ATOM      7  C   UNL     1       1.806   7.127  19.971  0.00  0.00    +0.000 C 
ATOM      8  O   UNL     1       1.771   6.228  20.812  0.00  0.00    +0.000 OA
ATOM      9  N   UNL     1       2.382   7.027  18.713  0.00  0.00    +0.000 N 
ATOM     10  H   UNL     1       2.471   7.886  18.186  0.00  0.00    +0.000 HD
BRANCH   7  13
ATOM     11  C   UNL     1       0.751  10.666  19.808  0.00  0.00    +0.000 A 
ATOM     12  C   UNL     1       1.257   9.450  19.428  0.00  0.00    +0.000 A 
ATOM     13  C   UNL     1       1.202   8.433  20.362  0.00  0.00    +0.000 A 
ATOM     14  N   UNL     1       0.668   8.566  21.598  0.00  0.00    +0.000 NA
ATOM     15  C   UNL     1       0.187   9.794  21.874  0.00  0.00    +0.000 A 
ATOM     16  C   UNL     1      -0.410  10.045  23.226  0.00  0.00    +0.000 C 
ATOM     17  N   UNL     1       0.206  10.851  21.029  0.00  0.00    +0.000 NA
BRANCH  11  18
ATOM     18  C   UNL     1       0.796  11.833  18.848  0.00  0.00    +0.000 C 
BRANCH  18  20
ATOM     19  C   UNL     1       2.617  13.511  19.324  0.00  0.00    +0.000 C 
ATOM     20  C   UNL     1       1.354  13.083  19.472  0.00  0.00    +0.000 C 
ENDBRANCH  18  20
ENDBRANCH  11  18
ENDBRANCH   7  13
ENDBRANCH   1   9
BRANCH   5  21
ATOM     21  C   UNL     1       6.244   4.809  16.473  0.00  0.00    +0.000 C 
ATOM     22  C   UNL     1       7.373   4.541  17.481  0.00  0.00    +0.000 C 
BRANCH  21  23
ATOM     23  C   UNL     1       6.371   3.844  15.272  0.00  0.00    +0.000 C 
BRANCH  23  24
ATOM     24  C   UNL     1       6.956   4.500  14.064  0.00  0.00    +0.000 A 
ATOM     25  N   UNL     1       7.827   5.490  14.069  0.00  0.00    +0.000 NA
ATOM     26  N   UNL     1       8.141   5.796  12.767  0.00  0.00    +0.000 NA
ATOM     27  C   UNL     1       7.462   4.983  11.994  0.00  0.00    +0.000 A 
ATOM     28  N   UNL     1       6.705   4.152  12.761  0.00  0.00    +0.000 N 
ATOM     29  C   UNL     1       5.844   3.111  12.267  0.00  0.00    +0.000 C 
ENDBRANCH  23  24
ENDBRANCH  21  23
ENDBRANCH   5  21
TORSDOF 7
ENDMDL
MODEL 4
REMARK VINA RESULT:      -8.2      2.066      3.070
REMARK  Name = 
REMARK  10 active torsions:
REMARK  status: ('A' for Active; 'I' for Inactive)
REMARK    1  A    between atoms: C_2  and  C_3
REMARK    2  A    between atoms: C_3  and  C_4
REMARK    3  A    between atoms: C_6  and  C_7
REMARK    4  A    between atoms: N_9  and  C_10
REMARK    5  A    between atoms: C_14  and  C_15
REMARK    6  A    between atoms: C_15  and  C_16
REMARK    7  A    between atoms: C_15  and  C_17
REMARK    8  A    between atoms: C_17  and  C_18
REMARK    9  A    between atoms: N_22  and  C_23
REMARK   10  A    between atoms: C_26  and  C_27
REMARK                            x       y       z     vdW  Elec       q    Type
REMARK                         _______ _______ _______ _____ _____    ______ ____
ROOT
ATOM      1  C   UNL     1       2.706   5.465  17.832  0.00  0.00    +0.000 A 
ATOM      2  C   UNL     1       2.000   4.258  17.857  0.00  0.00    +0.000 A 
ATOM      3  C   UNL     1       2.552   3.081  17.357  0.00  0.00    +0.000 A 
ATOM      4  C   UNL     1       3.819   3.097  16.790  0.00  0.00    +0.000 A 
ATOM      5  C   UNL     1       4.536   4.299  16.695  0.00  0.00    +0.000 A 
ATOM      6  C   UNL     1       3.964   5.483  17.216  0.00  0.00    +0.000 A 
ENDROOT
BRANCH   1   9
ATOM      7  C   UNL     1       1.992   6.851  19.761  0.00  0.00    +0.000 C 
ATOM      8  O   UNL     1       2.284   6.044  20.644  0.00  0.00    +0.000 OA
ATOM      9  N   UNL     1       2.187   6.658  18.402  0.00  0.00    +0.000 N 
ATOM     10  H   UNL     1       2.040   7.462  17.804  0.00  0.00    +0.000 HD
BRANCH   7  13
ATOM     11  C   UNL     1       0.918  10.388  19.715  0.00  0.00    +0.000 A 
ATOM     12  C   UNL     1       1.404   9.180  19.287  0.00  0.00    +0.000 A 
ATOM     13  C   UNL     1       1.409   8.149  20.207  0.00  0.00    +0.000 A 
ATOM     14  N   UNL     1       0.950   8.262  21.476  0.00  0.00    +0.000 NA
ATOM     15  C   UNL     1       0.483   9.484  21.799  0.00  0.00    +0.000 A 
ATOM     16  C   UNL     1      -0.032   9.713  23.187  0.00  0.00    +0.000 C 
ATOM     17  N   UNL     1       0.448  10.553  20.970  0.00  0.00    +0.000 NA
BRANCH  11  18
ATOM     18  C   UNL     1       0.901  11.569  18.772  0.00  0.00    +0.000 C 
BRANCH  18  20
ATOM     19  C   UNL     1       2.736  13.212  18.232  0.00  0.00    +0.000 C 
ATOM     20  C   UNL     1       2.274  11.954  18.291  0.00  0.00    +0.000 C 
ENDBRANCH  18  20
ENDBRANCH  11  18
ENDBRANCH   7  13
ENDBRANCH   1   9
BRANCH   5  21
ATOM     21  C   UNL     1       5.899   4.343  16.012  0.00  0.00    +0.000 C 
ATOM     22  C   UNL     1       5.779   4.091  14.499  0.00  0.00    +0.000 C 
BRANCH  21  23
ATOM     23  C   UNL     1       6.633   5.680  16.265  0.00  0.00    +0.000 C 
BRANCH  23  24
ATOM     24  C   UNL     1       7.264   5.744  17.617  0.00  0.00    +0.000 A 
ATOM     25  N   UNL     1       7.461   4.722  18.427  0.00  0.00    +0.000 NA
ATOM     26  N   UNL     1       8.089   5.181  19.559  0.00  0.00    +0.000 NA
ATOM     27  C   UNL     1       8.269   6.472  19.416  0.00  0.00    +0.000 A 
ATOM     28  N   UNL     1       7.769   6.871  18.215  0.00  0.00    +0.000 N 
ATOM     29  C   UNL     1       7.803   8.213  17.699  0.00  0.00    +0.000 C 
ENDBRANCH  23  24
ENDBRANCH  21  23
ENDBRANCH   5  21
TORSDOF 7
ENDMDL
MODEL 5
REMARK VINA RESULT:      -8.1      3.271      9.290
REMARK  Name = 
REMARK  10 active torsions:
REMARK  status: ('A' for Active; 'I' for Inactive)
REMARK    1  A    between atoms: C_2  and  C_3
REMARK    2  A    between atoms: C_3  and  C_4
REMARK    3  A    between atoms: C_6  and  C_7
REMARK    4  A    between atoms: N_9  and  C_10
REMARK    5  A    between atoms: C_14  and  C_15
REMARK    6  A    between atoms: C_15  and  C_16
REMARK    7  A    between atoms: C_15  and  C_17
REMARK    8  A    between atoms: C_17  and  C_18
REMARK    9  A    between atoms: N_22  and  C_23
REMARK   10  A    between atoms: C_26  and  C_27
REMARK                            x       y       z     vdW  Elec       q    Type
REMARK                         _______ _______ _______ _____ _____    ______ ____
ROOT
ATOM      1  C   UNL     1       1.311   8.565  20.346  0.00  0.00    +0.000 A 
ATOM      2  C   UNL     1       1.349   8.561  21.744  0.00  0.00    +0.000 A 
ATOM      3  C   UNL     1       0.567   9.435  22.497  0.00  0.00    +0.000 A 
ATOM      4  C   UNL     1      -0.250  10.358  21.858  0.00  0.00    +0.000 A 
ATOM      5  C   UNL     1      -0.273  10.432  20.457  0.00  0.00    +0.000 A 
ATOM      6  C   UNL     1       0.521   9.531  19.709  0.00  0.00    +0.000 A 
ENDROOT
BRANCH   1   9
ATOM      7  C   UNL     1       2.150   6.283  19.857  0.00  0.00    +0.000 C 
ATOM      8  O   UNL     1       1.586   5.711  20.792  0.00  0.00    +0.000 OA
ATOM      9  N   UNL     1       2.047   7.634  19.565  0.00  0.00    +0.000 N 
ATOM     10  H   UNL     1       2.441   7.939  18.684  0.00  0.00    +0.000 HD
BRANCH   7  13
ATOM     11  C   UNL     1       4.532   5.312  17.202  0.00  0.00    +0.000 A 
ATOM     12  C   UNL     1       3.806   6.092  18.064  0.00  0.00    +0.000 A 
ATOM     13  C   UNL     1       2.984   5.434  18.960  0.00  0.00    +0.000 A 
ATOM     14  N   UNL     1       2.878   4.087  19.042  0.00  0.00    +0.000 NA
ATOM     15  C   UNL     1       3.638   3.407  18.161  0.00  0.00    +0.000 A 
ATOM     16  C   UNL     1       3.575   1.910  18.164  0.00  0.00    +0.000 C 
ATOM     17  N   UNL     1       4.462   3.965  17.244  0.00  0.00    +0.000 NA
BRANCH  11  18
ATOM     18  C   UNL     1       5.436   5.962  16.179  0.00  0.00    +0.000 C 
BRANCH  18  20
ATOM     19  C   UNL     1       6.847   4.760  14.470  0.00  0.00    +0.000 C 
ATOM     20  C   UNL     1       5.647   5.107  14.959  0.00  0.00    +0.000 C 
ENDBRANCH  18  20
ENDBRANCH  11  18
ENDBRANCH   7  13
ENDBRANCH   1   9
BRANCH   5  21
ATOM     21  C   UNL     1      -1.112  11.486  19.745  0.00  0.00    +0.000 C 
ATOM     22  C   UNL     1      -0.389  12.843  19.696  0.00  0.00    +0.000 C 
BRANCH  21  23
ATOM     23  C   UNL     1      -1.505  11.049  18.315  0.00  0.00    +0.000 C 
BRANCH  23  24
ATOM     24  C   UNL     1      -2.925  11.368  17.983  0.00  0.00    +0.000 A 
ATOM     25  N   UNL     1      -3.828  11.837  18.824  0.00  0.00    +0.000 NA
ATOM     26  N   UNL     1      -5.002  12.026  18.136  0.00  0.00    +0.000 NA
ATOM     27  C   UNL     1      -4.792  11.676  16.890  0.00  0.00    +0.000 A 
ATOM     28  N   UNL     1      -3.505  11.257  16.745  0.00  0.00    +0.000 N 
ATOM     29  C   UNL     1      -2.903  10.815  15.517  0.00  0.00    +0.000 C 
ENDBRANCH  23  24
ENDBRANCH  21  23
ENDBRANCH   5  21
TORSDOF 7
ENDMDL
MODEL 6
REMARK VINA RESULT:      -7.9      3.251      9.107
REMARK  Name = 
REMARK  10 active torsions:
REMARK  status: ('A' for Active; 'I' for Inactive)
REMARK    1  A    between atoms: C_2  and  C_3
REMARK    2  A    between atoms: C_3  and  C_4
REMARK    3  A    between atoms: C_6  and  C_7
REMARK    4  A    between atoms: N_9  and  C_10
REMARK    5  A    between atoms: C_14  and  C_15
REMARK    6  A    between atoms: C_15  and  C_16
REMARK    7  A    between atoms: C_15  and  C_17
REMARK    8  A    between atoms: C_17  and  C_18
REMARK    9  A    between atoms: N_22  and  C_23
REMARK   10  A    between atoms: C_26  and  C_27
REMARK                            x       y       z     vdW  Elec       q    Type
REMARK                         _______ _______ _______ _____ _____    ______ ____
ROOT
ATOM      1  C   UNL     1       1.219   8.768  20.519  0.00  0.00    +0.000 A 
ATOM      2  C   UNL     1       1.110   8.669  21.910  0.00  0.00    +0.000 A 
ATOM      3  C   UNL     1       0.258   9.498  22.636  0.00  0.00    +0.000 A 
ATOM      4  C   UNL     1      -0.483  10.472  21.980  0.00  0.00    +0.000 A 
ATOM      5  C   UNL     1      -0.359  10.641  20.593  0.00  0.00    +0.000 A 
ATOM      6  C   UNL     1       0.504   9.784  19.871  0.00  0.00    +0.000 A 
ENDROOT
BRANCH   1   9
ATOM      7  C   UNL     1       2.017   6.504  19.895  0.00  0.00    +0.000 C 
ATOM      8  O   UNL     1       1.279   5.870  20.651  0.00  0.00    +0.000 OA
ATOM      9  N   UNL     1       2.028   7.884  19.757  0.00  0.00    +0.000 N 
ATOM     10  H   UNL     1       2.578   8.258  18.994  0.00  0.00    +0.000 HD
BRANCH   7  13
ATOM     11  C   UNL     1       4.670   5.686  17.455  0.00  0.00    +0.000 A 
ATOM     12  C   UNL     1       3.853   6.416  18.279  0.00  0.00    +0.000 A 
ATOM     13  C   UNL     1       2.947   5.708  19.045  0.00  0.00    +0.000 A 
ATOM     14  N   UNL     1       2.841   4.358  19.040  0.00  0.00    +0.000 NA
ATOM     15  C   UNL     1       3.694   3.730  18.208  0.00  0.00    +0.000 A 
ATOM     16  C   UNL     1       3.642   2.234  18.121  0.00  0.00    +0.000 C 
ATOM     17  N   UNL     1       4.606   4.338  17.415  0.00  0.00    +0.000 NA
BRANCH  11  18
ATOM     18  C   UNL     1       5.672   6.392  16.571  0.00  0.00    +0.000 C 
BRANCH  18  20
ATOM     19  C   UNL     1       7.667   7.597  17.534  0.00  0.00    +0.000 C 
ATOM     20  C   UNL     1       7.045   6.462  17.181  0.00  0.00    +0.000 C 
ENDBRANCH  18  20
ENDBRANCH  11  18
ENDBRANCH   7  13
ENDBRANCH   1   9
BRANCH   5  21
ATOM     21  C   UNL     1      -1.115  11.751  19.871  0.00  0.00    +0.000 C 
ATOM     22  C   UNL     1      -0.373  13.094  19.972  0.00  0.00    +0.000 C 
BRANCH  21  23
ATOM     23  C   UNL     1      -1.378  11.406  18.387  0.00  0.00    +0.000 C 
BRANCH  23  24
ATOM     24  C   UNL     1      -2.830  11.434  18.037  0.00  0.00    +0.000 A 
ATOM     25  N   UNL     1      -3.802  11.874  18.811  0.00  0.00    +0.000 NA
ATOM     26  N   UNL     1      -4.987  11.760  18.125  0.00  0.00    +0.000 NA
ATOM     27  C   UNL     1      -4.714  11.261  16.944  0.00  0.00    +0.000 A 
ATOM     28  N   UNL     1      -3.374  11.039  16.842  0.00  0.00    +0.000 N 
ATOM     29  C   UNL     1      -2.699  10.517  15.685  0.00  0.00    +0.000 C 
ENDBRANCH  23  24
ENDBRANCH  21  23
ENDBRANCH   5  21
TORSDOF 7
ENDMDL
MODEL 7
REMARK VINA RESULT:      -7.9      2.192      2.848
REMARK  Name = 
REMARK  10 active torsions:
REMARK  status: ('A' for Active; 'I' for Inactive)
REMARK    1  A    between atoms: C_2  and  C_3
REMARK    2  A    between atoms: C_3  and  C_4
REMARK    3  A    between atoms: C_6  and  C_7
REMARK    4  A    between atoms: N_9  and  C_10
REMARK    5  A    between atoms: C_14  and  C_15
REMARK    6  A    between atoms: C_15  and  C_16
REMARK    7  A    between atoms: C_15  and  C_17
REMARK    8  A    between atoms: C_17  and  C_18
REMARK    9  A    between atoms: N_22  and  C_23
REMARK   10  A    between atoms: C_26  and  C_27
REMARK                            x       y       z     vdW  Elec       q    Type
REMARK                         _______ _______ _______ _____ _____    ______ ____
ROOT
ATOM      1  C   UNL     1       3.188   6.835  18.336  0.00  0.00    +0.000 A 
ATOM      2  C   UNL     1       2.781   5.816  19.204  0.00  0.00    +0.000 A 
ATOM      3  C   UNL     1       3.533   4.655  19.370  0.00  0.00    +0.000 A 
ATOM      4  C   UNL     1       4.701   4.478  18.640  0.00  0.00    +0.000 A 
ATOM      5  C   UNL     1       5.113   5.450  17.717  0.00  0.00    +0.000 A 
ATOM      6  C   UNL     1       4.341   6.627  17.568  0.00  0.00    +0.000 A 
ENDROOT
BRANCH   1   9
ATOM      7  C   UNL     1       1.740   8.638  19.233  0.00  0.00    +0.000 C 
ATOM      8  O   UNL     1       1.659   8.208  20.384  0.00  0.00    +0.000 OA
ATOM      9  N   UNL     1       2.470   8.054  18.209  0.00  0.00    +0.000 N 
ATOM     10  H   UNL     1       2.570   8.593  17.358  0.00  0.00    +0.000 HD
BRANCH   7  13
ATOM     11  C   UNL     1      -0.998  10.963  18.361  0.00  0.00    +0.000 A 
ATOM     12  C   UNL     1      -0.341   9.804  18.685  0.00  0.00    +0.000 A 
ATOM     13  C   UNL     1       1.014   9.906  18.939  0.00  0.00    +0.000 A 
ATOM     14  N   UNL     1       1.706  11.068  18.907  0.00  0.00    +0.000 NA
ATOM     15  C   UNL     1       0.971  12.153  18.590  0.00  0.00    +0.000 A 
ATOM     16  C   UNL     1       1.653  13.485  18.512  0.00  0.00    +0.000 C 
ATOM     17  N   UNL     1      -0.354  12.148  18.317  0.00  0.00    +0.000 NA
BRANCH  11  18
ATOM     18  C   UNL     1      -2.477  10.927  18.049  0.00  0.00    +0.000 C 
BRANCH  18  20
ATOM     19  C   UNL     1      -2.851  10.092  15.700  0.00  0.00    +0.000 C 
ATOM     20  C   UNL     1      -2.770  11.098  16.583  0.00  0.00    +0.000 C 
ENDBRANCH  18  20
ENDBRANCH  11  18
ENDBRANCH   7  13
ENDBRANCH   1   9
BRANCH   5  21
ATOM     21  C   UNL     1       6.355   5.236  16.859  0.00  0.00    +0.000 C 
ATOM     22  C   UNL     1       7.506   4.627  17.677  0.00  0.00    +0.000 C 
BRANCH  21  23
ATOM     23  C   UNL     1       6.063   4.353  15.624  0.00  0.00    +0.000 C 
BRANCH  23  24
ATOM     24  C   UNL     1       6.863   4.751  14.427  0.00  0.00    +0.000 A 
ATOM     25  N   UNL     1       7.887   5.582  14.425  0.00  0.00    +0.000 NA
ATOM     26  N   UNL     1       8.370   5.670  13.142  0.00  0.00    +0.000 NA
ATOM     27  C   UNL     1       7.636   4.887  12.389  0.00  0.00    +0.000 A 
ATOM     28  N   UNL     1       6.679   4.290  13.149  0.00  0.00    +0.000 N 
ATOM     29  C   UNL     1       5.701   3.348  12.675  0.00  0.00    +0.000 C 
ENDBRANCH  23  24
ENDBRANCH  21  23
ENDBRANCH   5  21
TORSDOF 7
ENDMDL
MODEL 8
REMARK VINA RESULT:      -7.9      2.260      9.830
REMARK  Name = 
REMARK  10 active torsions:
REMARK  status: ('A' for Active; 'I' for Inactive)
REMARK    1  A    between atoms: C_2  and  C_3
REMARK    2  A    between atoms: C_3  and  C_4
REMARK    3  A    between atoms: C_6  and  C_7
REMARK    4  A    between atoms: N_9  and  C_10
REMARK    5  A    between atoms: C_14  and  C_15
REMARK    6  A    between atoms: C_15  and  C_16
REMARK    7  A    between atoms: C_15  and  C_17
REMARK    8  A    between atoms: C_17  and  C_18
REMARK    9  A    between atoms: N_22  and  C_23
REMARK   10  A    between atoms: C_26  and  C_27
REMARK                            x       y       z     vdW  Elec       q    Type
REMARK                         _______ _______ _______ _____ _____    ______ ____
ROOT
ATOM      1  C   UNL     1       3.817   4.778  17.757  0.00  0.00    +0.000 A 
ATOM      2  C   UNL     1       3.663   3.721  18.660  0.00  0.00    +0.000 A 
ATOM      3  C   UNL     1       2.988   3.886  19.867  0.00  0.00    +0.000 A 
ATOM      4  C   UNL     1       2.475   5.131  20.208  0.00  0.00    +0.000 A 
ATOM      5  C   UNL     1       2.657   6.229  19.356  0.00  0.00    +0.000 A 
ATOM      6  C   UNL     1       3.339   6.042  18.130  0.00  0.00    +0.000 A 
ENDROOT
BRANCH   1   9
ATOM      7  C   UNL     1       5.728   5.031  16.196  0.00  0.00    +0.000 C 
ATOM      8  O   UNL     1       6.507   5.554  16.994  0.00  0.00    +0.000 OA
ATOM      9  N   UNL     1       4.440   4.610  16.492  0.00  0.00    +0.000 N 
ATOM     10  H   UNL     1       3.968   4.063  15.783  0.00  0.00    +0.000 HD
BRANCH   7  13
ATOM     11  C   UNL     1       6.057   3.650  12.783  0.00  0.00    +0.000 A 
ATOM     12  C   UNL     1       5.557   3.892  14.037  0.00  0.00    +0.000 A 
ATOM     13  C   UNL     1       6.236   4.812  14.812  0.00  0.00    +0.000 A 
ATOM     14  N   UNL     1       7.333   5.488  14.399  0.00  0.00    +0.000 NA
ATOM     15  C   UNL     1       7.741   5.191  13.150  0.00  0.00    +0.000 A 
ATOM     16  C   UNL     1       8.959   5.876  12.609  0.00  0.00    +0.000 C 
ATOM     17  N   UNL     1       7.147   4.299  12.324  0.00  0.00    +0.000 NA
BRANCH  11  18
ATOM     18  C   UNL     1       5.380   2.639  11.885  0.00  0.00    +0.000 C 
BRANCH  18  20
ATOM     19  C   UNL     1       6.235   0.361  11.226  0.00  0.00    +0.000 C 
ATOM     20  C   UNL     1       6.351   1.698  11.227  0.00  0.00    +0.000 C 
ENDBRANCH  18  20
ENDBRANCH  11  18
ENDBRANCH   7  13
ENDBRANCH   1   9
BRANCH   5  21
ATOM     21  C   UNL     1       2.161   7.615  19.751  0.00  0.00    +0.000 C 
ATOM     22  C   UNL     1       2.063   8.547  18.532  0.00  0.00    +0.000 C 
BRANCH  21  23
ATOM     23  C   UNL     1       0.798   7.559  20.480  0.00  0.00    +0.000 C 
BRANCH  23  24
ATOM     24  C   UNL     1       0.532   8.778  21.300  0.00  0.00    +0.000 A 
ATOM     25  N   UNL     1       0.985   9.004  22.518  0.00  0.00    +0.000 NA
ATOM     26  N   UNL     1       0.545  10.241  22.921  0.00  0.00    +0.000 NA
ATOM     27  C   UNL     1      -0.161  10.749  21.939  0.00  0.00    +0.000 A 
ATOM     28  N   UNL     1      -0.198   9.869  20.901  0.00  0.00    +0.000 N 
ATOM     29  C   UNL     1      -0.861  10.086  19.644  0.00  0.00    +0.000 C 
ENDBRANCH  23  24
ENDBRANCH  21  23
ENDBRANCH   5  21
TORSDOF 7
ENDMDL
MODEL 9
REMARK VINA RESULT:      -7.9      1.633      1.935
REMARK  Name = 
REMARK  10 active torsions:
REMARK  status: ('A' for Active; 'I' for Inactive)
REMARK    1  A    between atoms: C_2  and  C_3
REMARK    2  A    between atoms: C_3  and  C_4
REMARK    3  A    between atoms: C_6  and  C_7
REMARK    4  A    between atoms: N_9  and  C_10
REMARK    5  A    between atoms: C_14  and  C_15
REMARK    6  A    between atoms: C_15  and  C_16
REMARK    7  A    between atoms: C_15  and  C_17
REMARK    8  A    between atoms: C_17  and  C_18
REMARK    9  A    between atoms: N_22  and  C_23
REMARK   10  A    between atoms: C_26  and  C_27
REMARK                            x       y       z     vdW  Elec       q    Type
REMARK                         _______ _______ _______ _____ _____    ______ ____
ROOT
ATOM      1  C   UNL     1       3.077   5.761  19.141  0.00  0.00    +0.000 A 
ATOM      2  C   UNL     1       3.540   4.688  19.910  0.00  0.00    +0.000 A 
ATOM      3  C   UNL     1       4.469   3.779  19.410  0.00  0.00    +0.000 A 
ATOM      4  C   UNL     1       4.933   3.910  18.107  0.00  0.00    +0.000 A 
ATOM      5  C   UNL     1       4.451   4.939  17.285  0.00  0.00    +0.000 A 
ATOM      6  C   UNL     1       3.514   5.858  17.813  0.00  0.00    +0.000 A 
ENDROOT
BRANCH   1   9
ATOM      7  C   UNL     1       2.076   8.029  19.170  0.00  0.00    +0.000 C 
ATOM      8  O   UNL     1       2.693   8.480  18.204  0.00  0.00    +0.000 OA
ATOM      9  N   UNL     1       2.185   6.736  19.659  0.00  0.00    +0.000 N 
ATOM     10  H   UNL     1       1.511   6.459  20.361  0.00  0.00    +0.000 HD
BRANCH   7  13
ATOM     11  C   UNL     1      -0.358  10.768  19.660  0.00  0.00    +0.000 A 
ATOM     12  C   UNL     1       0.485   9.885  19.036  0.00  0.00    +0.000 A 
ATOM     13  C   UNL     1       1.114   8.952  19.838  0.00  0.00    +0.000 A 
ATOM     14  N   UNL     1       0.929   8.853  21.175  0.00  0.00    +0.000 NA
ATOM     15  C   UNL     1       0.075   9.757  21.694  0.00  0.00    +0.000 A 
ATOM     16  C   UNL     1      -0.181   9.739  23.170  0.00  0.00    +0.000 C 
ATOM     17  N   UNL     1      -0.577  10.711  20.991  0.00  0.00    +0.000 NA
BRANCH  11  18
ATOM     18  C   UNL     1      -1.065  11.832  18.851  0.00  0.00    +0.000 C 
BRANCH  18  20
ATOM     19  C   UNL     1      -3.222  11.446  17.604  0.00  0.00    +0.000 C 
ATOM     20  C   UNL     1      -1.900  11.261  17.737  0.00  0.00    +0.000 C 
ENDBRANCH  18  20
ENDBRANCH  11  18
ENDBRANCH   7  13
ENDBRANCH   1   9
BRANCH   5  21
ATOM     21  C   UNL     1       4.900   5.052  15.833  0.00  0.00    +0.000 C 
ATOM     22  C   UNL     1       5.159   6.516  15.436  0.00  0.00    +0.000 C 
BRANCH  21  23
ATOM     23  C   UNL     1       6.158   4.200  15.544  0.00  0.00    +0.000 C 
BRANCH  23  24
ATOM     24  C   UNL     1       6.920   4.681  14.354  0.00  0.00    +0.000 A 
ATOM     25  N   UNL     1       7.924   5.537  14.373  0.00  0.00    +0.000 NA
ATOM     26  N   UNL     1       8.375   5.704  13.087  0.00  0.00    +0.000 NA
ATOM     27  C   UNL     1       7.644   4.942  12.309  0.00  0.00    +0.000 A 
ATOM     28  N   UNL     1       6.719   4.281  13.057  0.00  0.00    +0.000 N 
ATOM     29  C   UNL     1       5.754   3.341  12.554  0.00  0.00    +0.000 C 
ENDBRANCH  23  24
ENDBRANCH  21  23
ENDBRANCH   5  21
TORSDOF 7
ENDMDL
