MODEL 1
REMARK VINA RESULT:      -9.5      0.000      0.000
REMARK  Name = 
REMARK  5 active torsions:
REMARK  status: ('A' for Active; 'I' for Inactive)
REMARK    1  A    between atoms: C_1  and  N_2
REMARK    2  A    between atoms: C_8  and  C_9
REMARK    3  A    between atoms: N_11  and  C_12
REMARK    4  A    between atoms: C_16  and  C_17
REMARK    5  A    between atoms: C_17  and  N_18
REMARK                            x       y       z     vdW  Elec       q    Type
REMARK                         _______ _______ _______ _____ _____    ______ ____
ROOT
ATOM      1  C   UNL     1       2.106   7.845  18.934  0.00  0.00    +0.000 C 
ATOM      2  O   UNL     1       2.520   8.306  17.874  0.00  0.00    +0.000 OA
ATOM      3  N   UNL     1       2.207   6.526  19.356  0.00  0.00    +0.000 N 
ATOM      4  H   UNL     1       1.689   6.244  20.178  0.00  0.00    +0.000 HD
ENDROOT
BRANCH   1  12
ATOM      5  C   UNL     1      -2.135  13.371  21.542  0.00  0.00    +0.000 C 
ATOM      6  N   UNL     1      -1.314  12.212  21.295  0.00  0.00    +0.000 N 
ATOM      7  C   UNL     1      -0.892  11.346  22.266  0.00  0.00    +0.000 C 
ATOM      8  O   UNL     1      -1.111  11.356  23.461  0.00  0.00    +0.000 OA
ATOM      9  C   UNL     1      -0.065  10.348  21.589  0.00  0.00    +0.000 A 
ATOM     10  C   UNL     1       0.595   9.255  22.102  0.00  0.00    +0.000 A 
ATOM     11  C   UNL     1       1.316   8.474  21.195  0.00  0.00    +0.000 A 
ATOM     12  C   UNL     1       1.368   8.795  19.810  0.00  0.00    +0.000 A 
ATOM     13  C   UNL     1       0.679   9.909  19.315  0.00  0.00    +0.000 A 
ATOM     14  C   UNL     1      -0.027  10.665  20.239  0.00  0.00    +0.000 A 
ATOM     15  C   UNL     1      -0.837  11.869  20.058  0.00  0.00    +0.000 C 
ATOM     16  O   UNL     1      -1.003  12.420  18.987  0.00  0.00    +0.000 OA
ENDBRANCH   1  12
BRANCH   3  17
ATOM     17  C   UNL     1       2.833   5.484  18.618  0.00  0.00    +0.000 A 
ATOM     18  C   UNL     1       2.109   4.545  17.878  0.00  0.00    +0.000 A 
ATOM     19  C   UNL     1       2.748   3.493  17.223  0.00  0.00    +0.000 A 
ATOM     20  C   UNL     1       4.132   3.387  17.264  0.00  0.00    +0.000 A 
ATOM     21  C   UNL     1       4.894   4.354  17.933  0.00  0.00    +0.000 A 
ATOM     22  C   UNL     1       4.234   5.390  18.628  0.00  0.00    +0.000 A 
BRANCH  21  23
ATOM     23  C   UNL     1       6.403   4.269  17.882  0.00  0.00    +0.000 C 
BRANCH  23  24
ATOM     24  N   UNL     1       7.046   5.549  18.048  0.00  0.00    +0.000 N 
ATOM     25  C   UNL     1       7.112   6.516  17.087  0.00  0.00    +0.000 C 
ATOM     26  O   UNL     1       6.632   6.463  15.963  0.00  0.00    +0.000 OA
ATOM     27  C   UNL     1       7.905   7.690  17.640  0.00  0.00    +0.000 C 
ATOM     28  N   UNL     1       8.236   7.196  18.945  0.00  0.00    +0.000 N 
ATOM     29  C   UNL     1       7.736   5.931  19.158  0.00  0.00    +0.000 C 
ATOM     30  O   UNL     1       7.926   5.291  20.179  0.00  0.00    +0.000 OA
ATOM     31  H   UNL     1       8.782   7.673  19.652  0.00  0.00    +0.000 HD
ENDBRANCH  23  24
ENDBRANCH  21  23
ENDBRANCH   3  17
TORSDOF 4
ENDMDL
MODEL 2
REMARK VINA RESULT:      -9.4      0.475      1.405
REMARK  Name = 
REMARK  5 active torsions:
REMARK  status: ('A' for Active; 'I' for Inactive)
REMARK    1  A    between atoms: C_1  and  N_2
REMARK    2  A    between atoms: C_8  and  C_9
REMARK    3  A    between atoms: N_11  and  C_12
REMARK    4  A    between atoms: C_16  and  C_17
REMARK    5  A    between atoms: C_17  and  N_18
REMARK                            x       y       z     vdW  Elec       q    Type
REMARK                         _______ _______ _______ _____ _____    ______ ____
ROOT
ATOM      1  C   UNL     1       2.143   7.741  18.935  0.00  0.00    +0.000 C 
ATOM      2  O   UNL     1       2.643   8.205  17.915  0.00  0.00    +0.000 OA
ATOM      3  N   UNL     1       2.140   6.408  19.321  0.00  0.00    +0.000 N 
ATOM      4  H   UNL     1       1.559   6.136  20.104  0.00  0.00    +0.000 HD
ENDROOT
BRANCH   1  12
ATOM      5  C   UNL     1      -2.010  13.367  21.471  0.00  0.00    +0.000 C 
ATOM      6  N   UNL     1      -1.210  12.190  21.239  0.00  0.00    +0.000 N 
ATOM      7  C   UNL     1      -0.815  11.322  22.219  0.00  0.00    +0.000 C 
ATOM      8  O   UNL     1      -1.044  11.343  23.412  0.00  0.00    +0.000 OA
ATOM      9  C   UNL     1      -0.002  10.304  21.555  0.00  0.00    +0.000 A 
ATOM     10  C   UNL     1       0.632   9.200  22.081  0.00  0.00    +0.000 A 
ATOM     11  C   UNL     1       1.345   8.399  21.185  0.00  0.00    +0.000 A 
ATOM     12  C   UNL     1       1.417   8.711  19.799  0.00  0.00    +0.000 A 
ATOM     13  C   UNL     1       0.755   9.835  19.291  0.00  0.00    +0.000 A 
ATOM     14  C   UNL     1       0.055  10.611  20.204  0.00  0.00    +0.000 A 
ATOM     15  C   UNL     1      -0.729  11.830  20.008  0.00  0.00    +0.000 C 
ATOM     16  O   UNL     1      -0.874  12.378  18.933  0.00  0.00    +0.000 OA
ENDBRANCH   1  12
BRANCH   3  17
ATOM     17  C   UNL     1       2.741   5.349  18.586  0.00  0.00    +0.000 A 
ATOM     18  C   UNL     1       1.995   4.421  17.853  0.00  0.00    +0.000 A 
ATOM     19  C   UNL     1       2.610   3.353  17.202  0.00  0.00    +0.000 A 
ATOM     20  C   UNL     1       3.992   3.219  17.238  0.00  0.00    +0.000 A 
ATOM     21  C   UNL     1       4.775   4.173  17.900  0.00  0.00    +0.000 A 
ATOM     22  C   UNL     1       4.140   5.226  18.592  0.00  0.00    +0.000 A 
BRANCH  21  23
ATOM     23  C   UNL     1       6.282   4.057  17.844  0.00  0.00    +0.000 C 
BRANCH  23  24
ATOM     24  N   UNL     1       6.945   5.336  17.790  0.00  0.00    +0.000 N 
ATOM     25  C   UNL     1       7.513   5.962  18.862  0.00  0.00    +0.000 C 
ATOM     26  O   UNL     1       7.568   5.542  20.010  0.00  0.00    +0.000 OA
ATOM     27  C   UNL     1       8.068   7.301  18.399  0.00  0.00    +0.000 C 
ATOM     28  N   UNL     1       7.698   7.276  17.013  0.00  0.00    +0.000 N 
ATOM     29  C   UNL     1       7.025   6.121  16.681  0.00  0.00    +0.000 C 
ATOM     30  O   UNL     1       6.575   5.896  15.570  0.00  0.00    +0.000 OA
ATOM     31  H   UNL     1       7.872   8.001  16.328  0.00  0.00    +0.000 HD
ENDBRANCH  23  24
ENDBRANCH  21  23
ENDBRANCH   3  17
TORSDOF 4
ENDMDL
MODEL 3
REMARK VINA RESULT:      -9.4      1.133      1.952
REMARK  Name = 
REMARK  5 active torsions:
REMARK  status: ('A' for Active; 'I' for Inactive)
REMARK    1  A    between atoms: C_1  and  N_2
REMARK    2  A    between atoms: C_8  and  C_9
REMARK    3  A    between atoms: N_11  and  C_12
REMARK    4  A    between atoms: C_16  and  C_17
REMARK    5  A    between atoms: C_17  and  N_18
REMARK                            x       y       z     vdW  Elec       q    Type
REMARK                         _______ _______ _______ _____ _____    ______ ____
ROOT
ATOM      1  C   UNL     1       1.969   7.852  19.164  0.00  0.00    +0.000 C 
ATOM      2  O   UNL     1       2.166   7.741  17.957  0.00  0.00    +0.000 OA
ATOM      3  N   UNL     1       2.294   6.921  20.142  0.00  0.00    +0.000 N 
ATOM      4  H   UNL     1       1.938   7.065  21.079  0.00  0.00    +0.000 HD
ENDROOT
BRANCH   1  12
ATOM      5  C   UNL     1      -1.423  13.156  23.123  0.00  0.00    +0.000 C 
ATOM      6  N   UNL     1      -0.775  12.310  22.152  0.00  0.00    +0.000 N 
ATOM      7  C   UNL     1      -0.569  12.655  20.845  0.00  0.00    +0.000 C 
ATOM      8  O   UNL     1      -0.856  13.682  20.260  0.00  0.00    +0.000 OA
ATOM      9  C   UNL     1       0.080  11.505  20.218  0.00  0.00    +0.000 A 
ATOM     10  C   UNL     1       0.508  11.332  18.921  0.00  0.00    +0.000 A 
ATOM     11  C   UNL     1       1.102  10.105  18.615  0.00  0.00    +0.000 A 
ATOM     12  C   UNL     1       1.254   9.083  19.593  0.00  0.00    +0.000 A 
ATOM     13  C   UNL     1       0.817   9.291  20.907  0.00  0.00    +0.000 A 
ATOM     14  C   UNL     1       0.231  10.518  21.181  0.00  0.00    +0.000 A 
ATOM     15  C   UNL     1      -0.323  11.047  22.428  0.00  0.00    +0.000 C 
ATOM     16  O   UNL     1      -0.358  10.426  23.472  0.00  0.00    +0.000 OA
ENDBRANCH   1  12
BRANCH   3  17
ATOM     17  C   UNL     1       2.931   5.674  19.896  0.00  0.00    +0.000 A 
ATOM     18  C   UNL     1       2.409   4.459  20.348  0.00  0.00    +0.000 A 
ATOM     19  C   UNL     1       3.094   3.260  20.152  0.00  0.00    +0.000 A 
ATOM     20  C   UNL     1       4.299   3.254  19.460  0.00  0.00    +0.000 A 
ATOM     21  C   UNL     1       4.813   4.443  18.927  0.00  0.00    +0.000 A 
ATOM     22  C   UNL     1       4.132   5.656  19.169  0.00  0.00    +0.000 A 
BRANCH  21  23
ATOM     23  C   UNL     1       6.075   4.394  18.096  0.00  0.00    +0.000 C 
BRANCH  23  24
ATOM     24  N   UNL     1       6.853   5.606  18.180  0.00  0.00    +0.000 N 
ATOM     25  C   UNL     1       6.895   6.569  17.214  0.00  0.00    +0.000 C 
ATOM     26  O   UNL     1       6.280   6.571  16.156  0.00  0.00    +0.000 OA
ATOM     27  C   UNL     1       7.857   7.659  17.663  0.00  0.00    +0.000 C 
ATOM     28  N   UNL     1       8.294   7.125  18.920  0.00  0.00    +0.000 N 
ATOM     29  C   UNL     1       7.705   5.911  19.197  0.00  0.00    +0.000 C 
ATOM     30  O   UNL     1       7.955   5.248  20.189  0.00  0.00    +0.000 OA
ATOM     31  H   UNL     1       8.964   7.542  19.554  0.00  0.00    +0.000 HD
ENDBRANCH  23  24
ENDBRANCH  21  23
ENDBRANCH   3  17
TORSDOF 4
ENDMDL
MODEL 4
REMARK VINA RESULT:      -9.2      0.990      1.028
REMARK  Name = 
REMARK  5 active torsions:
REMARK  status: ('A' for Active; 'I' for Inactive)
REMARK    1  A    between atoms: C_1  and  N_2
REMARK    2  A    between atoms: C_8  and  C_9
REMARK    3  A    between atoms: N_11  and  C_12
REMARK    4  A    between atoms: C_16  and  C_17
REMARK    5  A    between atoms: C_17  and  N_18
REMARK                            x       y       z     vdW  Elec       q    Type
REMARK                         _______ _______ _______ _____ _____    ______ ____
ROOT
ATOM      1  C   UNL     1       2.065   7.535  19.634  0.00  0.00    +0.000 C 
ATOM      2  O   UNL     1       2.368   7.650  18.450  0.00  0.00    +0.000 OA
ATOM      3  N   UNL     1       2.331   6.446  20.452  0.00  0.00    +0.000 N 
ATOM      4  H   UNL     1       1.892   6.411  21.364  0.00  0.00    +0.000 HD
ENDROOT
BRANCH   1  12
ATOM      5  C   UNL     1      -2.268  13.504  20.593  0.00  0.00    +0.000 C 
ATOM      6  N   UNL     1      -1.450  12.320  20.679  0.00  0.00    +0.000 N 
ATOM      7  C   UNL     1      -1.120  11.695  21.849  0.00  0.00    +0.000 C 
ATOM      8  O   UNL     1      -1.429  11.973  22.991  0.00  0.00    +0.000 OA
ATOM      9  C   UNL     1      -0.260  10.571  21.481  0.00  0.00    +0.000 A 
ATOM     10  C   UNL     1       0.340   9.621  22.276  0.00  0.00    +0.000 A 
ATOM     11  C   UNL     1       1.114   8.656  21.627  0.00  0.00    +0.000 A 
ATOM     12  C   UNL     1       1.279   8.658  20.214  0.00  0.00    +0.000 A 
ATOM     13  C   UNL     1       0.649   9.631  19.429  0.00  0.00    +0.000 A 
ATOM     14  C   UNL     1      -0.113  10.575  20.101  0.00  0.00    +0.000 A 
ATOM     15  C   UNL     1      -0.886  11.707  19.591  0.00  0.00    +0.000 C 
ATOM     16  O   UNL     1      -0.960  12.003  18.415  0.00  0.00    +0.000 OA
ENDBRANCH   1  12
BRANCH   3  17
ATOM     17  C   UNL     1       3.024   5.273  20.043  0.00  0.00    +0.000 A 
ATOM     18  C   UNL     1       2.628   3.990  20.429  0.00  0.00    +0.000 A 
ATOM     19  C   UNL     1       3.369   2.865  20.069  0.00  0.00    +0.000 A 
ATOM     20  C   UNL     1       4.502   3.005  19.276  0.00  0.00    +0.000 A 
ATOM     21  C   UNL     1       4.884   4.268  18.808  0.00  0.00    +0.000 A 
ATOM     22  C   UNL     1       4.150   5.404  19.214  0.00  0.00    +0.000 A 
BRANCH  21  23
ATOM     23  C   UNL     1       6.064   4.381  17.869  0.00  0.00    +0.000 C 
BRANCH  23  24
ATOM     24  N   UNL     1       6.822   5.594  18.058  0.00  0.00    +0.000 N 
ATOM     25  C   UNL     1       6.895   6.612  17.152  0.00  0.00    +0.000 C 
ATOM     26  O   UNL     1       6.329   6.669  16.068  0.00  0.00    +0.000 OA
ATOM     27  C   UNL     1       7.822   7.683  17.707  0.00  0.00    +0.000 C 
ATOM     28  N   UNL     1       8.208   7.082  18.950  0.00  0.00    +0.000 N 
ATOM     29  C   UNL     1       7.623   5.848  19.129  0.00  0.00    +0.000 C 
ATOM     30  O   UNL     1       7.836   5.131  20.092  0.00  0.00    +0.000 OA
ATOM     31  H   UNL     1       8.844   7.468  19.637  0.00  0.00    +0.000 HD
ENDBRANCH  23  24
ENDBRANCH  21  23
ENDBRANCH   3  17
TORSDOF 4
ENDMDL
MODEL 5
REMARK VINA RESULT:      -9.2      1.179      2.386
REMARK  Name = 
REMARK  5 active torsions:
REMARK  status: ('A' for Active; 'I' for Inactive)
REMARK    1  A    between atoms: C_1  and  N_2
REMARK    2  A    between atoms: C_8  and  C_9
REMARK    3  A    between atoms: N_11  and  C_12
REMARK    4  A    between atoms: C_16  and  C_17
REMARK    5  A    between atoms: C_17  and  N_18
REMARK                            x       y       z     vdW  Elec       q    Type
REMARK                         _______ _______ _______ _____ _____    ______ ____
ROOT
ATOM      1  C   UNL     1       2.196   7.629  19.255  0.00  0.00    +0.000 C 
ATOM      2  O   UNL     1       2.716   7.716  18.146  0.00  0.00    +0.000 OA
ATOM      3  N   UNL     1       2.288   6.553  20.128  0.00  0.00    +0.000 N 
ATOM      4  H   UNL     1       1.687   6.543  20.942  0.00  0.00    +0.000 HD
ENDROOT
BRANCH   1  12
ATOM      5  C   UNL     1      -1.661  12.682  23.117  0.00  0.00    +0.000 C 
ATOM      6  N   UNL     1      -0.965  11.865  22.154  0.00  0.00    +0.000 N 
ATOM      7  C   UNL     1      -0.911  12.131  20.814  0.00  0.00    +0.000 C 
ATOM      8  O   UNL     1      -1.392  13.054  20.187  0.00  0.00    +0.000 OA
ATOM      9  C   UNL     1      -0.142  11.041  20.215  0.00  0.00    +0.000 A 
ATOM     10  C   UNL     1       0.210  10.828  18.901  0.00  0.00    +0.000 A 
ATOM     11  C   UNL     1       0.959   9.681  18.629  0.00  0.00    +0.000 A 
ATOM     12  C   UNL     1       1.336   8.774  19.659  0.00  0.00    +0.000 A 
ATOM     13  C   UNL     1       0.971   9.020  20.988  0.00  0.00    +0.000 A 
ATOM     14  C   UNL     1       0.227  10.167  21.226  0.00  0.00    +0.000 A 
ATOM     15  C   UNL     1      -0.307  10.708  22.476  0.00  0.00    +0.000 C 
ATOM     16  O   UNL     1      -0.171  10.173  23.559  0.00  0.00    +0.000 OA
ENDBRANCH   1  12
BRANCH   3  17
ATOM     17  C   UNL     1       3.024   5.364  19.875  0.00  0.00    +0.000 A 
ATOM     18  C   UNL     1       2.680   4.130  20.435  0.00  0.00    +0.000 A 
ATOM     19  C   UNL     1       3.464   2.997  20.224  0.00  0.00    +0.000 A 
ATOM     20  C   UNL     1       4.588   3.070  19.410  0.00  0.00    +0.000 A 
ATOM     21  C   UNL     1       4.919   4.273  18.772  0.00  0.00    +0.000 A 
ATOM     22  C   UNL     1       4.142   5.424  19.027  0.00  0.00    +0.000 A 
BRANCH  21  23
ATOM     23  C   UNL     1       6.090   4.302  17.817  0.00  0.00    +0.000 C 
BRANCH  23  24
ATOM     24  N   UNL     1       6.786   5.565  17.815  0.00  0.00    +0.000 N 
ATOM     25  C   UNL     1       7.676   5.962  18.771  0.00  0.00    +0.000 C 
ATOM     26  O   UNL     1       8.033   5.320  19.750  0.00  0.00    +0.000 OA
ATOM     27  C   UNL     1       8.154   7.366  18.430  0.00  0.00    +0.000 C 
ATOM     28  N   UNL     1       7.400   7.620  17.237  0.00  0.00    +0.000 N 
ATOM     29  C   UNL     1       6.591   6.556  16.903  0.00  0.00    +0.000 C 
ATOM     30  O   UNL     1       5.827   6.560  15.953  0.00  0.00    +0.000 OA
ATOM     31  H   UNL     1       7.412   8.467  16.683  0.00  0.00    +0.000 HD
ENDBRANCH  23  24
ENDBRANCH  21  23
ENDBRANCH   3  17
TORSDOF 4
ENDMDL
MODEL 6
REMARK VINA RESULT:      -9.1      1.009      2.245
REMARK  Name = 
REMARK  5 active torsions:
REMARK  status: ('A' for Active; 'I' for Inactive)
REMARK    1  A    between atoms: C_1  and  N_2
REMARK    2  A    between atoms: C_8  and  C_9
REMARK    3  A    between atoms: N_11  and  C_12
REMARK    4  A    between atoms: C_16  and  C_17
REMARK    5  A    between atoms: C_17  and  N_18
REMARK                            x       y       z     vdW  Elec       q    Type
REMARK                         _______ _______ _______ _____ _____    ______ ____
ROOT
ATOM      1  C   UNL     1       2.223   8.098  18.301  0.00  0.00    +0.000 C 
ATOM      2  O   UNL     1       2.849   8.382  17.284  0.00  0.00    +0.000 OA
ATOM      3  N   UNL     1       2.075   6.833  18.852  0.00  0.00    +0.000 N 
ATOM      4  H   UNL     1       1.407   6.711  19.603  0.00  0.00    +0.000 HD
ENDROOT
BRANCH   1  12
ATOM      5  C   UNL     1      -1.400  12.444  23.129  0.00  0.00    +0.000 C 
ATOM      6  N   UNL     1      -0.678  11.829  22.043  0.00  0.00    +0.000 N 
ATOM      7  C   UNL     1      -0.316  12.477  20.895  0.00  0.00    +0.000 C 
ATOM      8  O   UNL     1      -0.499  13.633  20.566  0.00  0.00    +0.000 OA
ATOM      9  C   UNL     1       0.358  11.482  20.062  0.00  0.00    +0.000 A 
ATOM     10  C   UNL     1       0.921  11.612  18.812  0.00  0.00    +0.000 A 
ATOM     11  C   UNL     1       1.502  10.466  18.263  0.00  0.00    +0.000 A 
ATOM     12  C   UNL     1       1.508   9.225  18.958  0.00  0.00    +0.000 A 
ATOM     13  C   UNL     1       0.936   9.124  20.232  0.00  0.00    +0.000 A 
ATOM     14  C   UNL     1       0.367  10.278  20.751  0.00  0.00    +0.000 A 
ATOM     15  C   UNL     1      -0.304  10.512  22.030  0.00  0.00    +0.000 C 
ATOM     16  O   UNL     1      -0.477   9.652  22.872  0.00  0.00    +0.000 OA
ENDBRANCH   1  12
BRANCH   3  17
ATOM     17  C   UNL     1       2.647   5.644  18.322  0.00  0.00    +0.000 A 
ATOM     18  C   UNL     1       1.878   4.624  17.756  0.00  0.00    +0.000 A 
ATOM     19  C   UNL     1       2.463   3.440  17.309  0.00  0.00    +0.000 A 
ATOM     20  C   UNL     1       3.841   3.275  17.383  0.00  0.00    +0.000 A 
ATOM     21  C   UNL     1       4.649   4.307  17.875  0.00  0.00    +0.000 A 
ATOM     22  C   UNL     1       4.042   5.484  18.363  0.00  0.00    +0.000 A 
BRANCH  21  23
ATOM     23  C   UNL     1       6.152   4.140  17.855  0.00  0.00    +0.000 C 
BRANCH  23  24
ATOM     24  N   UNL     1       6.860   5.396  17.820  0.00  0.00    +0.000 N 
ATOM     25  C   UNL     1       7.489   5.962  18.891  0.00  0.00    +0.000 C 
ATOM     26  O   UNL     1       7.569   5.500  20.021  0.00  0.00    +0.000 OA
ATOM     27  C   UNL     1       8.076   7.296  18.452  0.00  0.00    +0.000 C 
ATOM     28  N   UNL     1       7.655   7.333  17.082  0.00  0.00    +0.000 N 
ATOM     29  C   UNL     1       6.928   6.216  16.736  0.00  0.00    +0.000 C 
ATOM     30  O   UNL     1       6.430   6.047  15.636  0.00  0.00    +0.000 OA
ATOM     31  H   UNL     1       7.830   8.075  16.416  0.00  0.00    +0.000 HD
ENDBRANCH  23  24
ENDBRANCH  21  23
ENDBRANCH   3  17
TORSDOF 4
ENDMDL
MODEL 7
REMARK VINA RESULT:      -9.1      2.437      3.918
REMARK  Name = 
REMARK  5 active torsions:
REMARK  status: ('A' for Active; 'I' for Inactive)
REMARK    1  A    between atoms: C_1  and  N_2
REMARK    2  A    between atoms: C_8  and  C_9
REMARK    3  A    between atoms: N_11  and  C_12
REMARK    4  A    between atoms: C_16  and  C_17
REMARK    5  A    between atoms: C_17  and  N_18
REMARK                            x       y       z     vdW  Elec       q    Type
REMARK                         _______ _______ _______ _____ _____    ______ ____
ROOT
ATOM      1  C   UNL     1       2.213   7.563  19.189  0.00  0.00    +0.000 C 
ATOM      2  O   UNL     1       2.243   6.660  20.019  0.00  0.00    +0.000 OA
ATOM      3  N   UNL     1       2.849   7.572  17.955  0.00  0.00    +0.000 N 
ATOM      4  H   UNL     1       2.872   8.439  17.433  0.00  0.00    +0.000 HD
ENDROOT
BRANCH   1  12
ATOM      5  C   UNL     1      -1.296  12.881  23.029  0.00  0.00    +0.000 C 
ATOM      6  N   UNL     1      -0.631  12.026  22.076  0.00  0.00    +0.000 N 
ATOM      7  C   UNL     1      -0.440  12.343  20.760  0.00  0.00    +0.000 C 
ATOM      8  O   UNL     1      -0.755  13.346  20.150  0.00  0.00    +0.000 OA
ATOM      9  C   UNL     1       0.236  11.194  20.159  0.00  0.00    +0.000 A 
ATOM     10  C   UNL     1       0.661  10.998  18.864  0.00  0.00    +0.000 A 
ATOM     11  C   UNL     1       1.285   9.779  18.587  0.00  0.00    +0.000 A 
ATOM     12  C   UNL     1       1.468   8.787  19.590  0.00  0.00    +0.000 A 
ATOM     13  C   UNL     1       1.033   9.018  20.901  0.00  0.00    +0.000 A 
ATOM     14  C   UNL     1       0.417  10.237  21.146  0.00  0.00    +0.000 A 
ATOM     15  C   UNL     1      -0.145  10.783  22.381  0.00  0.00    +0.000 C 
ATOM     16  O   UNL     1      -0.159  10.188  23.442  0.00  0.00    +0.000 OA
ENDBRANCH   1  12
BRANCH   3  17
ATOM     17  C   UNL     1       3.641   6.508  17.442  0.00  0.00    +0.000 A 
ATOM     18  C   UNL     1       4.761   6.724  16.635  0.00  0.00    +0.000 A 
ATOM     19  C   UNL     1       5.475   5.657  16.090  0.00  0.00    +0.000 A 
ATOM     20  C   UNL     1       5.102   4.350  16.380  0.00  0.00    +0.000 A 
ATOM     21  C   UNL     1       4.031   4.099  17.247  0.00  0.00    +0.000 A 
ATOM     22  C   UNL     1       3.289   5.186  17.759  0.00  0.00    +0.000 A 
BRANCH  21  23
ATOM     23  C   UNL     1       3.706   2.671  17.623  0.00  0.00    +0.000 C 
BRANCH  23  24
ATOM     24  N   UNL     1       3.117   2.552  18.934  0.00  0.00    +0.000 N 
ATOM     25  C   UNL     1       1.776   2.580  19.188  0.00  0.00    +0.000 C 
ATOM     26  O   UNL     1       0.878   2.688  18.365  0.00  0.00    +0.000 OA
ATOM     27  C   UNL     1       1.569   2.466  20.691  0.00  0.00    +0.000 C 
ATOM     28  N   UNL     1       2.929   2.405  21.142  0.00  0.00    +0.000 N 
ATOM     29  C   UNL     1       3.822   2.473  20.095  0.00  0.00    +0.000 C 
ATOM     30  O   UNL     1       5.033   2.482  20.239  0.00  0.00    +0.000 OA
ATOM     31  H   UNL     1       3.246   2.337  22.101  0.00  0.00    +0.000 HD
ENDBRANCH  23  24
ENDBRANCH  21  23
ENDBRANCH   3  17
TORSDOF 4
ENDMDL
MODEL 8
REMARK VINA RESULT:      -9.1      2.449      4.103
REMARK  Name = 
REMARK  5 active torsions:
REMARK  status: ('A' for Active; 'I' for Inactive)
REMARK    1  A    between atoms: C_1  and  N_2
REMARK    2  A    between atoms: C_8  and  C_9
REMARK    3  A    between atoms: N_11  and  C_12
REMARK    4  A    between atoms: C_16  and  C_17
REMARK    5  A    between atoms: C_17  and  N_18
REMARK                            x       y       z     vdW  Elec       q    Type
REMARK                         _______ _______ _______ _____ _____    ______ ____
ROOT
ATOM      1  C   UNL     1       2.189   7.618  19.187  0.00  0.00    +0.000 C 
ATOM      2  O   UNL     1       2.212   6.718  20.022  0.00  0.00    +0.000 OA
ATOM      3  N   UNL     1       2.826   7.616  17.954  0.00  0.00    +0.000 N 
ATOM      4  H   UNL     1       2.855   8.480  17.427  0.00  0.00    +0.000 HD
ENDROOT
BRANCH   1  12
ATOM      5  C   UNL     1      -1.302  12.969  22.996  0.00  0.00    +0.000 C 
ATOM      6  N   UNL     1      -0.637  12.108  22.049  0.00  0.00    +0.000 N 
ATOM      7  C   UNL     1      -0.428  12.424  20.736  0.00  0.00    +0.000 C 
ATOM      8  O   UNL     1      -0.726  13.432  20.124  0.00  0.00    +0.000 OA
ATOM      9  C   UNL     1       0.241  11.269  20.141  0.00  0.00    +0.000 A 
ATOM     10  C   UNL     1       0.679  11.069  18.851  0.00  0.00    +0.000 A 
ATOM     11  C   UNL     1       1.293   9.844  18.578  0.00  0.00    +0.000 A 
ATOM     12  C   UNL     1       1.453   8.849  19.582  0.00  0.00    +0.000 A 
ATOM     13  C   UNL     1       1.006   9.083  20.888  0.00  0.00    +0.000 A 
ATOM     14  C   UNL     1       0.401  10.308  21.129  0.00  0.00    +0.000 A 
ATOM     15  C   UNL     1      -0.167  10.860  22.358  0.00  0.00    +0.000 C 
ATOM     16  O   UNL     1      -0.200  10.264  23.417  0.00  0.00    +0.000 OA
ENDBRANCH   1  12
BRANCH   3  17
ATOM     17  C   UNL     1       3.610   6.543  17.447  0.00  0.00    +0.000 A 
ATOM     18  C   UNL     1       4.726   6.745  16.630  0.00  0.00    +0.000 A 
ATOM     19  C   UNL     1       5.432   5.670  16.092  0.00  0.00    +0.000 A 
ATOM     20  C   UNL     1       5.055   4.368  16.398  0.00  0.00    +0.000 A 
ATOM     21  C   UNL     1       3.988   4.130  17.274  0.00  0.00    +0.000 A 
ATOM     22  C   UNL     1       3.255   5.226  17.779  0.00  0.00    +0.000 A 
BRANCH  21  23
ATOM     23  C   UNL     1       3.659   2.707  17.666  0.00  0.00    +0.000 C 
BRANCH  23  24
ATOM     24  N   UNL     1       3.059   2.607  18.973  0.00  0.00    +0.000 N 
ATOM     25  C   UNL     1       3.757   2.473  20.139  0.00  0.00    +0.000 C 
ATOM     26  O   UNL     1       4.973   2.436  20.263  0.00  0.00    +0.000 OA
ATOM     27  C   UNL     1       2.761   2.359  21.284  0.00  0.00    +0.000 C 
ATOM     28  N   UNL     1       1.522   2.427  20.566  0.00  0.00    +0.000 N 
ATOM     29  C   UNL     1       1.720   2.556  19.209  0.00  0.00    +0.000 C 
ATOM     30  O   UNL     1       0.814   2.590  18.394  0.00  0.00    +0.000 OA
ATOM     31  H   UNL     1       0.591   2.374  20.960  0.00  0.00    +0.000 HD
ENDBRANCH  23  24
ENDBRANCH  21  23
ENDBRANCH   3  17
TORSDOF 4
ENDMDL
MODEL 9
REMARK VINA RESULT:      -9.0      1.067      1.089
REMARK  Name = 
REMARK  5 active torsions:
REMARK  status: ('A' for Active; 'I' for Inactive)
REMARK    1  A    between atoms: C_1  and  N_2
REMARK    2  A    between atoms: C_8  and  C_9
REMARK    3  A    between atoms: N_11  and  C_12
REMARK    4  A    between atoms: C_16  and  C_17
REMARK    5  A    between atoms: C_17  and  N_18
REMARK                            x       y       z     vdW  Elec       q    Type
REMARK                         _______ _______ _______ _____ _____    ______ ____
ROOT
ATOM      1  C   UNL     1       1.609   7.100  20.280  0.00  0.00    +0.000 C 
ATOM      2  O   UNL     1       1.434   6.174  21.067  0.00  0.00    +0.000 OA
ATOM      3  N   UNL     1       2.251   7.029  19.051  0.00  0.00    +0.000 N 
ATOM      4  H   UNL     1       2.465   7.894  18.571  0.00  0.00    +0.000 HD
ENDROOT
BRANCH   1  12
ATOM      5  C   UNL     1      -0.706  14.163  20.581  0.00  0.00    +0.000 C 
ATOM      6  N   UNL     1      -0.331  12.785  20.785  0.00  0.00    +0.000 N 
ATOM      7  C   UNL     1      -0.415  12.135  21.985  0.00  0.00    +0.000 C 
ATOM      8  O   UNL     1      -0.805  12.541  23.062  0.00  0.00    +0.000 OA
ATOM      9  C   UNL     1       0.093  10.784  21.751  0.00  0.00    +0.000 A 
ATOM     10  C   UNL     1       0.220   9.725  22.622  0.00  0.00    +0.000 A 
ATOM     11  C   UNL     1       0.746   8.541  22.099  0.00  0.00    +0.000 A 
ATOM     12  C   UNL     1       1.134   8.435  20.735  0.00  0.00    +0.000 A 
ATOM     13  C   UNL     1       0.985   9.525  19.869  0.00  0.00    +0.000 A 
ATOM     14  C   UNL     1       0.461  10.687  20.417  0.00  0.00    +0.000 A 
ATOM     15  C   UNL     1       0.182  11.984  19.801  0.00  0.00    +0.000 C 
ATOM     16  O   UNL     1       0.402  12.242  18.633  0.00  0.00    +0.000 OA
ENDBRANCH   1  12
BRANCH   3  17
ATOM     17  C   UNL     1       2.807   5.846  18.493  0.00  0.00    +0.000 A 
ATOM     18  C   UNL     1       2.021   4.835  17.933  0.00  0.00    +0.000 A 
ATOM     19  C   UNL     1       2.592   3.655  17.458  0.00  0.00    +0.000 A 
ATOM     20  C   UNL     1       3.970   3.484  17.499  0.00  0.00    +0.000 A 
ATOM     21  C   UNL     1       4.794   4.508  17.984  0.00  0.00    +0.000 A 
ATOM     22  C   UNL     1       4.202   5.681  18.501  0.00  0.00    +0.000 A 
BRANCH  21  23
ATOM     23  C   UNL     1       6.295   4.336  17.929  0.00  0.00    +0.000 C 
BRANCH  23  24
ATOM     24  N   UNL     1       7.012   5.576  18.094  0.00  0.00    +0.000 N 
ATOM     25  C   UNL     1       7.140   6.533  17.129  0.00  0.00    +0.000 C 
ATOM     26  O   UNL     1       6.664   6.504  16.003  0.00  0.00    +0.000 OA
ATOM     27  C   UNL     1       7.999   7.661  17.682  0.00  0.00    +0.000 C 
ATOM     28  N   UNL     1       8.293   7.153  18.991  0.00  0.00    +0.000 N 
ATOM     29  C   UNL     1       7.717   5.921  19.206  0.00  0.00    +0.000 C 
ATOM     30  O   UNL     1       7.864   5.275  20.230  0.00  0.00    +0.000 OA
ATOM     31  H   UNL     1       8.862   7.600  19.699  0.00  0.00    +0.000 HD
ENDBRANCH  23  24
ENDBRANCH  21  23
ENDBRANCH   3  17
TORSDOF 4
ENDMDL
