MODEL 1
REMARK VINA RESULT:      -8.6      0.000      0.000
REMARK  Name = 
REMARK  8 active torsions:
REMARK  status: ('A' for Active; 'I' for Inactive)
REMARK    1  A    between atoms: C_1  and  N_2
REMARK    2  A    between atoms: C_6  and  C_7
REMARK    3  A    between atoms: C_7  and  C_9
REMARK    4  A    between atoms: C_9  and  C_10
REMARK    5  A    between atoms: C_14  and  N_15
REMARK    6  A    between atoms: C_18  and  C_19
REMARK    7  A    between atoms: C_19  and  C_20
REMARK    8  A    between atoms: C_20  and  C_21
REMARK                            x       y       z     vdW  Elec       q    Type
REMARK                         _______ _______ _______ _____ _____    ______ ____
ROOT
ATOM      1  C   UNL     1       1.683   7.457  20.148  0.00  0.00    +0.000 A 
ATOM      2  C   UNL     1       2.088   8.322  19.122  0.00  0.00    +0.000 A 
ATOM      3  C   UNL     1       2.737   7.832  17.996  0.00  0.00    +0.000 A 
ATOM      4  C   UNL     1       3.102   6.494  17.938  0.00  0.00    +0.000 A 
ATOM      5  C   UNL     1       2.955   5.690  19.081  0.00  0.00    +0.000 A 
ATOM      6  C   UNL     1       2.120   6.127  20.119  0.00  0.00    +0.000 A 
ENDROOT
BRANCH   5   7
ATOM      7  N   UNL     1       3.998   4.723  19.412  0.00  0.00    +0.000 N 
ATOM      8  C   UNL     1       5.324   5.378  19.321  0.00  0.00    +0.000 C 
ATOM      9  C   UNL     1       5.675   5.167  17.879  0.00  0.00    +0.000 A 
ATOM     10  C   UNL     1       6.173   6.043  16.918  0.00  0.00    +0.000 A 
ATOM     11  C   UNL     1       6.157   5.598  15.581  0.00  0.00    +0.000 A 
ATOM     12  C   UNL     1       5.621   4.347  15.220  0.00  0.00    +0.000 A 
ATOM     13  C   UNL     1       5.055   3.515  16.184  0.00  0.00    +0.000 A 
ATOM     14  C   UNL     1       5.082   3.959  17.494  0.00  0.00    +0.000 A 
ATOM     15  C   UNL     1       4.095   3.598  18.540  0.00  0.00    +0.000 C 
ATOM     16  O   UNL     1       3.377   2.617  18.500  0.00  0.00    +0.000 OA
BRANCH  10  17
ATOM     17  C   UNL     1       6.542   7.478  17.207  0.00  0.00    +0.000 C 
BRANCH  17  18
ATOM     18  C   UNL     1       7.879   7.682  17.917  0.00  0.00    +0.000 C 
BRANCH  18  19
ATOM     19  C   UNL     1       8.272   9.142  18.063  0.00  0.00    +0.000 C 
ATOM     20  F   UNL     1       9.170   9.266  19.075  0.00  0.00    +0.000 F 
ENDBRANCH  18  19
ENDBRANCH  17  18
ENDBRANCH  10  17
ENDBRANCH   5   7
BRANCH   1  21
ATOM     21  C   UNL     1       0.873   7.985  21.313  0.00  0.00    +0.000 C 
BRANCH  21  22
ATOM     22  C   UNL     1       1.363   9.365  21.779  0.00  0.00    +0.000 C 
ATOM     23  F   UNL     1       2.198   9.200  22.847  0.00  0.00    +0.000 F 
BRANCH  22  29
ATOM     24  C   UNL     1      -0.238  11.273  19.883  0.00  0.00    +0.000 C 
ATOM     25  N   UNL     1      -0.461  11.067  21.288  0.00  0.00    +0.000 N 
ATOM     26  C   UNL     1      -1.431  11.674  22.031  0.00  0.00    +0.000 A 
ATOM     27  N   UNL     1      -1.342  11.274  23.277  0.00  0.00    +0.000 NA
ATOM     28  N   UNL     1      -0.298  10.384  23.353  0.00  0.00    +0.000 NA
ATOM     29  C   UNL     1       0.232  10.261  22.151  0.00  0.00    +0.000 A 
ENDBRANCH  22  29
ENDBRANCH  21  22
ENDBRANCH   1  21
TORSDOF 7
ENDMDL
MODEL 2
REMARK VINA RESULT:      -8.1      2.525      3.386
REMARK  Name = 
REMARK  8 active torsions:
REMARK  status: ('A' for Active; 'I' for Inactive)
REMARK    1  A    between atoms: C_1  and  N_2
REMARK    2  A    between atoms: C_6  and  C_7
REMARK    3  A    between atoms: C_7  and  C_9
REMARK    4  A    between atoms: C_9  and  C_10
REMARK    5  A    between atoms: C_14  and  N_15
REMARK    6  A    between atoms: C_18  and  C_19
REMARK    7  A    between atoms: C_19  and  C_20
REMARK    8  A    between atoms: C_20  and  C_21
REMARK                            x       y       z     vdW  Elec       q    Type
REMARK                         _______ _______ _______ _____ _____    ______ ____
ROOT
ATOM      1  C   UNL     1       1.343   8.926  19.385  0.00  0.00    +0.000 A 
ATOM      2  C   UNL     1       1.985   9.338  18.208  0.00  0.00    +0.000 A 
ATOM      3  C   UNL     1       2.708   8.434  17.440  0.00  0.00    +0.000 A 
ATOM      4  C   UNL     1       2.905   7.140  17.903  0.00  0.00    +0.000 A 
ATOM      5  C   UNL     1       2.511   6.808  19.209  0.00  0.00    +0.000 A 
ATOM      6  C   UNL     1       1.609   7.644  19.882  0.00  0.00    +0.000 A 
ENDROOT
BRANCH   5   7
ATOM      7  N   UNL     1       3.371   5.948  20.018  0.00  0.00    +0.000 N 
ATOM      8  C   UNL     1       4.502   5.466  19.191  0.00  0.00    +0.000 C 
ATOM      9  C   UNL     1       3.934   4.219  18.584  0.00  0.00    +0.000 A 
ATOM     10  C   UNL     1       3.944   3.747  17.275  0.00  0.00    +0.000 A 
ATOM     11  C   UNL     1       3.097   2.660  16.982  0.00  0.00    +0.000 A 
ATOM     12  C   UNL     1       2.244   2.100  17.952  0.00  0.00    +0.000 A 
ATOM     13  C   UNL     1       2.188   2.633  19.238  0.00  0.00    +0.000 A 
ATOM     14  C   UNL     1       3.028   3.697  19.516  0.00  0.00    +0.000 A 
ATOM     15  C   UNL     1       2.761   4.759  20.516  0.00  0.00    +0.000 C 
ATOM     16  O   UNL     1       1.989   4.648  21.449  0.00  0.00    +0.000 OA
BRANCH  10  17
ATOM     17  C   UNL     1       4.654   4.448  16.142  0.00  0.00    +0.000 C 
BRANCH  17  18
ATOM     18  C   UNL     1       6.006   3.856  15.747  0.00  0.00    +0.000 C 
BRANCH  18  19
ATOM     19  C   UNL     1       7.192   4.629  16.298  0.00  0.00    +0.000 C 
ATOM     20  F   UNL     1       7.462   4.197  17.558  0.00  0.00    +0.000 F 
ENDBRANCH  18  19
ENDBRANCH  17  18
ENDBRANCH  10  17
ENDBRANCH   5   7
BRANCH   1  21
ATOM     21  C   UNL     1       0.461   9.891  20.149  0.00  0.00    +0.000 C 
BRANCH  21  22
ATOM     22  C   UNL     1       0.220  11.193  19.369  0.00  0.00    +0.000 C 
ATOM     23  F   UNL     1       0.857  12.217  20.010  0.00  0.00    +0.000 F 
BRANCH  22  29
ATOM     24  C   UNL     1      -1.748  10.119  17.184  0.00  0.00    +0.000 C 
ATOM     25  N   UNL     1      -2.069  10.994  18.279  0.00  0.00    +0.000 N 
ATOM     26  C   UNL     1      -3.307  11.496  18.552  0.00  0.00    +0.000 A 
ATOM     27  N   UNL     1      -3.243  12.271  19.608  0.00  0.00    +0.000 NA
ATOM     28  N   UNL     1      -1.939  12.272  20.041  0.00  0.00    +0.000 NA
ATOM     29  C   UNL     1      -1.232  11.501  19.238  0.00  0.00    +0.000 A 
ENDBRANCH  22  29
ENDBRANCH  21  22
ENDBRANCH   1  21
TORSDOF 7
ENDMDL
MODEL 3
REMARK VINA RESULT:      -8.0      4.179      7.063
REMARK  Name = 
REMARK  8 active torsions:
REMARK  status: ('A' for Active; 'I' for Inactive)
REMARK    1  A    between atoms: C_1  and  N_2
REMARK    2  A    between atoms: C_6  and  C_7
REMARK    3  A    between atoms: C_7  and  C_9
REMARK    4  A    between atoms: C_9  and  C_10
REMARK    5  A    between atoms: C_14  and  N_15
REMARK    6  A    between atoms: C_18  and  C_19
REMARK    7  A    between atoms: C_19  and  C_20
REMARK    8  A    between atoms: C_20  and  C_21
REMARK                            x       y       z     vdW  Elec       q    Type
REMARK                         _______ _______ _______ _____ _____    ______ ____
ROOT
ATOM      1  C   UNL     1       7.695   7.862  17.796  0.00  0.00    +0.000 A 
ATOM      2  C   UNL     1       7.822   7.050  18.931  0.00  0.00    +0.000 A 
ATOM      3  C   UNL     1       7.839   5.666  18.817  0.00  0.00    +0.000 A 
ATOM      4  C   UNL     1       7.601   5.074  17.583  0.00  0.00    +0.000 A 
ATOM      5  C   UNL     1       7.189   5.872  16.504  0.00  0.00    +0.000 A 
ATOM      6  C   UNL     1       7.380   7.260  16.571  0.00  0.00    +0.000 A 
ENDROOT
BRANCH   5   7
ATOM      7  N   UNL     1       6.157   5.373  15.600  0.00  0.00    +0.000 N 
ATOM      8  C   UNL     1       4.960   6.242  15.692  0.00  0.00    +0.000 C 
ATOM      9  C   UNL     1       4.198   5.602  16.813  0.00  0.00    +0.000 A 
ATOM     10  C   UNL     1       3.578   6.150  17.932  0.00  0.00    +0.000 A 
ATOM     11  C   UNL     1       3.163   5.251  18.935  0.00  0.00    +0.000 A 
ATOM     12  C   UNL     1       3.401   3.867  18.838  0.00  0.00    +0.000 A 
ATOM     13  C   UNL     1       4.092   3.343  17.748  0.00  0.00    +0.000 A 
ATOM     14  C   UNL     1       4.490   4.234  16.766  0.00  0.00    +0.000 A 
ATOM     15  C   UNL     1       5.669   4.063  15.883  0.00  0.00    +0.000 C 
ATOM     16  O   UNL     1       6.207   2.997  15.651  0.00  0.00    +0.000 OA
BRANCH  10  17
ATOM     17  C   UNL     1       3.503   7.634  18.202  0.00  0.00    +0.000 C 
BRANCH  17  18
ATOM     18  C   UNL     1       2.299   8.353  17.597  0.00  0.00    +0.000 C 
BRANCH  18  19
ATOM     19  C   UNL     1       2.050   9.727  18.193  0.00  0.00    +0.000 C 
ATOM     20  F   UNL     1       1.424   9.590  19.391  0.00  0.00    +0.000 F 
ENDBRANCH  18  19
ENDBRANCH  17  18
ENDBRANCH  10  17
ENDBRANCH   5   7
BRANCH   1  21
ATOM     21  C   UNL     1       7.797   9.367  17.920  0.00  0.00    +0.000 C 
BRANCH  21  22
ATOM     22  C   UNL     1       9.182   9.812  18.416  0.00  0.00    +0.000 C 
ATOM     23  F   UNL     1       9.275   9.558  19.755  0.00  0.00    +0.000 F 
BRANCH  22  29
ATOM     24  C   UNL     1      11.849  11.385  18.870  0.00  0.00    +0.000 C 
ATOM     25  N   UNL     1      10.618  11.910  18.345  0.00  0.00    +0.000 N 
ATOM     26  C   UNL     1      10.414  13.197  17.944  0.00  0.00    +0.000 A 
ATOM     27  N   UNL     1       9.176  13.339  17.537  0.00  0.00    +0.000 NA
ATOM     28  N   UNL     1       8.555  12.120  17.667  0.00  0.00    +0.000 NA
ATOM     29  C   UNL     1       9.427  11.258  18.156  0.00  0.00    +0.000 A 
ENDBRANCH  22  29
ENDBRANCH  21  22
ENDBRANCH   1  21
TORSDOF 7
ENDMDL
MODEL 4
REMARK VINA RESULT:      -8.0      1.275      1.665
REMARK  Name = 
REMARK  8 active torsions:
REMARK  status: ('A' for Active; 'I' for Inactive)
REMARK    1  A    between atoms: C_1  and  N_2
REMARK    2  A    between atoms: C_6  and  C_7
REMARK    3  A    between atoms: C_7  and  C_9
REMARK    4  A    between atoms: C_9  and  C_10
REMARK    5  A    between atoms: C_14  and  N_15
REMARK    6  A    between atoms: C_18  and  C_19
REMARK    7  A    between atoms: C_19  and  C_20
REMARK    8  A    between atoms: C_20  and  C_21
REMARK                            x       y       z     vdW  Elec       q    Type
REMARK                         _______ _______ _______ _____ _____    ______ ____
ROOT
ATOM      1  C   UNL     1       1.852   7.834  20.244  0.00  0.00    +0.000 A 
ATOM      2  C   UNL     1       1.963   8.367  18.953  0.00  0.00    +0.000 A 
ATOM      3  C   UNL     1       2.182   7.540  17.859  0.00  0.00    +0.000 A 
ATOM      4  C   UNL     1       2.418   6.186  18.056  0.00  0.00    +0.000 A 
ATOM      5  C   UNL     1       2.593   5.700  19.361  0.00  0.00    +0.000 A 
ATOM      6  C   UNL     1       2.167   6.484  20.443  0.00  0.00    +0.000 A 
ENDROOT
BRANCH   5   7
ATOM      7  N   UNL     1       3.620   4.694  19.617  0.00  0.00    +0.000 N 
ATOM      8  C   UNL     1       4.960   5.312  19.482  0.00  0.00    +0.000 C 
ATOM      9  C   UNL     1       5.238   5.132  18.020  0.00  0.00    +0.000 A 
ATOM     10  C   UNL     1       5.718   6.019  17.061  0.00  0.00    +0.000 A 
ATOM     11  C   UNL     1       5.626   5.613  15.715  0.00  0.00    +0.000 A 
ATOM     12  C   UNL     1       5.037   4.389  15.346  0.00  0.00    +0.000 A 
ATOM     13  C   UNL     1       4.491   3.547  16.312  0.00  0.00    +0.000 A 
ATOM     14  C   UNL     1       4.591   3.953  17.632  0.00  0.00    +0.000 A 
ATOM     15  C   UNL     1       3.642   3.591  18.712  0.00  0.00    +0.000 C 
ATOM     16  O   UNL     1       2.893   2.634  18.679  0.00  0.00    +0.000 OA
BRANCH  10  17
ATOM     17  C   UNL     1       6.144   7.434  17.372  0.00  0.00    +0.000 C 
BRANCH  17  18
ATOM     18  C   UNL     1       7.652   7.674  17.407  0.00  0.00    +0.000 C 
BRANCH  18  19
ATOM     19  C   UNL     1       8.284   7.372  18.754  0.00  0.00    +0.000 C 
ATOM     20  F   UNL     1       8.331   6.026  18.935  0.00  0.00    +0.000 F 
ENDBRANCH  18  19
ENDBRANCH  17  18
ENDBRANCH  10  17
ENDBRANCH   5   7
BRANCH   1  21
ATOM     21  C   UNL     1       1.496   8.731  21.411  0.00  0.00    +0.000 C 
BRANCH  21  22
ATOM     22  C   UNL     1      -0.023   8.832  21.618  0.00  0.00    +0.000 C 
ATOM     23  F   UNL     1      -0.609   7.684  21.167  0.00  0.00    +0.000 F 
BRANCH  22  29
ATOM     24  C   UNL     1      -1.029  11.502  22.906  0.00  0.00    +0.000 C 
ATOM     25  N   UNL     1      -1.013  11.173  21.507  0.00  0.00    +0.000 N 
ATOM     26  C   UNL     1      -1.430  11.990  20.498  0.00  0.00    +0.000 A 
ATOM     27  N   UNL     1      -1.295  11.372  19.349  0.00  0.00    +0.000 NA
ATOM     28  N   UNL     1      -0.773  10.128  19.608  0.00  0.00    +0.000 NA
ATOM     29  C   UNL     1      -0.603  10.009  20.911  0.00  0.00    +0.000 A 
ENDBRANCH  22  29
ENDBRANCH  21  22
ENDBRANCH   1  21
TORSDOF 7
ENDMDL
MODEL 5
REMARK VINA RESULT:      -8.0      1.004      1.012
REMARK  Name = 
REMARK  8 active torsions:
REMARK  status: ('A' for Active; 'I' for Inactive)
REMARK    1  A    between atoms: C_1  and  N_2
REMARK    2  A    between atoms: C_6  and  C_7
REMARK    3  A    between atoms: C_7  and  C_9
REMARK    4  A    between atoms: C_9  and  C_10
REMARK    5  A    between atoms: C_14  and  N_15
REMARK    6  A    between atoms: C_18  and  C_19
REMARK    7  A    between atoms: C_19  and  C_20
REMARK    8  A    between atoms: C_20  and  C_21
REMARK                            x       y       z     vdW  Elec       q    Type
REMARK                         _______ _______ _______ _____ _____    ______ ____
ROOT
ATOM      1  C   UNL     1       1.874   7.951  19.898  0.00  0.00    +0.000 A 
ATOM      2  C   UNL     1       2.167   8.485  18.635  0.00  0.00    +0.000 A 
ATOM      3  C   UNL     1       2.494   7.654  17.572  0.00  0.00    +0.000 A 
ATOM      4  C   UNL     1       2.658   6.292  17.787  0.00  0.00    +0.000 A 
ATOM      5  C   UNL     1       2.649   5.796  19.100  0.00  0.00    +0.000 A 
ATOM      6  C   UNL     1       2.115   6.591  20.125  0.00  0.00    +0.000 A 
ENDROOT
BRANCH   5   7
ATOM      7  N   UNL     1       3.600   4.754  19.477  0.00  0.00    +0.000 N 
ATOM      8  C   UNL     1       4.974   5.308  19.448  0.00  0.00    +0.000 C 
ATOM      9  C   UNL     1       5.375   5.071  18.023  0.00  0.00    +0.000 A 
ATOM     10  C   UNL     1       5.980   5.905  17.088  0.00  0.00    +0.000 A 
ATOM     11  C   UNL     1       5.992   5.461  15.751  0.00  0.00    +0.000 A 
ATOM     12  C   UNL     1       5.381   4.253  15.363  0.00  0.00    +0.000 A 
ATOM     13  C   UNL     1       4.712   3.467  16.298  0.00  0.00    +0.000 A 
ATOM     14  C   UNL     1       4.711   3.909  17.609  0.00  0.00    +0.000 A 
ATOM     15  C   UNL     1       3.653   3.624  18.608  0.00  0.00    +0.000 C 
ATOM     16  O   UNL     1       2.866   2.699  18.533  0.00  0.00    +0.000 OA
BRANCH  10  17
ATOM     17  C   UNL     1       6.442   7.309  17.398  0.00  0.00    +0.000 C 
BRANCH  17  18
ATOM     18  C   UNL     1       7.810   7.418  18.068  0.00  0.00    +0.000 C 
BRANCH  18  19
ATOM     19  C   UNL     1       8.367   8.831  18.082  0.00  0.00    +0.000 C 
ATOM     20  F   UNL     1       7.422   9.691  17.619  0.00  0.00    +0.000 F 
ENDBRANCH  18  19
ENDBRANCH  17  18
ENDBRANCH  10  17
ENDBRANCH   5   7
BRANCH   1  21
ATOM     21  C   UNL     1       1.404   8.856  21.017  0.00  0.00    +0.000 C 
BRANCH  21  22
ATOM     22  C   UNL     1       0.607  10.059  20.489  0.00  0.00    +0.000 C 
ATOM     23  F   UNL     1       1.479  10.982  19.985  0.00  0.00    +0.000 F 
BRANCH  22  29
ATOM     24  C   UNL     1      -1.730  12.105  20.098  0.00  0.00    +0.000 C 
ATOM     25  N   UNL     1      -1.262  11.559  21.342  0.00  0.00    +0.000 N 
ATOM     26  C   UNL     1      -1.779  11.840  22.573  0.00  0.00    +0.000 A 
ATOM     27  N   UNL     1      -1.107  11.186  23.490  0.00  0.00    +0.000 NA
ATOM     28  N   UNL     1      -0.136  10.455  22.850  0.00  0.00    +0.000 NA
ATOM     29  C   UNL     1      -0.231  10.682  21.553  0.00  0.00    +0.000 A 
ENDBRANCH  22  29
ENDBRANCH  21  22
ENDBRANCH   1  21
TORSDOF 7
ENDMDL
MODEL 6
REMARK VINA RESULT:      -7.9      2.310      3.282
REMARK  Name = 
REMARK  8 active torsions:
REMARK  status: ('A' for Active; 'I' for Inactive)
REMARK    1  A    between atoms: C_1  and  N_2
REMARK    2  A    between atoms: C_6  and  C_7
REMARK    3  A    between atoms: C_7  and  C_9
REMARK    4  A    between atoms: C_9  and  C_10
REMARK    5  A    between atoms: C_14  and  N_15
REMARK    6  A    between atoms: C_18  and  C_19
REMARK    7  A    between atoms: C_19  and  C_20
REMARK    8  A    between atoms: C_20  and  C_21
REMARK                            x       y       z     vdW  Elec       q    Type
REMARK                         _______ _______ _______ _____ _____    ______ ____
ROOT
ATOM      1  C   UNL     1       1.422   8.695  19.791  0.00  0.00    +0.000 A 
ATOM      2  C   UNL     1       1.954   9.105  18.560  0.00  0.00    +0.000 A 
ATOM      3  C   UNL     1       2.576   8.194  17.716  0.00  0.00    +0.000 A 
ATOM      4  C   UNL     1       2.788   6.891  18.146  0.00  0.00    +0.000 A 
ATOM      5  C   UNL     1       2.518   6.554  19.482  0.00  0.00    +0.000 A 
ATOM      6  C   UNL     1       1.707   7.403  20.249  0.00  0.00    +0.000 A 
ENDROOT
BRANCH   5   7
ATOM      7  N   UNL     1       3.434   5.667  20.194  0.00  0.00    +0.000 N 
ATOM      8  C   UNL     1       4.534   5.264  19.286  0.00  0.00    +0.000 C 
ATOM      9  C   UNL     1       3.963   4.043  18.631  0.00  0.00    +0.000 A 
ATOM     10  C   UNL     1       3.920   3.654  17.295  0.00  0.00    +0.000 A 
ATOM     11  C   UNL     1       3.083   2.566  16.976  0.00  0.00    +0.000 A 
ATOM     12  C   UNL     1       2.290   1.927  17.947  0.00  0.00    +0.000 A 
ATOM     13  C   UNL     1       2.286   2.378  19.265  0.00  0.00    +0.000 A 
ATOM     14  C   UNL     1       3.115   3.443  19.570  0.00  0.00    +0.000 A 
ATOM     15  C   UNL     1       2.874   4.435  20.646  0.00  0.00    +0.000 C 
ATOM     16  O   UNL     1       2.151   4.248  21.605  0.00  0.00    +0.000 OA
BRANCH  10  17
ATOM     17  C   UNL     1       4.559   4.439  16.176  0.00  0.00    +0.000 C 
BRANCH  17  18
ATOM     18  C   UNL     1       5.912   3.917  15.695  0.00  0.00    +0.000 C 
BRANCH  18  19
ATOM     19  C   UNL     1       7.096   4.648  16.304  0.00  0.00    +0.000 C 
ATOM     20  F   UNL     1       7.253   4.250  17.594  0.00  0.00    +0.000 F 
ENDBRANCH  18  19
ENDBRANCH  17  18
ENDBRANCH  10  17
ENDBRANCH   5   7
BRANCH   1  21
ATOM     21  C   UNL     1       0.643   9.671  20.647  0.00  0.00    +0.000 C 
BRANCH  21  22
ATOM     22  C   UNL     1       0.624  11.083  20.040  0.00  0.00    +0.000 C 
ATOM     23  F   UNL     1       1.071  11.973  20.975  0.00  0.00    +0.000 F 
BRANCH  22  29
ATOM     24  C   UNL     1      -1.717  12.191  21.799  0.00  0.00    +0.000 C 
ATOM     25  N   UNL     1      -1.734  11.975  20.377  0.00  0.00    +0.000 N 
ATOM     26  C   UNL     1      -2.788  12.234  19.551  0.00  0.00    +0.000 A 
ATOM     27  N   UNL     1      -2.471  11.906  18.321  0.00  0.00    +0.000 NA
ATOM     28  N   UNL     1      -1.183  11.429  18.339  0.00  0.00    +0.000 NA
ATOM     29  C   UNL     1      -0.739  11.471  19.581  0.00  0.00    +0.000 A 
ENDBRANCH  22  29
ENDBRANCH  21  22
ENDBRANCH   1  21
TORSDOF 7
ENDMDL
MODEL 7
REMARK VINA RESULT:      -7.9      1.907      2.753
REMARK  Name = 
REMARK  8 active torsions:
REMARK  status: ('A' for Active; 'I' for Inactive)
REMARK    1  A    between atoms: C_1  and  N_2
REMARK    2  A    between atoms: C_6  and  C_7
REMARK    3  A    between atoms: C_7  and  C_9
REMARK    4  A    between atoms: C_9  and  C_10
REMARK    5  A    between atoms: C_14  and  N_15
REMARK    6  A    between atoms: C_18  and  C_19
REMARK    7  A    between atoms: C_19  and  C_20
REMARK    8  A    between atoms: C_20  and  C_21
REMARK                            x       y       z     vdW  Elec       q    Type
REMARK                         _______ _______ _______ _____ _____    ______ ____
ROOT
ATOM      1  C   UNL     1       1.199   8.656  19.529  0.00  0.00    +0.000 A 
ATOM      2  C   UNL     1       1.869   9.256  18.454  0.00  0.00    +0.000 A 
ATOM      3  C   UNL     1       2.734   8.518  17.655  0.00  0.00    +0.000 A 
ATOM      4  C   UNL     1       3.038   7.207  17.997  0.00  0.00    +0.000 A 
ATOM      5  C   UNL     1       2.597   6.697  19.229  0.00  0.00    +0.000 A 
ATOM      6  C   UNL     1       1.569   7.361  19.913  0.00  0.00    +0.000 A 
ENDROOT
BRANCH   5   7
ATOM      7  N   UNL     1       3.489   5.845  20.009  0.00  0.00    +0.000 N 
ATOM      8  C   UNL     1       4.583   5.350  19.140  0.00  0.00    +0.000 C 
ATOM      9  C   UNL     1       3.986   4.097  18.573  0.00  0.00    +0.000 A 
ATOM     10  C   UNL     1       3.938   3.611  17.270  0.00  0.00    +0.000 A 
ATOM     11  C   UNL     1       3.077   2.522  17.028  0.00  0.00    +0.000 A 
ATOM     12  C   UNL     1       2.266   1.975  18.040  0.00  0.00    +0.000 A 
ATOM     13  C   UNL     1       2.267   2.523  19.320  0.00  0.00    +0.000 A 
ATOM     14  C   UNL     1       3.121   3.589  19.550  0.00  0.00    +0.000 A 
ATOM     15  C   UNL     1       2.899   4.663  20.548  0.00  0.00    +0.000 C 
ATOM     16  O   UNL     1       2.168   4.564  21.515  0.00  0.00    +0.000 OA
BRANCH  10  17
ATOM     17  C   UNL     1       4.600   4.296  16.099  0.00  0.00    +0.000 C 
BRANCH  17  18
ATOM     18  C   UNL     1       6.116   4.133  16.013  0.00  0.00    +0.000 C 
BRANCH  18  19
ATOM     19  C   UNL     1       6.879   5.432  16.202  0.00  0.00    +0.000 C 
ATOM     20  F   UNL     1       5.995   6.461  16.295  0.00  0.00    +0.000 F 
ENDBRANCH  18  19
ENDBRANCH  17  18
ENDBRANCH  10  17
ENDBRANCH   5   7
BRANCH   1  21
ATOM     21  C   UNL     1       0.171   9.439  20.318  0.00  0.00    +0.000 C 
BRANCH  21  22
ATOM     22  C   UNL     1       0.824  10.393  21.329  0.00  0.00    +0.000 C 
ATOM     23  F   UNL     1       1.606   9.667  22.182  0.00  0.00    +0.000 F 
BRANCH  22  29
ATOM     24  C   UNL     1       0.478  13.503  21.417  0.00  0.00    +0.000 C 
ATOM     25  N   UNL     1      -0.327  12.527  22.099  0.00  0.00    +0.000 N 
ATOM     26  C   UNL     1      -1.396  12.804  22.899  0.00  0.00    +0.000 A 
ATOM     27  N   UNL     1      -1.889  11.685  23.375  0.00  0.00    +0.000 NA
ATOM     28  N   UNL     1      -1.134  10.654  22.872  0.00  0.00    +0.000 NA
ATOM     29  C   UNL     1      -0.191  11.163  22.102  0.00  0.00    +0.000 A 
ENDBRANCH  22  29
ENDBRANCH  21  22
ENDBRANCH   1  21
TORSDOF 7
ENDMDL
MODEL 8
REMARK VINA RESULT:      -7.9      2.435      3.412
REMARK  Name = 
REMARK  8 active torsions:
REMARK  status: ('A' for Active; 'I' for Inactive)
REMARK    1  A    between atoms: C_1  and  N_2
REMARK    2  A    between atoms: C_6  and  C_7
REMARK    3  A    between atoms: C_7  and  C_9
REMARK    4  A    between atoms: C_9  and  C_10
REMARK    5  A    between atoms: C_14  and  N_15
REMARK    6  A    between atoms: C_18  and  C_19
REMARK    7  A    between atoms: C_19  and  C_20
REMARK    8  A    between atoms: C_20  and  C_21
REMARK                            x       y       z     vdW  Elec       q    Type
REMARK                         _______ _______ _______ _____ _____    ______ ____
ROOT
ATOM      1  C   UNL     1       1.495   8.881  19.543  0.00  0.00    +0.000 A 
ATOM      2  C   UNL     1       2.093   9.256  18.332  0.00  0.00    +0.000 A 
ATOM      3  C   UNL     1       2.730   8.316  17.533  0.00  0.00    +0.000 A 
ATOM      4  C   UNL     1       2.889   7.015  17.993  0.00  0.00    +0.000 A 
ATOM      5  C   UNL     1       2.548   6.708  19.320  0.00  0.00    +0.000 A 
ATOM      6  C   UNL     1       1.725   7.590  20.034  0.00  0.00    +0.000 A 
ENDROOT
BRANCH   5   7
ATOM      7  N   UNL     1       3.407   5.811  20.088  0.00  0.00    +0.000 N 
ATOM      8  C   UNL     1       4.520   5.341  19.230  0.00  0.00    +0.000 C 
ATOM      9  C   UNL     1       3.926   4.121  18.592  0.00  0.00    +0.000 A 
ATOM     10  C   UNL     1       3.911   3.693  17.268  0.00  0.00    +0.000 A 
ATOM     11  C   UNL     1       3.046   2.627  16.953  0.00  0.00    +0.000 A 
ATOM     12  C   UNL     1       2.198   2.047  17.916  0.00  0.00    +0.000 A 
ATOM     13  C   UNL     1       2.168   2.539  19.219  0.00  0.00    +0.000 A 
ATOM     14  C   UNL     1       3.026   3.582  19.520  0.00  0.00    +0.000 A 
ATOM     15  C   UNL     1       2.788   4.614  20.557  0.00  0.00    +0.000 C 
ATOM     16  O   UNL     1       2.027   4.484  21.497  0.00  0.00    +0.000 OA
BRANCH  10  17
ATOM     17  C   UNL     1       4.616   4.420  16.148  0.00  0.00    +0.000 C 
BRANCH  17  18
ATOM     18  C   UNL     1       6.032   3.937  15.839  0.00  0.00    +0.000 C 
BRANCH  18  19
ATOM     19  C   UNL     1       7.117   4.848  16.388  0.00  0.00    +0.000 C 
ATOM     20  F   UNL     1       7.815   4.185  17.346  0.00  0.00    +0.000 F 
ENDBRANCH  18  19
ENDBRANCH  17  18
ENDBRANCH  10  17
ENDBRANCH   5   7
BRANCH   1  21
ATOM     21  C   UNL     1       0.702   9.890  20.346  0.00  0.00    +0.000 C 
BRANCH  21  22
ATOM     22  C   UNL     1      -0.587  10.315  19.626  0.00  0.00    +0.000 C 
ATOM     23  F   UNL     1      -0.625   9.719  18.398  0.00  0.00    +0.000 F 
BRANCH  22  29
ATOM     24  C   UNL     1      -1.891  12.340  21.626  0.00  0.00    +0.000 C 
ATOM     25  N   UNL     1      -1.238  12.654  20.384  0.00  0.00    +0.000 N 
ATOM     26  C   UNL     1      -1.070  13.908  19.875  0.00  0.00    +0.000 A 
ATOM     27  N   UNL     1      -0.451  13.833  18.721  0.00  0.00    +0.000 NA
ATOM     28  N   UNL     1      -0.202  12.505  18.471  0.00  0.00    +0.000 NA
ATOM     29  C   UNL     1      -0.679  11.794  19.476  0.00  0.00    +0.000 A 
ENDBRANCH  22  29
ENDBRANCH  21  22
ENDBRANCH   1  21
TORSDOF 7
ENDMDL
MODEL 9
REMARK VINA RESULT:      -7.8      2.224      2.951
REMARK  Name = 
REMARK  8 active torsions:
REMARK  status: ('A' for Active; 'I' for Inactive)
REMARK    1  A    between atoms: C_1  and  N_2
REMARK    2  A    between atoms: C_6  and  C_7
REMARK    3  A    between atoms: C_7  and  C_9
REMARK    4  A    between atoms: C_9  and  C_10
REMARK    5  A    between atoms: C_14  and  N_15
REMARK    6  A    between atoms: C_18  and  C_19
REMARK    7  A    between atoms: C_19  and  C_20
REMARK    8  A    between atoms: C_20  and  C_21
REMARK                            x       y       z     vdW  Elec       q    Type
REMARK                         _______ _______ _______ _____ _____    ______ ____
ROOT
ATOM      1  C   UNL     1       1.698   8.930  19.467  0.00  0.00    +0.000 A 
ATOM      2  C   UNL     1       2.152   9.097  18.151  0.00  0.00    +0.000 A 
ATOM      3  C   UNL     1       2.581   8.007  17.404  0.00  0.00    +0.000 A 
ATOM      4  C   UNL     1       2.683   6.759  18.003  0.00  0.00    +0.000 A 
ATOM      5  C   UNL     1       2.505   6.645  19.391  0.00  0.00    +0.000 A 
ATOM      6  C   UNL     1       1.875   7.687  20.086  0.00  0.00    +0.000 A 
ENDROOT
BRANCH   5   7
ATOM      7  N   UNL     1       3.378   5.754  20.152  0.00  0.00    +0.000 N 
ATOM      8  C   UNL     1       4.497   5.307  19.289  0.00  0.00    +0.000 C 
ATOM      9  C   UNL     1       3.920   4.085  18.642  0.00  0.00    +0.000 A 
ATOM     10  C   UNL     1       3.911   3.667  17.314  0.00  0.00    +0.000 A 
ATOM     11  C   UNL     1       3.061   2.591  16.991  0.00  0.00    +0.000 A 
ATOM     12  C   UNL     1       2.222   1.991  17.950  0.00  0.00    +0.000 A 
ATOM     13  C   UNL     1       2.186   2.472  19.257  0.00  0.00    +0.000 A 
ATOM     14  C   UNL     1       3.029   3.525  19.565  0.00  0.00    +0.000 A 
ATOM     15  C   UNL     1       2.776   4.545  20.611  0.00  0.00    +0.000 C 
ATOM     16  O   UNL     1       2.018   4.395  21.551  0.00  0.00    +0.000 OA
BRANCH  10  17
ATOM     17  C   UNL     1       4.604   4.413  16.200  0.00  0.00    +0.000 C 
BRANCH  17  18
ATOM     18  C   UNL     1       5.972   3.867  15.794  0.00  0.00    +0.000 C 
BRANCH  18  19
ATOM     19  C   UNL     1       7.129   4.760  16.209  0.00  0.00    +0.000 C 
ATOM     20  F   UNL     1       7.767   4.202  17.271  0.00  0.00    +0.000 F 
ENDBRANCH  18  19
ENDBRANCH  17  18
ENDBRANCH  10  17
ENDBRANCH   5   7
BRANCH   1  21
ATOM     21  C   UNL     1       1.122  10.105  20.228  0.00  0.00    +0.000 C 
BRANCH  21  22
ATOM     22  C   UNL     1      -0.276   9.799  20.789  0.00  0.00    +0.000 C 
ATOM     23  F   UNL     1      -1.141   9.620  19.748  0.00  0.00    +0.000 F 
BRANCH  22  29
ATOM     24  C   UNL     1      -1.677  12.458  19.915  0.00  0.00    +0.000 C 
ATOM     25  N   UNL     1      -1.399  12.032  21.259  0.00  0.00    +0.000 N 
ATOM     26  C   UNL     1      -1.718  12.725  22.390  0.00  0.00    +0.000 A 
ATOM     27  N   UNL     1      -1.306  12.060  23.442  0.00  0.00    +0.000 NA
ATOM     28  N   UNL     1      -0.712  10.905  22.996  0.00  0.00    +0.000 NA
ATOM     29  C   UNL     1      -0.769  10.889  21.677  0.00  0.00    +0.000 A 
ENDBRANCH  22  29
ENDBRANCH  21  22
ENDBRANCH   1  21
TORSDOF 7
ENDMDL
