MODEL 1
REMARK VINA RESULT:      -8.5      0.000      0.000
REMARK  Name = 
REMARK  6 active torsions:
REMARK  status: ('A' for Active; 'I' for Inactive)
REMARK    1  A    between atoms: C_2  and  C_15
REMARK    2  A    between atoms: N_3  and  C_4
REMARK    3  A    between atoms: C_8  and  N_9
REMARK    4  A    between atoms: C_18  and  C_19
REMARK    5  A    between atoms: C_19  and  O_20
REMARK    6  A    between atoms: O_20  and  C_21
REMARK                            x       y       z     vdW  Elec       q    Type
REMARK                         _______ _______ _______ _____ _____    ______ ____
ROOT
ATOM      1  O   UNL     1       2.007   8.353  18.268  0.00  0.00    +0.000 OA
ATOM      2  C   UNL     1       1.854   7.910  19.407  0.00  0.00    +0.000 C 
ATOM      3  N   UNL     1       2.120   6.596  19.769  0.00  0.00    +0.000 N 
ATOM      4  H   UNL     1       1.825   6.320  20.702  0.00  0.00    +0.000 HD
ENDROOT
BRANCH   3   5
ATOM      5  C   UNL     1       2.650   5.608  18.904  0.00  0.00    +0.000 A 
ATOM      6  C   UNL     1       1.834   4.693  18.223  0.00  0.00    +0.000 A 
ATOM      7  C   UNL     1       2.363   3.708  17.396  0.00  0.00    +0.000 A 
ATOM      8  C   UNL     1       3.731   3.638  17.202  0.00  0.00    +0.000 A 
ATOM      9  C   UNL     1       4.573   4.562  17.837  0.00  0.00    +0.000 A 
ATOM     10  C   UNL     1       4.035   5.539  18.701  0.00  0.00    +0.000 A 
BRANCH   9  11
ATOM     11  N   UNL     1       5.963   4.510  17.585  0.00  0.00    +0.000 N 
ATOM     12  C   UNL     1       6.616   4.496  16.376  0.00  0.00    +0.000 A 
ATOM     13  N   UNL     1       7.911   4.445  16.581  0.00  0.00    +0.000 NA
ATOM     14  N   UNL     1       8.068   4.443  17.940  0.00  0.00    +0.000 NA
ATOM     15  N   UNL     1       6.896   4.496  18.562  0.00  0.00    +0.000 NA
ENDBRANCH   9  11
ENDBRANCH   3   5
BRANCH   2  16
ATOM     16  C   UNL     1       1.328   8.781  20.436  0.00  0.00    +0.000 A 
ATOM     17  C   UNL     1       1.095   8.462  21.761  0.00  0.00    +0.000 A 
ATOM     18  C   UNL     1       0.514   9.591  22.361  0.00  0.00    +0.000 A 
ATOM     19  C   UNL     1       0.414  10.547  21.372  0.00  0.00    +0.000 A 
ATOM     20  O   UNL     1       0.927  10.070  20.191  0.00  0.00    +0.000 OA
BRANCH  19  21
ATOM     21  C   UNL     1      -0.238  11.883  21.373  0.00  0.00    +0.000 C 
BRANCH  21  22
ATOM     22  O   UNL     1      -0.211  12.406  22.702  0.00  0.00    +0.000 OA
BRANCH  22  23
ATOM     23  C   UNL     1      -1.388  12.962  23.138  0.00  0.00    +0.000 A 
ATOM     24  C   UNL     1      -1.511  14.198  23.784  0.00  0.00    +0.000 A 
ATOM     25  C   UNL     1      -2.767  14.676  24.167  0.00  0.00    +0.000 A 
ATOM     26  C   UNL     1      -3.899  13.916  23.906  0.00  0.00    +0.000 A 
ATOM     27  F   UNL     1      -5.102  14.385  24.260  0.00  0.00    +0.000 F 
ATOM     28  C   UNL     1      -3.798  12.681  23.277  0.00  0.00    +0.000 A 
ATOM     29  C   UNL     1      -2.540  12.204  22.894  0.00  0.00    +0.000 A 
ENDBRANCH  22  23
ENDBRANCH  21  22
ENDBRANCH  19  21
ENDBRANCH   2  16
TORSDOF 6
ENDMDL
MODEL 2
REMARK VINA RESULT:      -8.4      2.451      3.014
REMARK  Name = 
REMARK  6 active torsions:
REMARK  status: ('A' for Active; 'I' for Inactive)
REMARK    1  A    between atoms: C_2  and  C_15
REMARK    2  A    between atoms: N_3  and  C_4
REMARK    3  A    between atoms: C_8  and  N_9
REMARK    4  A    between atoms: C_18  and  C_19
REMARK    5  A    between atoms: C_19  and  O_20
REMARK    6  A    between atoms: O_20  and  C_21
REMARK                            x       y       z     vdW  Elec       q    Type
REMARK                         _______ _______ _______ _____ _____    ______ ____
ROOT
ATOM      1  O   UNL     1       2.108   8.203  18.091  0.00  0.00    +0.000 OA
ATOM      2  C   UNL     1       1.940   7.821  19.250  0.00  0.00    +0.000 C 
ATOM      3  N   UNL     1       2.193   6.526  19.683  0.00  0.00    +0.000 N 
ATOM      4  H   UNL     1       1.886   6.301  20.626  0.00  0.00    +0.000 HD
ENDROOT
BRANCH   3   5
ATOM      5  C   UNL     1       2.725   5.492  18.877  0.00  0.00    +0.000 A 
ATOM      6  C   UNL     1       1.918   4.496  18.306  0.00  0.00    +0.000 A 
ATOM      7  C   UNL     1       2.451   3.467  17.537  0.00  0.00    +0.000 A 
ATOM      8  C   UNL     1       3.811   3.430  17.289  0.00  0.00    +0.000 A 
ATOM      9  C   UNL     1       4.643   4.431  17.812  0.00  0.00    +0.000 A 
ATOM     10  C   UNL     1       4.103   5.455  18.620  0.00  0.00    +0.000 A 
BRANCH   9  11
ATOM     11  N   UNL     1       6.022   4.408  17.505  0.00  0.00    +0.000 N 
ATOM     12  C   UNL     1       6.628   4.473  16.273  0.00  0.00    +0.000 A 
ATOM     13  N   UNL     1       7.931   4.422  16.426  0.00  0.00    +0.000 NA
ATOM     14  N   UNL     1       8.139   4.340  17.775  0.00  0.00    +0.000 NA
ATOM     15  N   UNL     1       6.992   4.343  18.443  0.00  0.00    +0.000 NA
ENDBRANCH   9  11
ENDBRANCH   3   5
BRANCH   2  16
ATOM     16  C   UNL     1       1.409   8.748  20.227  0.00  0.00    +0.000 A 
ATOM     17  C   UNL     1       1.201   8.513  21.574  0.00  0.00    +0.000 A 
ATOM     18  C   UNL     1       0.604   9.667  22.106  0.00  0.00    +0.000 A 
ATOM     19  C   UNL     1       0.470  10.554  21.057  0.00  0.00    +0.000 A 
ATOM     20  O   UNL     1       0.978  10.009  19.903  0.00  0.00    +0.000 OA
BRANCH  19  21
ATOM     21  C   UNL     1      -0.209  11.873  20.979  0.00  0.00    +0.000 C 
BRANCH  21  22
ATOM     22  O   UNL     1      -0.408  12.206  19.605  0.00  0.00    +0.000 OA
BRANCH  22  23
ATOM     23  C   UNL     1      -1.657  11.928  19.108  0.00  0.00    +0.000 A 
ATOM     24  C   UNL     1      -2.868  12.322  19.690  0.00  0.00    +0.000 A 
ATOM     25  C   UNL     1      -4.084  11.998  19.082  0.00  0.00    +0.000 A 
ATOM     26  C   UNL     1      -4.089  11.279  17.894  0.00  0.00    +0.000 A 
ATOM     27  F   UNL     1      -5.256  10.986  17.308  0.00  0.00    +0.000 F 
ATOM     28  C   UNL     1      -2.898  10.869  17.307  0.00  0.00    +0.000 A 
ATOM     29  C   UNL     1      -1.682  11.193  17.916  0.00  0.00    +0.000 A 
ENDBRANCH  22  23
ENDBRANCH  21  22
ENDBRANCH  19  21
ENDBRANCH   2  16
TORSDOF 6
ENDMDL
MODEL 3
REMARK VINA RESULT:      -8.3      3.387      4.048
REMARK  Name = 
REMARK  6 active torsions:
REMARK  status: ('A' for Active; 'I' for Inactive)
REMARK    1  A    between atoms: C_2  and  C_15
REMARK    2  A    between atoms: N_3  and  C_4
REMARK    3  A    between atoms: C_8  and  N_9
REMARK    4  A    between atoms: C_18  and  C_19
REMARK    5  A    between atoms: C_19  and  O_20
REMARK    6  A    between atoms: O_20  and  C_21
REMARK                            x       y       z     vdW  Elec       q    Type
REMARK                         _______ _______ _______ _____ _____    ______ ____
ROOT
ATOM      1  O   UNL     1       2.142   6.778  20.913  0.00  0.00    +0.000 OA
ATOM      2  C   UNL     1       1.802   7.558  20.023  0.00  0.00    +0.000 C 
ATOM      3  N   UNL     1       1.980   7.312  18.668  0.00  0.00    +0.000 N 
ATOM      4  H   UNL     1       1.784   8.088  18.042  0.00  0.00    +0.000 HD
ENDROOT
BRANCH   3   5
ATOM      5  C   UNL     1       2.520   6.121  18.125  0.00  0.00    +0.000 A 
ATOM      6  C   UNL     1       1.768   4.942  18.010  0.00  0.00    +0.000 A 
ATOM      7  C   UNL     1       2.313   3.768  17.501  0.00  0.00    +0.000 A 
ATOM      8  C   UNL     1       3.623   3.757  17.056  0.00  0.00    +0.000 A 
ATOM      9  C   UNL     1       4.391   4.929  17.120  0.00  0.00    +0.000 A 
ATOM     10  C   UNL     1       3.845   6.109  17.669  0.00  0.00    +0.000 A 
BRANCH   9  11
ATOM     11  N   UNL     1       5.710   4.914  16.611  0.00  0.00    +0.000 N 
ATOM     12  C   UNL     1       6.193   5.492  15.462  0.00  0.00    +0.000 A 
ATOM     13  N   UNL     1       7.478   5.242  15.357  0.00  0.00    +0.000 NA
ATOM     14  N   UNL     1       7.802   4.510  16.467  0.00  0.00    +0.000 NA
ATOM     15  N   UNL     1       6.744   4.315  17.243  0.00  0.00    +0.000 NA
ENDBRANCH   9  11
ENDBRANCH   3   5
BRANCH   2  16
ATOM     16  C   UNL     1       1.218   8.831  20.387  0.00  0.00    +0.000 A 
ATOM     17  C   UNL     1       0.993   9.313  21.664  0.00  0.00    +0.000 A 
ATOM     18  C   UNL     1       0.343  10.549  21.529  0.00  0.00    +0.000 A 
ATOM     19  C   UNL     1       0.195  10.766  20.175  0.00  0.00    +0.000 A 
ATOM     20  O   UNL     1       0.745   9.728  19.462  0.00  0.00    +0.000 OA
BRANCH  19  21
ATOM     21  C   UNL     1      -0.533  11.827  19.433  0.00  0.00    +0.000 C 
BRANCH  21  22
ATOM     22  O   UNL     1      -1.936  11.603  19.570  0.00  0.00    +0.000 OA
BRANCH  22  23
ATOM     23  C   UNL     1      -2.595  11.277  18.410  0.00  0.00    +0.000 A 
ATOM     24  C   UNL     1      -3.948  11.526  18.148  0.00  0.00    +0.000 A 
ATOM     25  C   UNL     1      -4.509  11.168  16.919  0.00  0.00    +0.000 A 
ATOM     26  C   UNL     1      -3.718  10.559  15.954  0.00  0.00    +0.000 A 
ATOM     27  F   UNL     1      -4.257  10.232  14.773  0.00  0.00    +0.000 F 
ATOM     28  C   UNL     1      -2.377  10.292  16.199  0.00  0.00    +0.000 A 
ATOM     29  C   UNL     1      -1.816  10.651  17.429  0.00  0.00    +0.000 A 
ENDBRANCH  22  23
ENDBRANCH  21  22
ENDBRANCH  19  21
ENDBRANCH   2  16
TORSDOF 6
ENDMDL
MODEL 4
REMARK VINA RESULT:      -8.2      2.986      3.518
REMARK  Name = 
REMARK  6 active torsions:
REMARK  status: ('A' for Active; 'I' for Inactive)
REMARK    1  A    between atoms: C_2  and  C_15
REMARK    2  A    between atoms: N_3  and  C_4
REMARK    3  A    between atoms: C_8  and  N_9
REMARK    4  A    between atoms: C_18  and  C_19
REMARK    5  A    between atoms: C_19  and  O_20
REMARK    6  A    between atoms: O_20  and  C_21
REMARK                            x       y       z     vdW  Elec       q    Type
REMARK                         _______ _______ _______ _____ _____    ______ ____
ROOT
ATOM      1  O   UNL     1       1.685   6.150  20.841  0.00  0.00    +0.000 OA
ATOM      2  C   UNL     1       1.786   7.137  20.111  0.00  0.00    +0.000 C 
ATOM      3  N   UNL     1       2.341   7.106  18.838  0.00  0.00    +0.000 N 
ATOM      4  H   UNL     1       2.491   8.007  18.393  0.00  0.00    +0.000 HD
ENDROOT
BRANCH   3   5
ATOM      5  C   UNL     1       2.811   5.940  18.188  0.00  0.00    +0.000 A 
ATOM      6  C   UNL     1       2.141   4.711  18.275  0.00  0.00    +0.000 A 
ATOM      7  C   UNL     1       2.623   3.563  17.656  0.00  0.00    +0.000 A 
ATOM      8  C   UNL     1       3.779   3.627  16.897  0.00  0.00    +0.000 A 
ATOM      9  C   UNL     1       4.453   4.849  16.756  0.00  0.00    +0.000 A 
ATOM     10  C   UNL     1       3.978   6.004  17.414  0.00  0.00    +0.000 A 
BRANCH   9  11
ATOM     11  N   UNL     1       5.601   4.908  15.934  0.00  0.00    +0.000 N 
ATOM     12  C   UNL     1       6.842   5.419  16.229  0.00  0.00    +0.000 A 
ATOM     13  N   UNL     1       7.629   5.278  15.187  0.00  0.00    +0.000 NA
ATOM     14  N   UNL     1       6.870   4.657  14.234  0.00  0.00    +0.000 NA
ATOM     15  N   UNL     1       5.642   4.414  14.677  0.00  0.00    +0.000 NA
ENDBRANCH   9  11
ENDBRANCH   3   5
BRANCH   2  16
ATOM     16  C   UNL     1       1.345   8.425  20.603  0.00  0.00    +0.000 A 
ATOM     17  C   UNL     1       0.857   8.715  21.864  0.00  0.00    +0.000 A 
ATOM     18  C   UNL     1       0.487  10.069  21.860  0.00  0.00    +0.000 A 
ATOM     19  C   UNL     1       0.761  10.544  20.595  0.00  0.00    +0.000 A 
ATOM     20  O   UNL     1       1.306   9.551  19.819  0.00  0.00    +0.000 OA
BRANCH  19  21
ATOM     21  C   UNL     1       0.457  11.853  19.960  0.00  0.00    +0.000 C 
BRANCH  21  22
ATOM     22  O   UNL     1       0.029  11.623  18.617  0.00  0.00    +0.000 OA
BRANCH  22  23
ATOM     23  C   UNL     1      -1.314  11.377  18.463  0.00  0.00    +0.000 A 
ATOM     24  C   UNL     1      -2.347  12.130  19.034  0.00  0.00    +0.000 A 
ATOM     25  C   UNL     1      -3.683  11.798  18.791  0.00  0.00    +0.000 A 
ATOM     26  C   UNL     1      -3.984  10.712  17.980  0.00  0.00    +0.000 A 
ATOM     27  F   UNL     1      -5.265  10.407  17.737  0.00  0.00    +0.000 F 
ATOM     28  C   UNL     1      -2.973   9.944  17.414  0.00  0.00    +0.000 A 
ATOM     29  C   UNL     1      -1.636  10.278  17.658  0.00  0.00    +0.000 A 
ENDBRANCH  22  23
ENDBRANCH  21  22
ENDBRANCH  19  21
ENDBRANCH   2  16
TORSDOF 6
ENDMDL
MODEL 5
REMARK VINA RESULT:      -8.1      7.178     10.559
REMARK  Name = 
REMARK  6 active torsions:
REMARK  status: ('A' for Active; 'I' for Inactive)
REMARK    1  A    between atoms: C_2  and  C_15
REMARK    2  A    between atoms: N_3  and  C_4
REMARK    3  A    between atoms: C_8  and  N_9
REMARK    4  A    between atoms: C_18  and  C_19
REMARK    5  A    between atoms: C_19  and  O_20
REMARK    6  A    between atoms: O_20  and  C_21
REMARK                            x       y       z     vdW  Elec       q    Type
REMARK                         _______ _______ _______ _____ _____    ______ ____
ROOT
ATOM      1  O   UNL     1       7.810   9.836  17.444  0.00  0.00    +0.000 OA
ATOM      2  C   UNL     1       8.263   8.980  18.204  0.00  0.00    +0.000 C 
ATOM      3  N   UNL     1       9.171   9.249  19.220  0.00  0.00    +0.000 N 
ATOM      4  H   UNL     1       9.572   8.440  19.688  0.00  0.00    +0.000 HD
ENDROOT
BRANCH   3   5
ATOM      5  C   UNL     1       9.654  10.536  19.556  0.00  0.00    +0.000 A 
ATOM      6  C   UNL     1      10.541  11.243  18.731  0.00  0.00    +0.000 A 
ATOM      7  C   UNL     1      11.033  12.496  19.080  0.00  0.00    +0.000 A 
ATOM      8  C   UNL     1      10.616  13.092  20.257  0.00  0.00    +0.000 A 
ATOM      9  C   UNL     1       9.700  12.431  21.087  0.00  0.00    +0.000 A 
ATOM     10  C   UNL     1       9.229  11.145  20.745  0.00  0.00    +0.000 A 
BRANCH   9  11
ATOM     11  N   UNL     1       9.243  13.078  22.257  0.00  0.00    +0.000 N 
ATOM     12  C   UNL     1       8.590  12.536  23.338  0.00  0.00    +0.000 A 
ATOM     13  N   UNL     1       8.342  13.481  24.216  0.00  0.00    +0.000 NA
ATOM     14  N   UNL     1       8.864  14.626  23.679  0.00  0.00    +0.000 NA
ATOM     15  N   UNL     1       9.425  14.395  22.499  0.00  0.00    +0.000 NA
ENDBRANCH   9  11
ENDBRANCH   3   5
BRANCH   2  16
ATOM     16  C   UNL     1       7.874   7.598  18.021  0.00  0.00    +0.000 A 
ATOM     17  C   UNL     1       8.105   6.544  18.885  0.00  0.00    +0.000 A 
ATOM     18  C   UNL     1       7.618   5.385  18.260  0.00  0.00    +0.000 A 
ATOM     19  C   UNL     1       7.115   5.784  17.039  0.00  0.00    +0.000 A 
ATOM     20  O   UNL     1       7.249   7.142  16.888  0.00  0.00    +0.000 OA
BRANCH  19  21
ATOM     21  C   UNL     1       6.599   4.991  15.893  0.00  0.00    +0.000 C 
BRANCH  21  22
ATOM     22  O   UNL     1       5.219   5.304  15.703  0.00  0.00    +0.000 OA
BRANCH  22  23
ATOM     23  C   UNL     1       4.386   4.933  16.730  0.00  0.00    +0.000 A 
ATOM     24  C   UNL     1       3.656   5.812  17.540  0.00  0.00    +0.000 A 
ATOM     25  C   UNL     1       2.821   5.320  18.546  0.00  0.00    +0.000 A 
ATOM     26  C   UNL     1       2.718   3.949  18.744  0.00  0.00    +0.000 A 
ATOM     27  F   UNL     1       1.903   3.481  19.698  0.00  0.00    +0.000 F 
ATOM     28  C   UNL     1       3.443   3.061  17.959  0.00  0.00    +0.000 A 
ATOM     29  C   UNL     1       4.278   3.555  16.952  0.00  0.00    +0.000 A 
ENDBRANCH  22  23
ENDBRANCH  21  22
ENDBRANCH  19  21
ENDBRANCH   2  16
TORSDOF 6
ENDMDL
MODEL 6
REMARK VINA RESULT:      -8.1      1.164      1.664
REMARK  Name = 
REMARK  6 active torsions:
REMARK  status: ('A' for Active; 'I' for Inactive)
REMARK    1  A    between atoms: C_2  and  C_15
REMARK    2  A    between atoms: N_3  and  C_4
REMARK    3  A    between atoms: C_8  and  N_9
REMARK    4  A    between atoms: C_18  and  C_19
REMARK    5  A    between atoms: C_19  and  O_20
REMARK    6  A    between atoms: O_20  and  C_21
REMARK                            x       y       z     vdW  Elec       q    Type
REMARK                         _______ _______ _______ _____ _____    ______ ____
ROOT
ATOM      1  O   UNL     1       1.978   8.900  17.261  0.00  0.00    +0.000 OA
ATOM      2  C   UNL     1       1.784   8.656  18.453  0.00  0.00    +0.000 C 
ATOM      3  N   UNL     1       2.043   7.426  19.044  0.00  0.00    +0.000 N 
ATOM      4  H   UNL     1       1.713   7.310  19.998  0.00  0.00    +0.000 HD
ENDROOT
BRANCH   3   5
ATOM      5  C   UNL     1       2.610   6.311  18.381  0.00  0.00    +0.000 A 
ATOM      6  C   UNL     1       1.913   5.106  18.210  0.00  0.00    +0.000 A 
ATOM      7  C   UNL     1       2.487   4.006  17.582  0.00  0.00    +0.000 A 
ATOM      8  C   UNL     1       3.770   4.099  17.072  0.00  0.00    +0.000 A 
ATOM      9  C   UNL     1       4.481   5.302  17.191  0.00  0.00    +0.000 A 
ATOM     10  C   UNL     1       3.908   6.405  17.859  0.00  0.00    +0.000 A 
BRANCH   9  11
ATOM     11  N   UNL     1       5.769   5.397  16.617  0.00  0.00    +0.000 N 
ATOM     12  C   UNL     1       6.469   4.444  15.916  0.00  0.00    +0.000 A 
ATOM     13  N   UNL     1       7.631   4.936  15.555  0.00  0.00    +0.000 NA
ATOM     14  N   UNL     1       7.649   6.221  16.026  0.00  0.00    +0.000 NA
ATOM     15  N   UNL     1       6.521   6.519  16.661  0.00  0.00    +0.000 NA
ENDBRANCH   9  11
ENDBRANCH   3   5
BRANCH   2  16
ATOM     16  C   UNL     1       1.215   9.683  19.298  0.00  0.00    +0.000 A 
ATOM     17  C   UNL     1       1.353  11.052  19.158  0.00  0.00    +0.000 A 
ATOM     18  C   UNL     1       0.694  11.646  20.246  0.00  0.00    +0.000 A 
ATOM     19  C   UNL     1       0.187  10.612  21.005  0.00  0.00    +0.000 A 
ATOM     20  O   UNL     1       0.482   9.403  20.424  0.00  0.00    +0.000 OA
BRANCH  19  21
ATOM     21  C   UNL     1      -0.481  10.616  22.333  0.00  0.00    +0.000 C 
BRANCH  21  22
ATOM     22  O   UNL     1      -0.311  11.903  22.928  0.00  0.00    +0.000 OA
BRANCH  22  23
ATOM     23  C   UNL     1      -1.473  12.579  23.206  0.00  0.00    +0.000 A 
ATOM     24  C   UNL     1      -2.747  12.003  23.292  0.00  0.00    +0.000 A 
ATOM     25  C   UNL     1      -3.860  12.788  23.603  0.00  0.00    +0.000 A 
ATOM     26  C   UNL     1      -3.700  14.149  23.825  0.00  0.00    +0.000 A 
ATOM     27  F   UNL     1      -4.767  14.894  24.139  0.00  0.00    +0.000 F 
ATOM     28  C   UNL     1      -2.447  14.742  23.733  0.00  0.00    +0.000 A 
ATOM     29  C   UNL     1      -1.333  13.955  23.422  0.00  0.00    +0.000 A 
ENDBRANCH  22  23
ENDBRANCH  21  22
ENDBRANCH  19  21
ENDBRANCH   2  16
TORSDOF 6
ENDMDL
MODEL 7
REMARK VINA RESULT:      -8.1      1.205      1.360
REMARK  Name = 
REMARK  6 active torsions:
REMARK  status: ('A' for Active; 'I' for Inactive)
REMARK    1  A    between atoms: C_2  and  C_15
REMARK    2  A    between atoms: N_3  and  C_4
REMARK    3  A    between atoms: C_8  and  N_9
REMARK    4  A    between atoms: C_18  and  C_19
REMARK    5  A    between atoms: C_19  and  O_20
REMARK    6  A    between atoms: O_20  and  C_21
REMARK                            x       y       z     vdW  Elec       q    Type
REMARK                         _______ _______ _______ _____ _____    ______ ____
ROOT
ATOM      1  O   UNL     1       2.038   8.409  19.158  0.00  0.00    +0.000 OA
ATOM      2  C   UNL     1       1.622   7.959  20.226  0.00  0.00    +0.000 C 
ATOM      3  N   UNL     1       1.745   6.628  20.605  0.00  0.00    +0.000 N 
ATOM      4  H   UNL     1       1.242   6.354  21.445  0.00  0.00    +0.000 HD
ENDROOT
BRANCH   3   5
ATOM      5  C   UNL     1       2.405   5.628  19.852  0.00  0.00    +0.000 A 
ATOM      6  C   UNL     1       1.717   4.557  19.263  0.00  0.00    +0.000 A 
ATOM      7  C   UNL     1       2.375   3.563  18.547  0.00  0.00    +0.000 A 
ATOM      8  C   UNL     1       3.745   3.638  18.371  0.00  0.00    +0.000 A 
ATOM      9  C   UNL     1       4.460   4.716  18.913  0.00  0.00    +0.000 A 
ATOM     10  C   UNL     1       3.792   5.705  19.667  0.00  0.00    +0.000 A 
BRANCH   9  11
ATOM     11  N   UNL     1       5.850   4.806  18.678  0.00  0.00    +0.000 N 
ATOM     12  C   UNL     1       6.543   4.549  17.519  0.00  0.00    +0.000 A 
ATOM     13  N   UNL     1       7.824   4.755  17.724  0.00  0.00    +0.000 NA
ATOM     14  N   UNL     1       7.928   5.162  19.026  0.00  0.00    +0.000 NA
ATOM     15  N   UNL     1       6.738   5.211  19.613  0.00  0.00    +0.000 NA
ENDBRANCH   9  11
ENDBRANCH   3   5
BRANCH   2  16
ATOM     16  C   UNL     1       0.925   8.839  21.138  0.00  0.00    +0.000 A 
ATOM     17  C   UNL     1       0.243   8.482  22.287  0.00  0.00    +0.000 A 
ATOM     18  C   UNL     1      -0.334   9.653  22.804  0.00  0.00    +0.000 A 
ATOM     19  C   UNL     1       0.018  10.673  21.944  0.00  0.00    +0.000 A 
ATOM     20  O   UNL     1       0.806  10.190  20.928  0.00  0.00    +0.000 OA
BRANCH  19  21
ATOM     21  C   UNL     1      -0.407  12.096  21.896  0.00  0.00    +0.000 C 
BRANCH  21  22
ATOM     22  O   UNL     1      -1.660  12.177  21.216  0.00  0.00    +0.000 OA
BRANCH  22  23
ATOM     23  C   UNL     1      -2.747  12.433  22.016  0.00  0.00    +0.000 A 
ATOM     24  C   UNL     1      -2.768  12.333  23.413  0.00  0.00    +0.000 A 
ATOM     25  C   UNL     1      -3.929  12.638  24.127  0.00  0.00    +0.000 A 
ATOM     26  C   UNL     1      -5.069  13.041  23.445  0.00  0.00    +0.000 A 
ATOM     27  F   UNL     1      -6.175  13.348  24.136  0.00  0.00    +0.000 F 
ATOM     28  C   UNL     1      -5.073  13.135  22.059  0.00  0.00    +0.000 A 
ATOM     29  C   UNL     1      -3.910  12.830  21.344  0.00  0.00    +0.000 A 
ENDBRANCH  22  23
ENDBRANCH  21  22
ENDBRANCH  19  21
ENDBRANCH   2  16
TORSDOF 6
ENDMDL
MODEL 8
REMARK VINA RESULT:      -8.1      2.963      3.540
REMARK  Name = 
REMARK  6 active torsions:
REMARK  status: ('A' for Active; 'I' for Inactive)
REMARK    1  A    between atoms: C_2  and  C_15
REMARK    2  A    between atoms: N_3  and  C_4
REMARK    3  A    between atoms: C_8  and  N_9
REMARK    4  A    between atoms: C_18  and  C_19
REMARK    5  A    between atoms: C_19  and  O_20
REMARK    6  A    between atoms: O_20  and  C_21
REMARK                            x       y       z     vdW  Elec       q    Type
REMARK                         _______ _______ _______ _____ _____    ______ ____
ROOT
ATOM      1  O   UNL     1       2.112   7.739  18.238  0.00  0.00    +0.000 OA
ATOM      2  C   UNL     1       1.996   7.769  19.464  0.00  0.00    +0.000 C 
ATOM      3  N   UNL     1       2.376   6.731  20.303  0.00  0.00    +0.000 N 
ATOM      4  H   UNL     1       2.104   6.821  21.278  0.00  0.00    +0.000 HD
ENDROOT
BRANCH   3   5
ATOM      5  C   UNL     1       2.995   5.530  19.879  0.00  0.00    +0.000 A 
ATOM      6  C   UNL     1       2.452   4.268  20.160  0.00  0.00    +0.000 A 
ATOM      7  C   UNL     1       3.079   3.091  19.764  0.00  0.00    +0.000 A 
ATOM      8  C   UNL     1       4.256   3.153  19.038  0.00  0.00    +0.000 A 
ATOM      9  C   UNL     1       4.806   4.399  18.707  0.00  0.00    +0.000 A 
ATOM     10  C   UNL     1       4.184   5.590  19.140  0.00  0.00    +0.000 A 
BRANCH   9  11
ATOM     11  N   UNL     1       5.979   4.444  17.920  0.00  0.00    +0.000 N 
ATOM     12  C   UNL     1       6.093   4.499  16.551  0.00  0.00    +0.000 A 
ATOM     13  N   UNL     1       7.363   4.529  16.222  0.00  0.00    +0.000 NA
ATOM     14  N   UNL     1       8.051   4.507  17.404  0.00  0.00    +0.000 NA
ATOM     15  N   UNL     1       7.225   4.469  18.443  0.00  0.00    +0.000 NA
ENDBRANCH   9  11
ENDBRANCH   3   5
BRANCH   2  16
ATOM     16  C   UNL     1       1.391   8.928  20.085  0.00  0.00    +0.000 A 
ATOM     17  C   UNL     1       0.962   9.045  21.394  0.00  0.00    +0.000 A 
ATOM     18  C   UNL     1       0.377  10.315  21.524  0.00  0.00    +0.000 A 
ATOM     19  C   UNL     1       0.470  10.914  20.285  0.00  0.00    +0.000 A 
ATOM     20  O   UNL     1       1.107  10.081  19.398  0.00  0.00    +0.000 OA
BRANCH  19  21
ATOM     21  C   UNL     1      -0.092  12.193  19.778  0.00  0.00    +0.000 C 
BRANCH  21  22
ATOM     22  O   UNL     1      -1.485  12.237  20.089  0.00  0.00    +0.000 OA
BRANCH  22  23
ATOM     23  C   UNL     1      -2.327  11.893  19.061  0.00  0.00    +0.000 A 
ATOM     24  C   UNL     1      -3.727  11.936  19.110  0.00  0.00    +0.000 A 
ATOM     25  C   UNL     1      -4.485  11.581  17.991  0.00  0.00    +0.000 A 
ATOM     26  C   UNL     1      -3.845  11.181  16.826  0.00  0.00    +0.000 A 
ATOM     27  F   UNL     1      -4.576  10.858  15.752  0.00  0.00    +0.000 F 
ATOM     28  C   UNL     1      -2.459  11.120  16.761  0.00  0.00    +0.000 A 
ATOM     29  C   UNL     1      -1.700  11.476  17.881  0.00  0.00    +0.000 A 
ENDBRANCH  22  23
ENDBRANCH  21  22
ENDBRANCH  19  21
ENDBRANCH   2  16
TORSDOF 6
ENDMDL
MODEL 9
REMARK VINA RESULT:      -8.1      0.980      1.387
REMARK  Name = 
REMARK  6 active torsions:
REMARK  status: ('A' for Active; 'I' for Inactive)
REMARK    1  A    between atoms: C_2  and  C_15
REMARK    2  A    between atoms: N_3  and  C_4
REMARK    3  A    between atoms: C_8  and  N_9
REMARK    4  A    between atoms: C_18  and  C_19
REMARK    5  A    between atoms: C_19  and  O_20
REMARK    6  A    between atoms: O_20  and  C_21
REMARK                            x       y       z     vdW  Elec       q    Type
REMARK                         _______ _______ _______ _____ _____    ______ ____
ROOT
ATOM      1  O   UNL     1       1.992   8.490  18.084  0.00  0.00    +0.000 OA
ATOM      2  C   UNL     1       1.871   8.031  19.221  0.00  0.00    +0.000 C 
ATOM      3  N   UNL     1       2.154   6.715  19.558  0.00  0.00    +0.000 N 
ATOM      4  H   UNL     1       1.885   6.425  20.494  0.00  0.00    +0.000 HD
ENDROOT
BRANCH   3   5
ATOM      5  C   UNL     1       2.668   5.742  18.667  0.00  0.00    +0.000 A 
ATOM      6  C   UNL     1       1.930   4.611  18.285  0.00  0.00    +0.000 A 
ATOM      7  C   UNL     1       2.451   3.645  17.431  0.00  0.00    +0.000 A 
ATOM      8  C   UNL     1       3.720   3.808  16.905  0.00  0.00    +0.000 A 
ATOM      9  C   UNL     1       4.471   4.946  17.235  0.00  0.00    +0.000 A 
ATOM     10  C   UNL     1       3.951   5.907  18.129  0.00  0.00    +0.000 A 
BRANCH   9  11
ATOM     11  N   UNL     1       5.743   5.123  16.647  0.00  0.00    +0.000 N 
ATOM     12  C   UNL     1       6.601   4.169  16.154  0.00  0.00    +0.000 A 
ATOM     13  N   UNL     1       7.682   4.754  15.692  0.00  0.00    +0.000 NA
ATOM     14  N   UNL     1       7.487   6.094  15.886  0.00  0.00    +0.000 NA
ATOM     15  N   UNL     1       6.311   6.334  16.452  0.00  0.00    +0.000 NA
ENDBRANCH   9  11
ENDBRANCH   3   5
BRANCH   2  16
ATOM     16  C   UNL     1       1.367   8.885  20.274  0.00  0.00    +0.000 A 
ATOM     17  C   UNL     1       1.056   8.517  21.571  0.00  0.00    +0.000 A 
ATOM     18  C   UNL     1       0.533   9.654  22.207  0.00  0.00    +0.000 A 
ATOM     19  C   UNL     1       0.544  10.665  21.269  0.00  0.00    +0.000 A 
ATOM     20  O   UNL     1       1.071  10.212  20.084  0.00  0.00    +0.000 OA
BRANCH  19  21
ATOM     21  C   UNL     1      -0.009  12.043  21.317  0.00  0.00    +0.000 C 
BRANCH  21  22
ATOM     22  O   UNL     1      -1.426  11.964  21.478  0.00  0.00    +0.000 OA
BRANCH  22  23
ATOM     23  C   UNL     1      -1.942  12.705  22.512  0.00  0.00    +0.000 A 
ATOM     24  C   UNL     1      -3.183  12.491  23.124  0.00  0.00    +0.000 A 
ATOM     25  C   UNL     1      -3.598  13.298  24.186  0.00  0.00    +0.000 A 
ATOM     26  C   UNL     1      -2.773  14.321  24.635  0.00  0.00    +0.000 A 
ATOM     27  F   UNL     1      -3.168  15.082  25.663  0.00  0.00    +0.000 F 
ATOM     28  C   UNL     1      -1.543  14.558  24.034  0.00  0.00    +0.000 A 
ATOM     29  C   UNL     1      -1.128  13.749  22.971  0.00  0.00    +0.000 A 
ENDBRANCH  22  23
ENDBRANCH  21  22
ENDBRANCH  19  21
ENDBRANCH   2  16
TORSDOF 6
ENDMDL
