MODEL 1
REMARK VINA RESULT:      -7.4      0.000      0.000
REMARK  Name = 
REMARK  7 active torsions:
REMARK  status: ('A' for Active; 'I' for Inactive)
REMARK    1  A    between atoms: N_6  and  C_7
REMARK    2  A    between atoms: C_7  and  C_8
REMARK    3  A    between atoms: C_16  and  C_17
REMARK    4  A    between atoms: C_17  and  C_18
REMARK    5  A    between atoms: C_18  and  C_19
REMARK    6  A    between atoms: N_27  and  C_28
REMARK    7  A    between atoms: C_28  and  C_29
REMARK                            x       y       z     vdW  Elec       q    Type
REMARK                         _______ _______ _______ _____ _____    ______ ____
ROOT
ATOM      1  O   UNL     1      -0.125  10.046  17.858  0.00  0.00    +0.000 OA
ATOM      2  C   UNL     1      -1.288  10.432  17.952  0.00  0.00    +0.000 A 
ATOM      3  N   UNL     1      -2.196  10.025  17.028  0.00  0.00    +0.000 N 
ATOM      4  C   UNL     1      -3.418  10.584  16.826  0.00  0.00    +0.000 A 
ATOM      5  O   UNL     1      -4.042  10.293  15.808  0.00  0.00    +0.000 OA
ATOM      6  N   UNL     1      -3.851  11.463  17.800  0.00  0.00    +0.000 N 
ATOM      7  C   UNL     1      -3.045  11.846  18.872  0.00  0.00    +0.000 A 
ATOM      8  N   UNL     1      -3.611  12.723  19.772  0.00  0.00    +0.000 NA
ATOM      9  C   UNL     1      -2.833  13.265  20.665  0.00  0.00    +0.000 A 
ATOM     10  C   UNL     1      -1.343  12.981  20.732  0.00  0.00    +0.000 A 
ATOM     11  O   UNL     1      -0.635  13.749  21.365  0.00  0.00    +0.000 OA
ATOM     12  N   UNL     1      -0.936  11.851  20.031  0.00  0.00    +0.000 N 
ATOM     13  C   UNL     1      -1.778  11.384  19.006  0.00  0.00    +0.000 A 
ATOM     14  H   UNL     1      -1.855   9.429  16.289  0.00  0.00    +0.000 HD
ENDROOT
BRANCH   6  15
ATOM     15  C   UNL     1      -5.199  12.025  17.634  0.00  0.00    +0.000 C 
BRANCH  15  16
ATOM     16  C   UNL     1      -6.160  11.629  18.735  0.00  0.00    +0.000 A 
ATOM     17  C   UNL     1      -6.777  12.596  19.543  0.00  0.00    +0.000 A 
ATOM     18  C   UNL     1      -7.627  12.216  20.583  0.00  0.00    +0.000 A 
ATOM     19  C   UNL     1      -7.884  10.868  20.818  0.00  0.00    +0.000 A 
ATOM     20  C   UNL     1      -7.308   9.899  20.001  0.00  0.00    +0.000 A 
ATOM     21  C   UNL     1      -6.454  10.277  18.963  0.00  0.00    +0.000 A 
ENDBRANCH  15  16
ENDBRANCH   6  15
BRANCH   9  22
ATOM     22  C   UNL     1      -3.354  14.282  21.661  0.00  0.00    +0.000 C 
BRANCH  22  23
ATOM     23  C   UNL     1      -3.646  13.703  23.042  0.00  0.00    +0.000 C 
BRANCH  23  24
ATOM     24  C   UNL     1      -5.114  13.840  23.382  0.00  0.00    +0.000 A 
ATOM     25  C   UNL     1      -5.744  15.089  23.301  0.00  0.00    +0.000 A 
ATOM     26  C   UNL     1      -7.089  15.226  23.647  0.00  0.00    +0.000 A 
ATOM     27  C   UNL     1      -7.817  14.119  24.082  0.00  0.00    +0.000 A 
ATOM     28  C   UNL     1      -7.197  12.876  24.177  0.00  0.00    +0.000 A 
ATOM     29  C   UNL     1      -5.850  12.736  23.830  0.00  0.00    +0.000 A 
ENDBRANCH  23  24
ENDBRANCH  22  23
ENDBRANCH   9  22
BRANCH  12  30
ATOM     30  C   UNL     1       0.443  11.345  20.183  0.00  0.00    +0.000 C 
BRANCH  30  31
ATOM     31  C   UNL     1       0.724  10.325  21.302  0.00  0.00    +0.000 C 
ATOM     32  C   UNL     1      -0.049   9.028  21.105  0.00  0.00    +0.000 C 
ATOM     33  C   UNL     1      -0.118   8.487  22.511  0.00  0.00    +0.000 C 
ATOM     34  C   UNL     1      -0.233   9.744  23.349  0.00  0.00    +0.000 C 
ATOM     35  O   UNL     1       0.294  10.835  22.578  0.00  0.00    +0.000 OA
ENDBRANCH  30  31
ENDBRANCH  12  30
TORSDOF 7
ENDMDL
MODEL 2
REMARK VINA RESULT:      -7.2      7.289     10.809
REMARK  Name = 
REMARK  7 active torsions:
REMARK  status: ('A' for Active; 'I' for Inactive)
REMARK    1  A    between atoms: N_6  and  C_7
REMARK    2  A    between atoms: C_7  and  C_8
REMARK    3  A    between atoms: C_16  and  C_17
REMARK    4  A    between atoms: C_17  and  C_18
REMARK    5  A    between atoms: C_18  and  C_19
REMARK    6  A    between atoms: N_27  and  C_28
REMARK    7  A    between atoms: C_28  and  C_29
REMARK                            x       y       z     vdW  Elec       q    Type
REMARK                         _______ _______ _______ _____ _____    ______ ____
ROOT
ATOM      1  O   UNL     1       5.216   3.553  20.426  0.00  0.00    +0.000 OA
ATOM      2  C   UNL     1       5.317   4.115  19.339  0.00  0.00    +0.000 A 
ATOM      3  N   UNL     1       6.369   3.814  18.534  0.00  0.00    +0.000 N 
ATOM      4  C   UNL     1       6.775   4.544  17.463  0.00  0.00    +0.000 A 
ATOM      5  O   UNL     1       7.876   4.311  16.968  0.00  0.00    +0.000 OA
ATOM      6  N   UNL     1       5.898   5.518  17.026  0.00  0.00    +0.000 N 
ATOM      7  C   UNL     1       4.716   5.816  17.704  0.00  0.00    +0.000 A 
ATOM      8  N   UNL     1       3.932   6.806  17.147  0.00  0.00    +0.000 NA
ATOM      9  C   UNL     1       2.935   7.258  17.851  0.00  0.00    +0.000 A 
ATOM     10  C   UNL     1       2.623   6.753  19.249  0.00  0.00    +0.000 A 
ATOM     11  O   UNL     1       1.896   7.430  19.960  0.00  0.00    +0.000 OA
ATOM     12  N   UNL     1       3.231   5.547  19.578  0.00  0.00    +0.000 N 
ATOM     13  C   UNL     1       4.371   5.172  18.845  0.00  0.00    +0.000 A 
ATOM     14  H   UNL     1       7.034   3.143  18.890  0.00  0.00    +0.000 HD
ENDROOT
BRANCH   6  15
ATOM     15  C   UNL     1       6.288   6.271  15.826  0.00  0.00    +0.000 C 
BRANCH  15  16
ATOM     16  C   UNL     1       6.398   5.415  14.581  0.00  0.00    +0.000 A 
ATOM     17  C   UNL     1       5.425   4.452  14.275  0.00  0.00    +0.000 A 
ATOM     18  C   UNL     1       5.561   3.638  13.148  0.00  0.00    +0.000 A 
ATOM     19  C   UNL     1       6.660   3.790  12.306  0.00  0.00    +0.000 A 
ATOM     20  C   UNL     1       7.613   4.767  12.577  0.00  0.00    +0.000 A 
ATOM     21  C   UNL     1       7.482   5.577  13.707  0.00  0.00    +0.000 A 
ENDBRANCH  15  16
ENDBRANCH   6  15
BRANCH   9  22
ATOM     22  C   UNL     1       2.051   8.382  17.347  0.00  0.00    +0.000 C 
BRANCH  22  23
ATOM     23  C   UNL     1       2.309   9.725  18.023  0.00  0.00    +0.000 C 
BRANCH  23  24
ATOM     24  C   UNL     1       1.028  10.296  18.589  0.00  0.00    +0.000 A 
ATOM     25  C   UNL     1      -0.203  10.002  17.988  0.00  0.00    +0.000 A 
ATOM     26  C   UNL     1      -1.383  10.555  18.488  0.00  0.00    +0.000 A 
ATOM     27  C   UNL     1      -1.346  11.410  19.588  0.00  0.00    +0.000 A 
ATOM     28  C   UNL     1      -0.127  11.716  20.186  0.00  0.00    +0.000 A 
ATOM     29  C   UNL     1       1.057  11.164  19.689  0.00  0.00    +0.000 A 
ENDBRANCH  23  24
ENDBRANCH  22  23
ENDBRANCH   9  22
BRANCH  12  30
ATOM     30  C   UNL     1       2.850   4.843  20.819  0.00  0.00    +0.000 C 
BRANCH  30  31
ATOM     31  C   UNL     1       1.777   3.743  20.731  0.00  0.00    +0.000 C 
ATOM     32  C   UNL     1       2.363   2.400  20.313  0.00  0.00    +0.000 C 
ATOM     33  C   UNL     1       1.163   1.706  19.720  0.00  0.00    +0.000 C 
ATOM     34  C   UNL     1       0.399   2.845  19.076  0.00  0.00    +0.000 C 
ATOM     35  O   UNL     1       0.798   4.062  19.724  0.00  0.00    +0.000 OA
ENDBRANCH  30  31
ENDBRANCH  12  30
TORSDOF 7
ENDMDL
MODEL 3
REMARK VINA RESULT:      -7.2      1.222      1.595
REMARK  Name = 
REMARK  7 active torsions:
REMARK  status: ('A' for Active; 'I' for Inactive)
REMARK    1  A    between atoms: N_6  and  C_7
REMARK    2  A    between atoms: C_7  and  C_8
REMARK    3  A    between atoms: C_16  and  C_17
REMARK    4  A    between atoms: C_17  and  C_18
REMARK    5  A    between atoms: C_18  and  C_19
REMARK    6  A    between atoms: N_27  and  C_28
REMARK    7  A    between atoms: C_28  and  C_29
REMARK                            x       y       z     vdW  Elec       q    Type
REMARK                         _______ _______ _______ _____ _____    ______ ____
ROOT
ATOM      1  O   UNL     1      -0.337  10.070  17.462  0.00  0.00    +0.000 OA
ATOM      2  C   UNL     1      -1.412  10.516  17.854  0.00  0.00    +0.000 A 
ATOM      3  N   UNL     1      -2.477  10.514  17.011  0.00  0.00    +0.000 N 
ATOM      4  C   UNL     1      -3.622  11.224  17.187  0.00  0.00    +0.000 A 
ATOM      5  O   UNL     1      -4.403  11.334  16.244  0.00  0.00    +0.000 OA
ATOM      6  N   UNL     1      -3.802  11.784  18.437  0.00  0.00    +0.000 N 
ATOM      7  C   UNL     1      -2.823  11.725  19.429  0.00  0.00    +0.000 A 
ATOM      8  N   UNL     1      -3.144  12.320  20.632  0.00  0.00    +0.000 NA
ATOM      9  C   UNL     1      -2.192  12.472  21.507  0.00  0.00    +0.000 A 
ATOM     10  C   UNL     1      -0.761  12.039  21.243  0.00  0.00    +0.000 A 
ATOM     11  O   UNL     1       0.123  12.493  21.955  0.00  0.00    +0.000 OA
ATOM     12  N   UNL     1      -0.608  11.158  20.179  0.00  0.00    +0.000 N 
ATOM     13  C   UNL     1      -1.628  11.125  19.211  0.00  0.00    +0.000 A 
ATOM     14  H   UNL     1      -2.317  10.155  16.082  0.00  0.00    +0.000 HD
ENDROOT
BRANCH   6  15
ATOM     15  C   UNL     1      -5.067  12.496  18.669  0.00  0.00    +0.000 C 
BRANCH  15  16
ATOM     16  C   UNL     1      -6.085  11.686  19.445  0.00  0.00    +0.000 A 
ATOM     17  C   UNL     1      -6.737  12.222  20.565  0.00  0.00    +0.000 A 
ATOM     18  C   UNL     1      -7.640  11.451  21.298  0.00  0.00    +0.000 A 
ATOM     19  C   UNL     1      -7.916  10.142  20.910  0.00  0.00    +0.000 A 
ATOM     20  C   UNL     1      -7.305   9.610  19.778  0.00  0.00    +0.000 A 
ATOM     21  C   UNL     1      -6.397  10.378  19.048  0.00  0.00    +0.000 A 
ENDBRANCH  15  16
ENDBRANCH   6  15
BRANCH   9  22
ATOM     22  C   UNL     1      -2.435  13.162  22.834  0.00  0.00    +0.000 C 
BRANCH  22  23
ATOM     23  C   UNL     1      -3.451  12.455  23.724  0.00  0.00    +0.000 C 
BRANCH  23  24
ATOM     24  C   UNL     1      -4.785  13.168  23.690  0.00  0.00    +0.000 A 
ATOM     25  C   UNL     1      -4.893  14.436  23.104  0.00  0.00    +0.000 A 
ATOM     26  C   UNL     1      -6.114  15.112  23.101  0.00  0.00    +0.000 A 
ATOM     27  C   UNL     1      -7.238  14.531  23.688  0.00  0.00    +0.000 A 
ATOM     28  C   UNL     1      -7.138  13.276  24.282  0.00  0.00    +0.000 A 
ATOM     29  C   UNL     1      -5.917  12.597  24.286  0.00  0.00    +0.000 A 
ENDBRANCH  23  24
ENDBRANCH  22  23
ENDBRANCH   9  22
BRANCH  12  30
ATOM     30  C   UNL     1       0.693  10.500  19.946  0.00  0.00    +0.000 C 
BRANCH  30  31
ATOM     31  C   UNL     1       0.744   8.961  19.970  0.00  0.00    +0.000 C 
ATOM     32  C   UNL     1       1.168   8.420  21.329  0.00  0.00    +0.000 C 
ATOM     33  C   UNL     1       1.724   7.066  20.968  0.00  0.00    +0.000 C 
ATOM     34  C   UNL     1       2.355   7.311  19.613  0.00  0.00    +0.000 C 
ATOM     35  O   UNL     1       1.727   8.468  19.040  0.00  0.00    +0.000 OA
ENDBRANCH  30  31
ENDBRANCH  12  30
TORSDOF 7
ENDMDL
MODEL 4
REMARK VINA RESULT:      -7.1      7.285     10.815
REMARK  Name = 
REMARK  7 active torsions:
REMARK  status: ('A' for Active; 'I' for Inactive)
REMARK    1  A    between atoms: N_6  and  C_7
REMARK    2  A    between atoms: C_7  and  C_8
REMARK    3  A    between atoms: C_16  and  C_17
REMARK    4  A    between atoms: C_17  and  C_18
REMARK    5  A    between atoms: C_18  and  C_19
REMARK    6  A    between atoms: N_27  and  C_28
REMARK    7  A    between atoms: C_28  and  C_29
REMARK                            x       y       z     vdW  Elec       q    Type
REMARK                         _______ _______ _______ _____ _____    ______ ____
ROOT
ATOM      1  O   UNL     1       5.041   3.517  20.403  0.00  0.00    +0.000 OA
ATOM      2  C   UNL     1       5.210   4.100  19.336  0.00  0.00    +0.000 A 
ATOM      3  N   UNL     1       6.276   3.769  18.562  0.00  0.00    +0.000 N 
ATOM      4  C   UNL     1       6.756   4.505  17.526  0.00  0.00    +0.000 A 
ATOM      5  O   UNL     1       7.863   4.231  17.066  0.00  0.00    +0.000 OA
ATOM      6  N   UNL     1       5.943   5.530  17.083  0.00  0.00    +0.000 N 
ATOM      7  C   UNL     1       4.752   5.869  17.725  0.00  0.00    +0.000 A 
ATOM      8  N   UNL     1       4.038   6.908  17.167  0.00  0.00    +0.000 NA
ATOM      9  C   UNL     1       3.037   7.391  17.845  0.00  0.00    +0.000 A 
ATOM     10  C   UNL     1       2.649   6.867  19.217  0.00  0.00    +0.000 A 
ATOM     11  O   UNL     1       1.928   7.560  19.919  0.00  0.00    +0.000 OA
ATOM     12  N   UNL     1       3.186   5.625  19.536  0.00  0.00    +0.000 N 
ATOM     13  C   UNL     1       4.334   5.214  18.835  0.00  0.00    +0.000 A 
ATOM     14  H   UNL     1       6.895   3.059  18.924  0.00  0.00    +0.000 HD
ENDROOT
BRANCH   6  15
ATOM     15  C   UNL     1       6.414   6.294  15.919  0.00  0.00    +0.000 C 
BRANCH  15  16
ATOM     16  C   UNL     1       6.533   5.464  14.658  0.00  0.00    +0.000 A 
ATOM     17  C   UNL     1       7.595   5.654  13.761  0.00  0.00    +0.000 A 
ATOM     18  C   UNL     1       7.671   4.913  12.580  0.00  0.00    +0.000 A 
ATOM     19  C   UNL     1       6.695   3.961  12.290  0.00  0.00    +0.000 A 
ATOM     20  C   UNL     1       5.657   3.735  13.189  0.00  0.00    +0.000 A 
ATOM     21  C   UNL     1       5.577   4.480  14.367  0.00  0.00    +0.000 A 
ENDBRANCH  15  16
ENDBRANCH   6  15
BRANCH   9  22
ATOM     22  C   UNL     1       2.227   8.568  17.339  0.00  0.00    +0.000 C 
BRANCH  22  23
ATOM     23  C   UNL     1       2.451   9.857  18.122  0.00  0.00    +0.000 C 
BRANCH  23  24
ATOM     24  C   UNL     1       1.144  10.587  18.341  0.00  0.00    +0.000 A 
ATOM     25  C   UNL     1       1.144  11.925  18.754  0.00  0.00    +0.000 A 
ATOM     26  C   UNL     1      -0.060  12.592  18.991  0.00  0.00    +0.000 A 
ATOM     27  C   UNL     1      -1.274  11.928  18.822  0.00  0.00    +0.000 A 
ATOM     28  C   UNL     1      -1.284  10.594  18.422  0.00  0.00    +0.000 A 
ATOM     29  C   UNL     1      -0.080   9.924  18.183  0.00  0.00    +0.000 A 
ENDBRANCH  23  24
ENDBRANCH  22  23
ENDBRANCH   9  22
BRANCH  12  30
ATOM     30  C   UNL     1       2.726   4.910  20.743  0.00  0.00    +0.000 C 
BRANCH  30  31
ATOM     31  C   UNL     1       1.586   3.887  20.592  0.00  0.00    +0.000 C 
ATOM     32  C   UNL     1       2.086   2.451  20.678  0.00  0.00    +0.000 C 
ATOM     33  C   UNL     1       1.014   1.700  19.929  0.00  0.00    +0.000 C 
ATOM     34  C   UNL     1       0.607   2.681  18.850  0.00  0.00    +0.000 C 
ATOM     35  O   UNL     1       0.968   3.997  19.296  0.00  0.00    +0.000 OA
ENDBRANCH  30  31
ENDBRANCH  12  30
TORSDOF 7
ENDMDL
MODEL 5
REMARK VINA RESULT:      -7.0      0.786      1.425
REMARK  Name = 
REMARK  7 active torsions:
REMARK  status: ('A' for Active; 'I' for Inactive)
REMARK    1  A    between atoms: N_6  and  C_7
REMARK    2  A    between atoms: C_7  and  C_8
REMARK    3  A    between atoms: C_16  and  C_17
REMARK    4  A    between atoms: C_17  and  C_18
REMARK    5  A    between atoms: C_18  and  C_19
REMARK    6  A    between atoms: N_27  and  C_28
REMARK    7  A    between atoms: C_28  and  C_29
REMARK                            x       y       z     vdW  Elec       q    Type
REMARK                         _______ _______ _______ _____ _____    ______ ____
ROOT
ATOM      1  O   UNL     1       0.187   9.755  17.846  0.00  0.00    +0.000 OA
ATOM      2  C   UNL     1      -0.963  10.185  17.841  0.00  0.00    +0.000 A 
ATOM      3  N   UNL     1      -1.845   9.707  16.926  0.00  0.00    +0.000 N 
ATOM      4  C   UNL     1      -3.035  10.279  16.605  0.00  0.00    +0.000 A 
ATOM      5  O   UNL     1      -3.624   9.897  15.596  0.00  0.00    +0.000 OA
ATOM      6  N   UNL     1      -3.477  11.274  17.455  0.00  0.00    +0.000 N 
ATOM      7  C   UNL     1      -2.705  11.748  18.516  0.00  0.00    +0.000 A 
ATOM      8  N   UNL     1      -3.278  12.738  19.286  0.00  0.00    +0.000 NA
ATOM      9  C   UNL     1      -2.521  13.351  20.150  0.00  0.00    +0.000 A 
ATOM     10  C   UNL     1      -1.046  13.029  20.318  0.00  0.00    +0.000 A 
ATOM     11  O   UNL     1      -0.339  13.840  20.897  0.00  0.00    +0.000 OA
ATOM     12  N   UNL     1      -0.651  11.815  19.767  0.00  0.00    +0.000 N 
ATOM     13  C   UNL     1      -1.464  11.264  18.760  0.00  0.00    +0.000 A 
ATOM     14  H   UNL     1      -1.493   9.022  16.274  0.00  0.00    +0.000 HD
ENDROOT
BRANCH   6  15
ATOM     15  C   UNL     1      -4.795  11.857  17.164  0.00  0.00    +0.000 C 
BRANCH  15  16
ATOM     16  C   UNL     1      -5.816  11.622  18.258  0.00  0.00    +0.000 A 
ATOM     17  C   UNL     1      -6.085  10.331  18.735  0.00  0.00    +0.000 A 
ATOM     18  C   UNL     1      -7.060  10.123  19.712  0.00  0.00    +0.000 A 
ATOM     19  C   UNL     1      -7.765  11.204  20.237  0.00  0.00    +0.000 A 
ATOM     20  C   UNL     1      -7.482  12.495  19.800  0.00  0.00    +0.000 A 
ATOM     21  C   UNL     1      -6.511  12.704  18.818  0.00  0.00    +0.000 A 
ENDBRANCH  15  16
ENDBRANCH   6  15
BRANCH   9  22
ATOM     22  C   UNL     1      -3.046  14.489  21.003  0.00  0.00    +0.000 C 
BRANCH  22  23
ATOM     23  C   UNL     1      -4.551  14.439  21.243  0.00  0.00    +0.000 C 
BRANCH  23  24
ATOM     24  C   UNL     1      -4.869  13.653  22.497  0.00  0.00    +0.000 A 
ATOM     25  C   UNL     1      -6.200  13.431  22.872  0.00  0.00    +0.000 A 
ATOM     26  C   UNL     1      -6.498  12.736  24.045  0.00  0.00    +0.000 A 
ATOM     27  C   UNL     1      -5.469  12.262  24.859  0.00  0.00    +0.000 A 
ATOM     28  C   UNL     1      -4.143  12.487  24.500  0.00  0.00    +0.000 A 
ATOM     29  C   UNL     1      -3.842  13.182  23.325  0.00  0.00    +0.000 A 
ENDBRANCH  23  24
ENDBRANCH  22  23
ENDBRANCH   9  22
BRANCH  12  30
ATOM     30  C   UNL     1       0.700  11.286  20.039  0.00  0.00    +0.000 C 
BRANCH  30  31
ATOM     31  C   UNL     1       0.901  10.418  21.294  0.00  0.00    +0.000 C 
ATOM     32  C   UNL     1       0.366   9.004  21.108  0.00  0.00    +0.000 C 
ATOM     33  C   UNL     1       0.106   8.577  22.531  0.00  0.00    +0.000 C 
ATOM     34  C   UNL     1      -0.337   9.866  23.193  0.00  0.00    +0.000 C 
ATOM     35  O   UNL     1       0.172  10.957  22.412  0.00  0.00    +0.000 OA
ENDBRANCH  30  31
ENDBRANCH  12  30
TORSDOF 7
ENDMDL
MODEL 6
REMARK VINA RESULT:      -7.0      3.429      7.053
REMARK  Name = 
REMARK  7 active torsions:
REMARK  status: ('A' for Active; 'I' for Inactive)
REMARK    1  A    between atoms: N_6  and  C_7
REMARK    2  A    between atoms: C_7  and  C_8
REMARK    3  A    between atoms: C_16  and  C_17
REMARK    4  A    between atoms: C_17  and  C_18
REMARK    5  A    between atoms: C_18  and  C_19
REMARK    6  A    between atoms: N_27  and  C_28
REMARK    7  A    between atoms: C_28  and  C_29
REMARK                            x       y       z     vdW  Elec       q    Type
REMARK                         _______ _______ _______ _____ _____    ______ ____
ROOT
ATOM      1  O   UNL     1       1.291  17.331  21.934  0.00  0.00    +0.000 OA
ATOM      2  C   UNL     1       0.590  16.334  22.087  0.00  0.00    +0.000 A 
ATOM      3  N   UNL     1      -0.113  16.190  23.240  0.00  0.00    +0.000 N 
ATOM      4  C   UNL     1      -0.684  15.036  23.676  0.00  0.00    +0.000 A 
ATOM      5  O   UNL     1      -1.076  14.970  24.839  0.00  0.00    +0.000 OA
ATOM      6  N   UNL     1      -0.760  14.012  22.752  0.00  0.00    +0.000 N 
ATOM      7  C   UNL     1      -0.188  14.106  21.483  0.00  0.00    +0.000 A 
ATOM      8  N   UNL     1      -0.349  13.009  20.663  0.00  0.00    +0.000 NA
ATOM      9  C   UNL     1       0.339  12.969  19.559  0.00  0.00    +0.000 A 
ATOM     10  C   UNL     1       1.312  14.066  19.161  0.00  0.00    +0.000 A 
ATOM     11  O   UNL     1       2.143  13.818  18.300  0.00  0.00    +0.000 OA
ATOM     12  N   UNL     1       1.152  15.262  19.852  0.00  0.00    +0.000 N 
ATOM     13  C   UNL     1       0.492  15.212  21.093  0.00  0.00    +0.000 A 
ATOM     14  H   UNL     1      -0.005  16.917  23.930  0.00  0.00    +0.000 HD
ENDROOT
BRANCH   6  15
ATOM     15  C   UNL     1      -1.436  12.780  23.182  0.00  0.00    +0.000 C 
BRANCH  15  16
ATOM     16  C   UNL     1      -2.943  12.835  23.043  0.00  0.00    +0.000 A 
ATOM     17  C   UNL     1      -3.775  12.898  24.171  0.00  0.00    +0.000 A 
ATOM     18  C   UNL     1      -5.164  12.904  24.030  0.00  0.00    +0.000 A 
ATOM     19  C   UNL     1      -5.738  12.866  22.761  0.00  0.00    +0.000 A 
ATOM     20  C   UNL     1      -4.924  12.842  21.632  0.00  0.00    +0.000 A 
ATOM     21  C   UNL     1      -3.535  12.830  21.771  0.00  0.00    +0.000 A 
ENDBRANCH  15  16
ENDBRANCH   6  15
BRANCH   9  22
ATOM     22  C   UNL     1       0.270  11.781  18.620  0.00  0.00    +0.000 C 
BRANCH  22  23
ATOM     23  C   UNL     1      -0.742  10.719  19.039  0.00  0.00    +0.000 C 
BRANCH  23  24
ATOM     24  C   UNL     1      -1.923  10.700  18.093  0.00  0.00    +0.000 A 
ATOM     25  C   UNL     1      -1.901   9.888  16.952  0.00  0.00    +0.000 A 
ATOM     26  C   UNL     1      -2.974   9.893  16.060  0.00  0.00    +0.000 A 
ATOM     27  C   UNL     1      -4.077  10.714  16.294  0.00  0.00    +0.000 A 
ATOM     28  C   UNL     1      -4.103  11.533  17.420  0.00  0.00    +0.000 A 
ATOM     29  C   UNL     1      -3.031  11.529  18.316  0.00  0.00    +0.000 A 
ENDBRANCH  23  24
ENDBRANCH  22  23
ENDBRANCH   9  22
BRANCH  12  30
ATOM     30  C   UNL     1       1.888  16.467  19.422  0.00  0.00    +0.000 C 
BRANCH  30  31
ATOM     31  C   UNL     1       1.094  17.604  18.754  0.00  0.00    +0.000 C 
ATOM     32  C   UNL     1      -0.212  17.113  18.144  0.00  0.00    +0.000 C 
ATOM     33  C   UNL     1      -0.479  18.158  17.090  0.00  0.00    +0.000 C 
ATOM     34  C   UNL     1       0.914  18.519  16.615  0.00  0.00    +0.000 C 
ATOM     35  O   UNL     1       1.837  18.171  17.658  0.00  0.00    +0.000 OA
ENDBRANCH  30  31
ENDBRANCH  12  30
TORSDOF 7
ENDMDL
MODEL 7
REMARK VINA RESULT:      -6.8      1.229      1.770
REMARK  Name = 
REMARK  7 active torsions:
REMARK  status: ('A' for Active; 'I' for Inactive)
REMARK    1  A    between atoms: N_6  and  C_7
REMARK    2  A    between atoms: C_7  and  C_8
REMARK    3  A    between atoms: C_16  and  C_17
REMARK    4  A    between atoms: C_17  and  C_18
REMARK    5  A    between atoms: C_18  and  C_19
REMARK    6  A    between atoms: N_27  and  C_28
REMARK    7  A    between atoms: C_28  and  C_29
REMARK                            x       y       z     vdW  Elec       q    Type
REMARK                         _______ _______ _______ _____ _____    ______ ____
ROOT
ATOM      1  O   UNL     1      -0.266   9.829  17.375  0.00  0.00    +0.000 OA
ATOM      2  C   UNL     1      -1.331  10.314  17.750  0.00  0.00    +0.000 A 
ATOM      3  N   UNL     1      -2.401  10.287  16.914  0.00  0.00    +0.000 N 
ATOM      4  C   UNL     1      -3.532  11.025  17.060  0.00  0.00    +0.000 A 
ATOM      5  O   UNL     1      -4.318  11.100  16.117  0.00  0.00    +0.000 OA
ATOM      6  N   UNL     1      -3.694  11.652  18.280  0.00  0.00    +0.000 N 
ATOM      7  C   UNL     1      -2.709  11.628  19.268  0.00  0.00    +0.000 A 
ATOM      8  N   UNL     1      -3.011  12.290  20.440  0.00  0.00    +0.000 NA
ATOM      9  C   UNL     1      -2.051  12.470  21.301  0.00  0.00    +0.000 A 
ATOM     10  C   UNL     1      -0.629  11.998  21.051  0.00  0.00    +0.000 A 
ATOM     11  O   UNL     1       0.267  12.474  21.733  0.00  0.00    +0.000 OA
ATOM     12  N   UNL     1      -0.499  11.060  20.033  0.00  0.00    +0.000 N 
ATOM     13  C   UNL     1      -1.526  10.996  19.075  0.00  0.00    +0.000 A 
ATOM     14  H   UNL     1      -2.254   9.877  16.004  0.00  0.00    +0.000 HD
ENDROOT
BRANCH   6  15
ATOM     15  C   UNL     1      -4.944  12.398  18.482  0.00  0.00    +0.000 C 
BRANCH  15  16
ATOM     16  C   UNL     1      -5.966  11.653  19.315  0.00  0.00    +0.000 A 
ATOM     17  C   UNL     1      -6.354  10.345  18.990  0.00  0.00    +0.000 A 
ATOM     18  C   UNL     1      -7.329   9.685  19.740  0.00  0.00    +0.000 A 
ATOM     19  C   UNL     1      -7.916  10.318  20.833  0.00  0.00    +0.000 A 
ATOM     20  C   UNL     1      -7.515  11.602  21.190  0.00  0.00    +0.000 A 
ATOM     21  C   UNL     1      -6.543  12.265  20.438  0.00  0.00    +0.000 A 
ENDBRANCH  15  16
ENDBRANCH   6  15
BRANCH   9  22
ATOM     22  C   UNL     1      -2.272  13.233  22.591  0.00  0.00    +0.000 C 
BRANCH  22  23
ATOM     23  C   UNL     1      -3.262  14.387  22.467  0.00  0.00    +0.000 C 
BRANCH  23  24
ATOM     24  C   UNL     1      -4.598  14.016  23.073  0.00  0.00    +0.000 A 
ATOM     25  C   UNL     1      -5.702  14.865  22.921  0.00  0.00    +0.000 A 
ATOM     26  C   UNL     1      -6.927  14.543  23.507  0.00  0.00    +0.000 A 
ATOM     27  C   UNL     1      -7.061  13.375  24.256  0.00  0.00    +0.000 A 
ATOM     28  C   UNL     1      -5.966  12.530  24.422  0.00  0.00    +0.000 A 
ATOM     29  C   UNL     1      -4.738  12.849  23.835  0.00  0.00    +0.000 A 
ENDBRANCH  23  24
ENDBRANCH  22  23
ENDBRANCH   9  22
BRANCH  12  30
ATOM     30  C   UNL     1       0.788  10.368  19.827  0.00  0.00    +0.000 C 
BRANCH  30  31
ATOM     31  C   UNL     1       0.812   8.832  19.929  0.00  0.00    +0.000 C 
ATOM     32  C   UNL     1       1.126   8.354  21.340  0.00  0.00    +0.000 C 
ATOM     33  C   UNL     1       1.684   6.976  21.088  0.00  0.00    +0.000 C 
ATOM     34  C   UNL     1       2.418   7.146  19.773  0.00  0.00    +0.000 C 
ATOM     35  O   UNL     1       1.853   8.281  19.099  0.00  0.00    +0.000 OA
ENDBRANCH  30  31
ENDBRANCH  12  30
TORSDOF 7
ENDMDL
MODEL 8
REMARK VINA RESULT:      -6.7      7.997     12.005
REMARK  Name = 
REMARK  7 active torsions:
REMARK  status: ('A' for Active; 'I' for Inactive)
REMARK    1  A    between atoms: N_6  and  C_7
REMARK    2  A    between atoms: C_7  and  C_8
REMARK    3  A    between atoms: C_16  and  C_17
REMARK    4  A    between atoms: C_17  and  C_18
REMARK    5  A    between atoms: C_18  and  C_19
REMARK    6  A    between atoms: N_27  and  C_28
REMARK    7  A    between atoms: C_28  and  C_29
REMARK                            x       y       z     vdW  Elec       q    Type
REMARK                         _______ _______ _______ _____ _____    ______ ____
ROOT
ATOM      1  O   UNL     1       3.443   2.849  16.014  0.00  0.00    +0.000 OA
ATOM      2  C   UNL     1       3.522   3.599  16.984  0.00  0.00    +0.000 A 
ATOM      3  N   UNL     1       2.486   3.658  17.860  0.00  0.00    +0.000 N 
ATOM      4  C   UNL     1       2.298   4.628  18.792  0.00  0.00    +0.000 A 
ATOM      5  O   UNL     1       1.207   4.709  19.353  0.00  0.00    +0.000 OA
ATOM      6  N   UNL     1       3.373   5.466  19.020  0.00  0.00    +0.000 N 
ATOM      7  C   UNL     1       4.544   5.399  18.266  0.00  0.00    +0.000 A 
ATOM      8  N   UNL     1       5.538   6.292  18.610  0.00  0.00    +0.000 NA
ATOM      9  C   UNL     1       6.557   6.407  17.808  0.00  0.00    +0.000 A 
ATOM     10  C   UNL     1       6.674   5.617  16.516  0.00  0.00    +0.000 A 
ATOM     11  O   UNL     1       7.471   6.001  15.673  0.00  0.00    +0.000 OA
ATOM     12  N   UNL     1       5.826   4.519  16.429  0.00  0.00    +0.000 N 
ATOM     13  C   UNL     1       4.684   4.513  17.250  0.00  0.00    +0.000 A 
ATOM     14  H   UNL     1       1.683   3.084  17.651  0.00  0.00    +0.000 HD
ENDROOT
BRANCH   6  15
ATOM     15  C   UNL     1       3.214   6.477  20.075  0.00  0.00    +0.000 C 
BRANCH  15  16
ATOM     16  C   UNL     1       2.348   7.650  19.664  0.00  0.00    +0.000 A 
ATOM     17  C   UNL     1       1.478   8.265  20.576  0.00  0.00    +0.000 A 
ATOM     18  C   UNL     1       0.653   9.317  20.174  0.00  0.00    +0.000 A 
ATOM     19  C   UNL     1       0.700   9.777  18.860  0.00  0.00    +0.000 A 
ATOM     20  C   UNL     1       1.586   9.201  17.953  0.00  0.00    +0.000 A 
ATOM     21  C   UNL     1       2.407   8.146  18.353  0.00  0.00    +0.000 A 
ENDBRANCH  15  16
ENDBRANCH   6  15
BRANCH   9  22
ATOM     22  C   UNL     1       7.671   7.400  18.074  0.00  0.00    +0.000 C 
BRANCH  22  23
ATOM     23  C   UNL     1       7.413   8.790  17.503  0.00  0.00    +0.000 C 
BRANCH  23  24
ATOM     24  C   UNL     1       8.305   9.817  18.164  0.00  0.00    +0.000 A 
ATOM     25  C   UNL     1       8.468  11.084  17.590  0.00  0.00    +0.000 A 
ATOM     26  C   UNL     1       9.318  12.023  18.178  0.00  0.00    +0.000 A 
ATOM     27  C   UNL     1      10.017  11.703  19.341  0.00  0.00    +0.000 A 
ATOM     28  C   UNL     1       9.870  10.443  19.914  0.00  0.00    +0.000 A 
ATOM     29  C   UNL     1       9.019   9.501  19.327  0.00  0.00    +0.000 A 
ENDBRANCH  23  24
ENDBRANCH  22  23
ENDBRANCH   9  22
BRANCH  12  30
ATOM     30  C   UNL     1       5.983   3.551  15.325  0.00  0.00    +0.000 C 
BRANCH  30  31
ATOM     31  C   UNL     1       5.865   4.069  13.881  0.00  0.00    +0.000 C 
ATOM     32  C   UNL     1       4.860   3.269  13.063  0.00  0.00    +0.000 C 
ATOM     33  C   UNL     1       5.339   3.510  11.654  0.00  0.00    +0.000 C 
ATOM     34  C   UNL     1       6.844   3.585  11.818  0.00  0.00    +0.000 C 
ATOM     35  O   UNL     1       7.118   3.933  13.184  0.00  0.00    +0.000 OA
ENDBRANCH  30  31
ENDBRANCH  12  30
TORSDOF 7
ENDMDL
MODEL 9
REMARK VINA RESULT:      -6.7      1.572      4.694
REMARK  Name = 
REMARK  7 active torsions:
REMARK  status: ('A' for Active; 'I' for Inactive)
REMARK    1  A    between atoms: N_6  and  C_7
REMARK    2  A    between atoms: C_7  and  C_8
REMARK    3  A    between atoms: C_16  and  C_17
REMARK    4  A    between atoms: C_17  and  C_18
REMARK    5  A    between atoms: C_18  and  C_19
REMARK    6  A    between atoms: N_27  and  C_28
REMARK    7  A    between atoms: C_28  and  C_29
REMARK                            x       y       z     vdW  Elec       q    Type
REMARK                         _______ _______ _______ _____ _____    ______ ____
ROOT
ATOM      1  O   UNL     1       1.558  12.229  21.204  0.00  0.00    +0.000 OA
ATOM      2  C   UNL     1       0.488  12.828  21.144  0.00  0.00    +0.000 A 
ATOM      3  N   UNL     1       0.263  13.867  21.989  0.00  0.00    +0.000 N 
ATOM      4  C   UNL     1      -0.949  14.426  22.244  0.00  0.00    +0.000 A 
ATOM      5  O   UNL     1      -1.062  15.186  23.203  0.00  0.00    +0.000 OA
ATOM      6  N   UNL     1      -1.973  14.068  21.389  0.00  0.00    +0.000 N 
ATOM      7  C   UNL     1      -1.812  13.107  20.391  0.00  0.00    +0.000 A 
ATOM      8  N   UNL     1      -2.918  12.857  19.606  0.00  0.00    +0.000 NA
ATOM      9  C   UNL     1      -2.877  11.830  18.808  0.00  0.00    +0.000 A 
ATOM     10  C   UNL     1      -1.676  10.903  18.728  0.00  0.00    +0.000 A 
ATOM     11  O   UNL     1      -1.826   9.804  18.215  0.00  0.00    +0.000 OA
ATOM     12  N   UNL     1      -0.508  11.418  19.278  0.00  0.00    +0.000 N 
ATOM     13  C   UNL     1      -0.635  12.457  20.217  0.00  0.00    +0.000 A 
ATOM     14  H   UNL     1       0.996  14.081  22.648  0.00  0.00    +0.000 HD
ENDROOT
BRANCH   6  15
ATOM     15  C   UNL     1      -3.275  14.716  21.606  0.00  0.00    +0.000 C 
BRANCH  15  16
ATOM     16  C   UNL     1      -4.145  14.004  22.620  0.00  0.00    +0.000 A 
ATOM     17  C   UNL     1      -3.687  12.864  23.297  0.00  0.00    +0.000 A 
ATOM     18  C   UNL     1      -4.515  12.191  24.197  0.00  0.00    +0.000 A 
ATOM     19  C   UNL     1      -5.803  12.658  24.444  0.00  0.00    +0.000 A 
ATOM     20  C   UNL     1      -6.258  13.810  23.808  0.00  0.00    +0.000 A 
ATOM     21  C   UNL     1      -5.433  14.481  22.903  0.00  0.00    +0.000 A 
ENDBRANCH  15  16
ENDBRANCH   6  15
BRANCH   9  22
ATOM     22  C   UNL     1      -4.063  11.443  17.947  0.00  0.00    +0.000 C 
BRANCH  22  23
ATOM     23  C   UNL     1      -5.320  12.262  18.220  0.00  0.00    +0.000 C 
BRANCH  23  24
ATOM     24  C   UNL     1      -6.235  11.537  19.182  0.00  0.00    +0.000 A 
ATOM     25  C   UNL     1      -6.696  12.179  20.338  0.00  0.00    +0.000 A 
ATOM     26  C   UNL     1      -7.513  11.502  21.246  0.00  0.00    +0.000 A 
ATOM     27  C   UNL     1      -7.872  10.176  21.011  0.00  0.00    +0.000 A 
ATOM     28  C   UNL     1      -7.409   9.525  19.871  0.00  0.00    +0.000 A 
ATOM     29  C   UNL     1      -6.592  10.200  18.960  0.00  0.00    +0.000 A 
ENDBRANCH  23  24
ENDBRANCH  22  23
ENDBRANCH   9  22
BRANCH  12  30
ATOM     30  C   UNL     1       0.774  10.712  19.083  0.00  0.00    +0.000 C 
BRANCH  30  31
ATOM     31  C   UNL     1       0.805   9.188  19.301  0.00  0.00    +0.000 C 
ATOM     32  C   UNL     1       1.220   8.818  20.719  0.00  0.00    +0.000 C 
ATOM     33  C   UNL     1       1.758   7.422  20.535  0.00  0.00    +0.000 C 
ATOM     34  C   UNL     1       2.395   7.486  19.161  0.00  0.00    +0.000 C 
ATOM     35  O   UNL     1       1.783   8.569  18.444  0.00  0.00    +0.000 OA
ENDBRANCH  30  31
ENDBRANCH  12  30
TORSDOF 7
ENDMDL
