MODEL 1
REMARK VINA RESULT:      -8.1      0.000      0.000
REMARK  Name = 
REMARK  3 active torsions:
REMARK  status: ('A' for Active; 'I' for Inactive)
REMARK    1  A    between atoms: C_1  and  C_2
REMARK    2  A    between atoms: C_5  and  C_6
REMARK    3  A    between atoms: C_17  and  C_18
REMARK                            x       y       z     vdW  Elec       q    Type
REMARK                         _______ _______ _______ _____ _____    ______ ____
ROOT
ATOM      1  C   UNL     1       2.451   7.397  18.430  0.00  0.00    +0.000 C 
ATOM      2  O   UNL     1       1.914   7.102  17.345  0.00  0.00    +0.000 OA
ATOM      3  N   UNL     1       3.304   6.522  19.210  0.00  0.00    +0.000 N 
ATOM      4  C   UNL     1       4.295   5.391  20.093  0.00  0.00    +0.000 C 
ATOM      5  C   UNL     1       5.421   4.386  19.076  0.00  0.00    +0.000 C 
ATOM      6  C   UNL     1       5.460   4.635  17.512  0.00  0.00    +0.000 A 
ATOM      7  C   UNL     1       6.397   4.292  16.546  0.00  0.00    +0.000 A 
ATOM      8  C   UNL     1       6.411   4.998  15.310  0.00  0.00    +0.000 A 
ATOM      9  C   UNL     1       5.595   6.112  15.092  0.00  0.00    +0.000 A 
ATOM     10  C   UNL     1       4.596   6.366  15.995  0.00  0.00    +0.000 A 
ATOM     11  C   UNL     1       4.432   5.484  17.065  0.00  0.00    +0.000 A 
ATOM     12  C   UNL     1       3.354   5.686  18.072  0.00  0.00    +0.000 C 
ENDROOT
BRANCH   1  17
ATOM     13  C   UNL     1      -0.522   8.973  22.954  0.00  0.00    +0.000 C 
ATOM     14  C   UNL     1       0.207   9.266  21.706  0.00  0.00    +0.000 A 
ATOM     15  N   UNL     1       0.900   8.409  20.986  0.00  0.00    +0.000 NA
ATOM     16  C   UNL     1       1.318   9.115  19.889  0.00  0.00    +0.000 A 
ATOM     17  C   UNL     1       2.017   8.757  18.754  0.00  0.00    +0.000 A 
ATOM     18  C   UNL     1       2.275   9.805  17.807  0.00  0.00    +0.000 A 
ATOM     19  C   UNL     1       1.808  11.091  18.021  0.00  0.00    +0.000 A 
ATOM     20  N   UNL     1       1.103  11.460  19.106  0.00  0.00    +0.000 NA
ATOM     21  C   UNL     1       0.907  10.444  19.969  0.00  0.00    +0.000 A 
ATOM     22  N   UNL     1       0.200  10.512  21.131  0.00  0.00    +0.000 N 
ATOM     23  H   UNL     1      -0.270  11.339  21.461  0.00  0.00    +0.000 HD
ENDBRANCH   1  17
BRANCH  12  24
ATOM     24  C   UNL     1       2.407   4.491  18.356  0.00  0.00    +0.000 A 
ATOM     25  C   UNL     1       1.537   4.377  19.443  0.00  0.00    +0.000 A 
ATOM     26  C   UNL     1       0.823   3.183  19.662  0.00  0.00    +0.000 A 
ATOM     27  C   UNL     1       1.012   2.060  18.852  0.00  0.00    +0.000 A 
ATOM     28  C   UNL     1       1.868   2.134  17.774  0.00  0.00    +0.000 A 
ATOM     29  C   UNL     1       2.517   3.334  17.520  0.00  0.00    +0.000 A 
ENDBRANCH  12  24
TORSDOF 2
ENDMDL
MODEL 2
REMARK VINA RESULT:      -7.8      1.325      3.924
REMARK  Name = 
REMARK  3 active torsions:
REMARK  status: ('A' for Active; 'I' for Inactive)
REMARK    1  A    between atoms: C_1  and  C_2
REMARK    2  A    between atoms: C_5  and  C_6
REMARK    3  A    between atoms: C_17  and  C_18
REMARK                            x       y       z     vdW  Elec       q    Type
REMARK                         _______ _______ _______ _____ _____    ______ ____
ROOT
ATOM      1  C   UNL     1       2.505   7.041  18.926  0.00  0.00    +0.000 C 
ATOM      2  O   UNL     1       3.405   7.037  19.788  0.00  0.00    +0.000 OA
ATOM      3  N   UNL     1       2.199   5.946  18.026  0.00  0.00    +0.000 N 
ATOM      4  C   UNL     1       1.923   4.589  16.966  0.00  0.00    +0.000 C 
ATOM      5  C   UNL     1       2.047   2.953  17.752  0.00  0.00    +0.000 C 
ATOM      6  C   UNL     1       2.337   2.875  19.307  0.00  0.00    +0.000 A 
ATOM      7  C   UNL     1       2.169   1.849  20.227  0.00  0.00    +0.000 A 
ATOM      8  C   UNL     1       2.093   2.165  21.613  0.00  0.00    +0.000 A 
ATOM      9  C   UNL     1       2.053   3.488  22.063  0.00  0.00    +0.000 A 
ATOM     10  C   UNL     1       2.340   4.483  21.167  0.00  0.00    +0.000 A 
ATOM     11  C   UNL     1       2.683   4.119  19.864  0.00  0.00    +0.000 A 
ATOM     12  C   UNL     1       3.029   5.147  18.843  0.00  0.00    +0.000 C 
ENDROOT
BRANCH   1  17
ATOM     13  C   UNL     1      -0.070   9.302  23.404  0.00  0.00    +0.000 C 
ATOM     14  C   UNL     1       0.415   9.358  22.012  0.00  0.00    +0.000 A 
ATOM     15  N   UNL     1       1.152   8.453  21.404  0.00  0.00    +0.000 NA
ATOM     16  C   UNL     1       1.277   8.898  20.115  0.00  0.00    +0.000 A 
ATOM     17  C   UNL     1       1.871   8.360  18.991  0.00  0.00    +0.000 A 
ATOM     18  C   UNL     1       1.797   9.146  17.792  0.00  0.00    +0.000 A 
ATOM     19  C   UNL     1       1.129  10.360  17.774  0.00  0.00    +0.000 A 
ATOM     20  N   UNL     1       0.521  10.894  18.849  0.00  0.00    +0.000 NA
ATOM     21  C   UNL     1       0.639  10.125  19.949  0.00  0.00    +0.000 A 
ATOM     22  N   UNL     1       0.096  10.393  21.168  0.00  0.00    +0.000 N 
ATOM     23  H   UNL     1      -0.472  11.199  21.372  0.00  0.00    +0.000 HD
ENDBRANCH   1  17
BRANCH  12  24
ATOM     24  C   UNL     1       4.371   4.978  18.083  0.00  0.00    +0.000 A 
ATOM     25  C   UNL     1       5.539   4.414  18.600  0.00  0.00    +0.000 A 
ATOM     26  C   UNL     1       6.733   4.437  17.854  0.00  0.00    +0.000 A 
ATOM     27  C   UNL     1       6.808   5.080  16.615  0.00  0.00    +0.000 A 
ATOM     28  C   UNL     1       5.676   5.654  16.076  0.00  0.00    +0.000 A 
ATOM     29  C   UNL     1       4.485   5.569  16.783  0.00  0.00    +0.000 A 
ENDBRANCH  12  24
TORSDOF 2
ENDMDL
MODEL 3
REMARK VINA RESULT:      -7.6      2.499      7.902
REMARK  Name = 
REMARK  3 active torsions:
REMARK  status: ('A' for Active; 'I' for Inactive)
REMARK    1  A    between atoms: C_1  and  C_2
REMARK    2  A    between atoms: C_5  and  C_6
REMARK    3  A    between atoms: C_17  and  C_18
REMARK                            x       y       z     vdW  Elec       q    Type
REMARK                         _______ _______ _______ _____ _____    ______ ____
ROOT
ATOM      1  C   UNL     1       1.456   8.907  19.376  0.00  0.00    +0.000 C 
ATOM      2  O   UNL     1       1.734   9.266  18.215  0.00  0.00    +0.000 OA
ATOM      3  N   UNL     1       0.735   9.703  20.350  0.00  0.00    +0.000 N 
ATOM      4  C   UNL     1      -0.113  10.743  21.464  0.00  0.00    +0.000 C 
ATOM      5  C   UNL     1      -1.485  11.697  20.745  0.00  0.00    +0.000 C 
ATOM      6  C   UNL     1      -1.838  11.487  19.215  0.00  0.00    +0.000 A 
ATOM      7  C   UNL     1      -2.975  11.794  18.479  0.00  0.00    +0.000 A 
ATOM      8  C   UNL     1      -3.207  11.121  17.247  0.00  0.00    +0.000 A 
ATOM      9  C   UNL     1      -2.390  10.069  16.819  0.00  0.00    +0.000 A 
ATOM     10  C   UNL     1      -1.211   9.858  17.483  0.00  0.00    +0.000 A 
ATOM     11  C   UNL     1      -0.878  10.720  18.530  0.00  0.00    +0.000 A 
ATOM     12  C   UNL     1       0.398  10.564  19.281  0.00  0.00    +0.000 C 
ENDROOT
BRANCH   1  17
ATOM     13  C   UNL     1       5.194   6.402  15.979  0.00  0.00    +0.000 C 
ATOM     14  C   UNL     1       4.351   6.439  17.189  0.00  0.00    +0.000 A 
ATOM     15  N   UNL     1       3.641   7.462  17.615  0.00  0.00    +0.000 NA
ATOM     16  C   UNL     1       2.968   6.999  18.715  0.00  0.00    +0.000 A 
ATOM     17  C   UNL     1       2.028   7.570  19.548  0.00  0.00    +0.000 A 
ATOM     18  C   UNL     1       1.547   6.751  20.625  0.00  0.00    +0.000 A 
ATOM     19  C   UNL     1       1.987   5.447  20.780  0.00  0.00    +0.000 A 
ATOM     20  N   UNL     1       2.884   4.858  19.968  0.00  0.00    +0.000 NA
ATOM     21  C   UNL     1       3.315   5.678  18.989  0.00  0.00    +0.000 A 
ATOM     22  N   UNL     1       4.192   5.345  18.003  0.00  0.00    +0.000 N 
ATOM     23  H   UNL     1       4.602   4.432  17.892  0.00  0.00    +0.000 HD
ENDBRANCH   1  17
BRANCH  12  24
ATOM     24  C   UNL     1       1.312  11.811  19.409  0.00  0.00    +0.000 A 
ATOM     25  C   UNL     1       1.841  12.318  20.597  0.00  0.00    +0.000 A 
ATOM     26  C   UNL     1       2.550  13.535  20.599  0.00  0.00    +0.000 A 
ATOM     27  C   UNL     1       2.685  14.303  19.439  0.00  0.00    +0.000 A 
ATOM     28  C   UNL     1       2.169  13.837  18.249  0.00  0.00    +0.000 A 
ATOM     29  C   UNL     1       1.531  12.605  18.237  0.00  0.00    +0.000 A 
ENDBRANCH  12  24
TORSDOF 2
ENDMDL
MODEL 4
REMARK VINA RESULT:      -7.4      5.053      8.311
REMARK  Name = 
REMARK  3 active torsions:
REMARK  status: ('A' for Active; 'I' for Inactive)
REMARK    1  A    between atoms: C_1  and  C_2
REMARK    2  A    between atoms: C_5  and  C_6
REMARK    3  A    between atoms: C_17  and  C_18
REMARK                            x       y       z     vdW  Elec       q    Type
REMARK                         _______ _______ _______ _____ _____    ______ ____
ROOT
ATOM      1  C   UNL     1      -1.835  11.640  19.038  0.00  0.00    +0.000 C 
ATOM      2  O   UNL     1      -1.848  12.515  19.925  0.00  0.00    +0.000 OA
ATOM      3  N   UNL     1      -0.704  10.794  18.710  0.00  0.00    +0.000 N 
ATOM      4  C   UNL     1       0.716   9.842  18.366  0.00  0.00    +0.000 C 
ATOM      5  C   UNL     1       1.650   9.285  19.825  0.00  0.00    +0.000 C 
ATOM      6  C   UNL     1       1.098   9.648  21.265  0.00  0.00    +0.000 A 
ATOM      7  C   UNL     1       1.374   9.119  22.519  0.00  0.00    +0.000 A 
ATOM      8  C   UNL     1       0.442   9.319  23.577  0.00  0.00    +0.000 A 
ATOM      9  C   UNL     1      -0.801   9.919  23.356  0.00  0.00    +0.000 A 
ATOM     10  C   UNL     1      -1.012  10.543  22.155  0.00  0.00    +0.000 A 
ATOM     11  C   UNL     1       0.034  10.566  21.230  0.00  0.00    +0.000 A 
ATOM     12  C   UNL     1      -0.117  11.245  19.913  0.00  0.00    +0.000 C 
ENDROOT
BRANCH   1  17
ATOM     13  C   UNL     1      -3.053   9.942  13.802  0.00  0.00    +0.000 C 
ATOM     14  C   UNL     1      -3.436  10.479  15.121  0.00  0.00    +0.000 A 
ATOM     15  N   UNL     1      -2.653  10.603  16.171  0.00  0.00    +0.000 NA
ATOM     16  C   UNL     1      -3.422  11.221  17.122  0.00  0.00    +0.000 A 
ATOM     17  C   UNL     1      -3.151  11.676  18.396  0.00  0.00    +0.000 A 
ATOM     18  C   UNL     1      -4.244  12.280  19.104  0.00  0.00    +0.000 A 
ATOM     19  C   UNL     1      -5.487  12.423  18.510  0.00  0.00    +0.000 A 
ATOM     20  N   UNL     1      -5.770  12.011  17.261  0.00  0.00    +0.000 NA
ATOM     21  C   UNL     1      -4.715  11.434  16.652  0.00  0.00    +0.000 A 
ATOM     22  N   UNL     1      -4.697  10.958  15.377  0.00  0.00    +0.000 N 
ATOM     23  H   UNL     1      -5.478  11.003  14.743  0.00  0.00    +0.000 HD
ENDBRANCH   1  17
BRANCH  12  24
ATOM     24  C   UNL     1       0.957  12.292  19.520  0.00  0.00    +0.000 A 
ATOM     25  C   UNL     1       1.392  12.569  18.222  0.00  0.00    +0.000 A 
ATOM     26  C   UNL     1       2.469  13.451  18.005  0.00  0.00    +0.000 A 
ATOM     27  C   UNL     1       3.177  14.016  19.069  0.00  0.00    +0.000 A 
ATOM     28  C   UNL     1       2.780  13.758  20.364  0.00  0.00    +0.000 A 
ATOM     29  C   UNL     1       1.675  12.945  20.573  0.00  0.00    +0.000 A 
ENDBRANCH  12  24
TORSDOF 2
ENDMDL
MODEL 5
REMARK VINA RESULT:      -7.4      6.034      9.528
REMARK  Name = 
REMARK  3 active torsions:
REMARK  status: ('A' for Active; 'I' for Inactive)
REMARK    1  A    between atoms: C_1  and  C_2
REMARK    2  A    between atoms: C_5  and  C_6
REMARK    3  A    between atoms: C_17  and  C_18
REMARK                            x       y       z     vdW  Elec       q    Type
REMARK                         _______ _______ _______ _____ _____    ______ ____
ROOT
ATOM      1  C   UNL     1      -2.839  13.293  21.877  0.00  0.00    +0.000 C 
ATOM      2  O   UNL     1      -1.974  13.595  22.723  0.00  0.00    +0.000 OA
ATOM      3  N   UNL     1      -2.576  12.695  20.583  0.00  0.00    +0.000 N 
ATOM      4  C   UNL     1      -2.161  12.004  19.037  0.00  0.00    +0.000 C 
ATOM      5  C   UNL     1      -0.842  10.751  19.075  0.00  0.00    +0.000 C 
ATOM      6  C   UNL     1      -0.216  10.349  20.473  0.00  0.00    +0.000 A 
ATOM      7  C   UNL     1       0.532   9.246  20.866  0.00  0.00    +0.000 A 
ATOM      8  C   UNL     1       0.599   8.910  22.248  0.00  0.00    +0.000 A 
ATOM      9  C   UNL     1      -0.169   9.581  23.205  0.00  0.00    +0.000 A 
ATOM     10  C   UNL     1      -0.802  10.736  22.829  0.00  0.00    +0.000 A 
ATOM     11  C   UNL     1      -0.624  11.192  21.522  0.00  0.00    +0.000 A 
ATOM     12  C   UNL     1      -1.265  12.451  21.051  0.00  0.00    +0.000 C 
ENDROOT
BRANCH   1  17
ATOM     13  C   UNL     1      -7.857  11.001  20.714  0.00  0.00    +0.000 C 
ATOM     14  C   UNL     1      -6.995  11.952  21.441  0.00  0.00    +0.000 A 
ATOM     15  N   UNL     1      -5.680  12.005  21.397  0.00  0.00    +0.000 NA
ATOM     16  C   UNL     1      -5.338  13.091  22.158  0.00  0.00    +0.000 A 
ATOM     17  C   UNL     1      -4.130  13.696  22.439  0.00  0.00    +0.000 A 
ATOM     18  C   UNL     1      -4.176  14.841  23.305  0.00  0.00    +0.000 A 
ATOM     19  C   UNL     1      -5.381  15.320  23.792  0.00  0.00    +0.000 A 
ATOM     20  N   UNL     1      -6.574  14.763  23.513  0.00  0.00    +0.000 NA
ATOM     21  C   UNL     1      -6.470  13.683  22.715  0.00  0.00    +0.000 A 
ATOM     22  N   UNL     1      -7.509  12.943  22.240  0.00  0.00    +0.000 N 
ATOM     23  H   UNL     1      -8.479  13.140  22.427  0.00  0.00    +0.000 HD
ENDBRANCH   1  17
BRANCH  12  24
ATOM     24  C   UNL     1      -0.351  13.516  20.390  0.00  0.00    +0.000 A 
ATOM     25  C   UNL     1      -0.761  14.498  19.485  0.00  0.00    +0.000 A 
ATOM     26  C   UNL     1       0.188  15.325  18.853  0.00  0.00    +0.000 A 
ATOM     27  C   UNL     1       1.560  15.147  19.052  0.00  0.00    +0.000 A 
ATOM     28  C   UNL     1       2.000  14.183  19.933  0.00  0.00    +0.000 A 
ATOM     29  C   UNL     1       1.061  13.416  20.607  0.00  0.00    +0.000 A 
ENDBRANCH  12  24
TORSDOF 2
ENDMDL
MODEL 6
REMARK VINA RESULT:      -7.3      6.041      7.927
REMARK  Name = 
REMARK  3 active torsions:
REMARK  status: ('A' for Active; 'I' for Inactive)
REMARK    1  A    between atoms: C_1  and  C_2
REMARK    2  A    between atoms: C_5  and  C_6
REMARK    3  A    between atoms: C_17  and  C_18
REMARK                            x       y       z     vdW  Elec       q    Type
REMARK                         _______ _______ _______ _____ _____    ______ ____
ROOT
ATOM      1  C   UNL     1      -1.493  11.481  18.659  0.00  0.00    +0.000 C 
ATOM      2  O   UNL     1      -0.601  10.647  18.408  0.00  0.00    +0.000 OA
ATOM      3  N   UNL     1      -1.508  12.376  19.799  0.00  0.00    +0.000 N 
ATOM      4  C   UNL     1      -1.456  13.394  21.214  0.00  0.00    +0.000 C 
ATOM      5  C   UNL     1       0.182  14.071  21.624  0.00  0.00    +0.000 C 
ATOM      6  C   UNL     1       1.402  13.741  20.669  0.00  0.00    +0.000 A 
ATOM      7  C   UNL     1       2.645  14.341  20.519  0.00  0.00    +0.000 A 
ATOM      8  C   UNL     1       3.375  14.135  19.315  0.00  0.00    +0.000 A 
ATOM      9  C   UNL     1       2.820  13.453  18.228  0.00  0.00    +0.000 A 
ATOM     10  C   UNL     1       1.653  12.764  18.427  0.00  0.00    +0.000 A 
ATOM     11  C   UNL     1       1.098  12.761  19.708  0.00  0.00    +0.000 A 
ATOM     12  C   UNL     1      -0.158  12.016  20.002  0.00  0.00    +0.000 C 
ENDROOT
BRANCH   1  17
ATOM     13  C   UNL     1      -7.039  12.326  19.221  0.00  0.00    +0.000 C 
ATOM     14  C   UNL     1      -5.843  12.002  18.420  0.00  0.00    +0.000 A 
ATOM     15  N   UNL     1      -4.593  12.049  18.828  0.00  0.00    +0.000 NA
ATOM     16  C   UNL     1      -3.853  11.585  17.773  0.00  0.00    +0.000 A 
ATOM     17  C   UNL     1      -2.505  11.337  17.610  0.00  0.00    +0.000 A 
ATOM     18  C   UNL     1      -2.096  10.847  16.324  0.00  0.00    +0.000 A 
ATOM     19  C   UNL     1      -3.025  10.607  15.325  0.00  0.00    +0.000 A 
ATOM     20  N   UNL     1      -4.347  10.816  15.466  0.00  0.00    +0.000 NA
ATOM     21  C   UNL     1      -4.670  11.294  16.683  0.00  0.00    +0.000 A 
ATOM     22  N   UNL     1      -5.930  11.563  17.122  0.00  0.00    +0.000 N 
ATOM     23  H   UNL     1      -6.765  11.415  16.578  0.00  0.00    +0.000 HD
ENDBRANCH   1  17
BRANCH  12  24
ATOM     24  C   UNL     1      -0.137  11.017  21.189  0.00  0.00    +0.000 A 
ATOM     25  C   UNL     1      -1.043  10.990  22.250  0.00  0.00    +0.000 A 
ATOM     26  C   UNL     1      -0.841  10.118  23.338  0.00  0.00    +0.000 A 
ATOM     27  C   UNL     1       0.296   9.310  23.425  0.00  0.00    +0.000 A 
ATOM     28  C   UNL     1       1.216   9.317  22.398  0.00  0.00    +0.000 A 
ATOM     29  C   UNL     1       0.979  10.126  21.296  0.00  0.00    +0.000 A 
ENDBRANCH  12  24
TORSDOF 2
ENDMDL
MODEL 7
REMARK VINA RESULT:      -7.2      4.971      8.781
REMARK  Name = 
REMARK  3 active torsions:
REMARK  status: ('A' for Active; 'I' for Inactive)
REMARK    1  A    between atoms: C_1  and  C_2
REMARK    2  A    between atoms: C_5  and  C_6
REMARK    3  A    between atoms: C_17  and  C_18
REMARK                            x       y       z     vdW  Elec       q    Type
REMARK                         _______ _______ _______ _____ _____    ______ ____
ROOT
ATOM      1  C   UNL     1      -2.167  12.314  21.645  0.00  0.00    +0.000 C 
ATOM      2  O   UNL     1      -1.226  12.515  22.437  0.00  0.00    +0.000 OA
ATOM      3  N   UNL     1      -2.025  12.008  20.235  0.00  0.00    +0.000 N 
ATOM      4  C   UNL     1      -1.759  11.675  18.544  0.00  0.00    +0.000 C 
ATOM      5  C   UNL     1      -0.370  10.557  18.182  0.00  0.00    +0.000 C 
ATOM      6  C   UNL     1       0.446   9.941  19.392  0.00  0.00    +0.000 A 
ATOM      7  C   UNL     1       1.302   8.851  19.468  0.00  0.00    +0.000 A 
ATOM      8  C   UNL     1       1.558   8.255  20.735  0.00  0.00    +0.000 A 
ATOM      9  C   UNL     1       0.871   8.655  21.886  0.00  0.00    +0.000 A 
ATOM     10  C   UNL     1       0.126   9.802  21.826  0.00  0.00    +0.000 A 
ATOM     11  C   UNL     1       0.115  10.522  20.630  0.00  0.00    +0.000 A 
ATOM     12  C   UNL     1      -0.655  11.790  20.499  0.00  0.00    +0.000 C 
ENDROOT
BRANCH   1  17
ATOM     13  C   UNL     1      -7.162  13.967  19.619  0.00  0.00    +0.000 C 
ATOM     14  C   UNL     1      -6.286  13.505  20.712  0.00  0.00    +0.000 A 
ATOM     15  N   UNL     1      -5.037  13.108  20.597  0.00  0.00    +0.000 NA
ATOM     16  C   UNL     1      -4.619  12.859  21.878  0.00  0.00    +0.000 A 
ATOM     17  C   UNL     1      -3.403  12.485  22.412  0.00  0.00    +0.000 A 
ATOM     18  C   UNL     1      -3.356  12.312  23.836  0.00  0.00    +0.000 A 
ATOM     19  C   UNL     1      -4.473  12.549  24.620  0.00  0.00    +0.000 A 
ATOM     20  N   UNL     1      -5.664  12.939  24.128  0.00  0.00    +0.000 NA
ATOM     21  C   UNL     1      -5.655  13.066  22.786  0.00  0.00    +0.000 A 
ATOM     22  N   UNL     1      -6.701  13.480  22.021  0.00  0.00    +0.000 N 
ATOM     23  H   UNL     1      -7.599  13.753  22.386  0.00  0.00    +0.000 HD
ENDBRANCH   1  17
BRANCH  12  24
ATOM     24  C   UNL     1       0.103  13.039  19.980  0.00  0.00    +0.000 A 
ATOM     25  C   UNL     1      -0.472  14.134  19.333  0.00  0.00    +0.000 A 
ATOM     26  C   UNL     1       0.341  15.149  18.790  0.00  0.00    +0.000 A 
ATOM     27  C   UNL     1       1.735  15.060  18.817  0.00  0.00    +0.000 A 
ATOM     28  C   UNL     1       2.337  13.989  19.441  0.00  0.00    +0.000 A 
ATOM     29  C   UNL     1       1.534  13.026  20.035  0.00  0.00    +0.000 A 
ENDBRANCH  12  24
TORSDOF 2
ENDMDL
MODEL 8
REMARK VINA RESULT:      -7.2      6.106      9.766
REMARK  Name = 
REMARK  3 active torsions:
REMARK  status: ('A' for Active; 'I' for Inactive)
REMARK    1  A    between atoms: C_1  and  C_2
REMARK    2  A    between atoms: C_5  and  C_6
REMARK    3  A    between atoms: C_17  and  C_18
REMARK                            x       y       z     vdW  Elec       q    Type
REMARK                         _______ _______ _______ _____ _____    ______ ____
ROOT
ATOM      1  C   UNL     1       0.395  13.896  20.812  0.00  0.00    +0.000 C 
ATOM      2  O   UNL     1       1.077  13.622  21.819  0.00  0.00    +0.000 OA
ATOM      3  N   UNL     1      -0.958  13.437  20.564  0.00  0.00    +0.000 N 
ATOM      4  C   UNL     1      -2.571  12.814  20.339  0.00  0.00    +0.000 C 
ATOM      5  C   UNL     1      -3.613  12.797  21.830  0.00  0.00    +0.000 C 
ATOM      6  C   UNL     1      -3.020  13.380  23.179  0.00  0.00    +0.000 A 
ATOM      7  C   UNL     1      -3.634  13.800  24.351  0.00  0.00    +0.000 A 
ATOM      8  C   UNL     1      -2.931  14.671  25.229  0.00  0.00    +0.000 A 
ATOM      9  C   UNL     1      -1.692  15.219  24.883  0.00  0.00    +0.000 A 
ATOM     10  C   UNL     1      -1.043  14.707  23.790  0.00  0.00    +0.000 A 
ATOM     11  C   UNL     1      -1.643  13.651  23.101  0.00  0.00    +0.000 A 
ATOM     12  C   UNL     1      -0.985  13.032  21.917  0.00  0.00    +0.000 C 
ENDROOT
BRANCH   1  17
ATOM     13  C   UNL     1      -1.238  18.409  17.854  0.00  0.00    +0.000 C 
ATOM     14  C   UNL     1      -0.212  17.460  18.324  0.00  0.00    +0.000 A 
ATOM     15  N   UNL     1      -0.381  16.507  19.217  0.00  0.00    +0.000 NA
ATOM     16  C   UNL     1       0.816  15.841  19.262  0.00  0.00    +0.000 A 
ATOM     17  C   UNL     1       1.240  14.721  19.947  0.00  0.00    +0.000 A 
ATOM     18  C   UNL     1       2.602  14.320  19.733  0.00  0.00    +0.000 A 
ATOM     19  C   UNL     1       3.420  15.011  18.855  0.00  0.00    +0.000 A 
ATOM     20  N   UNL     1       3.024  16.091  18.156  0.00  0.00    +0.000 NA
ATOM     21  C   UNL     1       1.745  16.434  18.410  0.00  0.00    +0.000 A 
ATOM     22  N   UNL     1       1.066  17.457  17.823  0.00  0.00    +0.000 N 
ATOM     23  H   UNL     1       1.450  18.062  17.116  0.00  0.00    +0.000 HD
ENDBRANCH   1  17
BRANCH  12  24
ATOM     24  C   UNL     1      -0.802  11.491  21.924  0.00  0.00    +0.000 A 
ATOM     25  C   UNL     1      -0.821  10.671  23.053  0.00  0.00    +0.000 A 
ATOM     26  C   UNL     1      -0.511   9.301  22.944  0.00  0.00    +0.000 A 
ATOM     27  C   UNL     1      -0.111   8.737  21.730  0.00  0.00    +0.000 A 
ATOM     28  C   UNL     1      -0.074   9.519  20.595  0.00  0.00    +0.000 A 
ATOM     29  C   UNL     1      -0.446  10.852  20.693  0.00  0.00    +0.000 A 
ENDBRANCH  12  24
TORSDOF 2
ENDMDL
MODEL 9
REMARK VINA RESULT:      -7.2      6.389     11.224
REMARK  Name = 
REMARK  3 active torsions:
REMARK  status: ('A' for Active; 'I' for Inactive)
REMARK    1  A    between atoms: C_1  and  C_2
REMARK    2  A    between atoms: C_5  and  C_6
REMARK    3  A    between atoms: C_17  and  C_18
REMARK                            x       y       z     vdW  Elec       q    Type
REMARK                         _______ _______ _______ _____ _____    ______ ____
ROOT
ATOM      1  C   UNL     1      -2.520  12.531  21.399  0.00  0.00    +0.000 C 
ATOM      2  O   UNL     1      -2.549  11.887  22.466  0.00  0.00    +0.000 OA
ATOM      3  N   UNL     1      -3.371  13.660  21.076  0.00  0.00    +0.000 N 
ATOM      4  C   UNL     1      -4.456  14.989  20.764  0.00  0.00    +0.000 C 
ATOM      5  C   UNL     1      -4.746  16.102  22.174  0.00  0.00    +0.000 C 
ATOM      6  C   UNL     1      -3.978  15.826  23.531  0.00  0.00    +0.000 A 
ATOM      7  C   UNL     1      -3.731  16.635  24.633  0.00  0.00    +0.000 A 
ATOM      8  C   UNL     1      -2.666  16.301  25.515  0.00  0.00    +0.000 A 
ATOM      9  C   UNL     1      -1.780  15.256  25.234  0.00  0.00    +0.000 A 
ATOM     10  C   UNL     1      -2.101  14.394  24.219  0.00  0.00    +0.000 A 
ATOM     11  C   UNL     1      -3.306  14.591  23.541  0.00  0.00    +0.000 A 
ATOM     12  C   UNL     1      -3.730  13.680  22.442  0.00  0.00    +0.000 C 
ENDROOT
BRANCH   1  17
ATOM     13  C   UNL     1      -3.253  10.553  16.171  0.00  0.00    +0.000 C 
ATOM     14  C   UNL     1      -2.415  10.849  17.348  0.00  0.00    +0.000 A 
ATOM     15  N   UNL     1      -2.786  11.507  18.425  0.00  0.00    +0.000 NA
ATOM     16  C   UNL     1      -1.706  11.455  19.267  0.00  0.00    +0.000 A 
ATOM     17  C   UNL     1      -1.501  11.899  20.558  0.00  0.00    +0.000 A 
ATOM     18  C   UNL     1      -0.201  11.659  21.117  0.00  0.00    +0.000 A 
ATOM     19  C   UNL     1       0.772  10.984  20.397  0.00  0.00    +0.000 A 
ATOM     20  N   UNL     1       0.590  10.519  19.148  0.00  0.00    +0.000 NA
ATOM     21  C   UNL     1      -0.640  10.790  18.666  0.00  0.00    +0.000 A 
ATOM     22  N   UNL     1      -1.118  10.411  17.450  0.00  0.00    +0.000 N 
ATOM     23  H   UNL     1      -0.598   9.867  16.780  0.00  0.00    +0.000 HD
ENDBRANCH   1  17
BRANCH  12  24
ATOM     24  C   UNL     1      -5.143  13.048  22.540  0.00  0.00    +0.000 A 
ATOM     25  C   UNL     1      -5.929  12.631  21.464  0.00  0.00    +0.000 A 
ATOM     26  C   UNL     1      -7.251  12.194  21.674  0.00  0.00    +0.000 A 
ATOM     27  C   UNL     1      -7.839  12.229  22.941  0.00  0.00    +0.000 A 
ATOM     28  C   UNL     1      -7.095  12.641  24.026  0.00  0.00    +0.000 A 
ATOM     29  C   UNL     1      -5.772  13.006  23.827  0.00  0.00    +0.000 A 
ENDBRANCH  12  24
TORSDOF 2
ENDMDL
