MODEL 1
REMARK VINA RESULT:      -8.5      0.000      0.000
REMARK  Name = 
REMARK  6 active torsions:
REMARK  status: ('A' for Active; 'I' for Inactive)
REMARK    1  A    between atoms: C_2  and  C_17
REMARK    2  A    between atoms: N_3  and  C_4
REMARK    3  A    between atoms: C_4  and  C_5
REMARK    4  A    between atoms: C_4  and  C_11
REMARK    5  A    between atoms: C_21  and  S_22
REMARK    6  A    between atoms: S_22  and  N_25
REMARK                            x       y       z     vdW  Elec       q    Type
REMARK                         _______ _______ _______ _____ _____    ______ ____
ROOT
ATOM      1  O   UNL     1      -0.118   8.849  21.986  0.00  0.00    +0.000 OA
ATOM      2  C   UNL     1       0.105   9.388  20.905  0.00  0.00    +0.000 C 
ATOM      3  N   UNL     1      -0.516  10.581  20.612  0.00  0.00    +0.000 N 
ATOM      4  H   UNL     1      -1.161  10.882  21.331  0.00  0.00    +0.000 HD
ENDROOT
BRANCH   2   5
ATOM      5  C   UNL     1       1.078   8.751  19.974  0.00  0.00    +0.000 A 
ATOM      6  C   UNL     1       1.441   9.444  18.813  0.00  0.00    +0.000 A 
ATOM      7  C   UNL     1       2.303   8.860  17.873  0.00  0.00    +0.000 A 
ATOM      8  C   UNL     1       2.827   7.583  18.091  0.00  0.00    +0.000 A 
ATOM      9  C   UNL     1       2.517   6.929  19.278  0.00  0.00    +0.000 A 
ATOM     10  C   UNL     1       1.677   7.521  20.221  0.00  0.00    +0.000 A 
BRANCH   9  11
ATOM     11  S   UNL     1       3.201   5.339  19.683  0.00  0.00    +0.000 S 
ATOM     12  O   UNL     1       4.638   5.464  19.566  0.00  0.00    +0.000 OA
ATOM     13  O   UNL     1       2.568   4.857  20.885  0.00  0.00    +0.000 OA
BRANCH  11  14
ATOM     14  N   UNL     1       2.633   4.400  18.382  0.00  0.00    +0.000 NA
ATOM     15  C   UNL     1       1.288   3.799  18.501  0.00  0.00    +0.000 C 
ATOM     16  C   UNL     1       1.539   2.308  18.597  0.00  0.00    +0.000 C 
ATOM     17  C   UNL     1       2.781   2.082  17.759  0.00  0.00    +0.000 C 
ATOM     18  C   UNL     1       3.562   3.385  17.843  0.00  0.00    +0.000 C 
ENDBRANCH  11  14
ENDBRANCH   9  11
ENDBRANCH   2   5
BRANCH   3  19
ATOM     19  C   UNL     1      -0.545  11.341  19.371  0.00  0.00    +0.000 C 
BRANCH  19  20
ATOM     20  C   UNL     1      -1.774  11.008  18.515  0.00  0.00    +0.000 A 
ATOM     21  C   UNL     1      -1.715  10.129  17.414  0.00  0.00    +0.000 A 
ATOM     22  C   UNL     1      -2.818   9.951  16.579  0.00  0.00    +0.000 A 
ATOM     23  C   UNL     1      -4.009  10.616  16.849  0.00  0.00    +0.000 A 
ATOM     24  C   UNL     1      -4.092  11.484  17.936  0.00  0.00    +0.000 A 
ATOM     25  C   UNL     1      -2.981  11.690  18.754  0.00  0.00    +0.000 A 
ENDBRANCH  19  20
BRANCH  19  26
ATOM     26  C   UNL     1      -0.322  12.827  19.616  0.00  0.00    +0.000 A 
ATOM     27  C   UNL     1      -0.080  13.668  18.514  0.00  0.00    +0.000 A 
ATOM     28  C   UNL     1      -0.060  15.055  18.664  0.00  0.00    +0.000 A 
ATOM     29  C   UNL     1      -0.259  15.620  19.922  0.00  0.00    +0.000 A 
ATOM     30  C   UNL     1      -0.427  14.797  21.035  0.00  0.00    +0.000 A 
ATOM     31  C   UNL     1      -0.439  13.409  20.887  0.00  0.00    +0.000 A 
ENDBRANCH  19  26
ENDBRANCH   3  19
TORSDOF 6
ENDMDL
MODEL 2
REMARK VINA RESULT:      -8.4      2.036      4.178
REMARK  Name = 
REMARK  6 active torsions:
REMARK  status: ('A' for Active; 'I' for Inactive)
REMARK    1  A    between atoms: C_2  and  C_17
REMARK    2  A    between atoms: N_3  and  C_4
REMARK    3  A    between atoms: C_4  and  C_5
REMARK    4  A    between atoms: C_4  and  C_11
REMARK    5  A    between atoms: C_21  and  S_22
REMARK    6  A    between atoms: S_22  and  N_25
REMARK                            x       y       z     vdW  Elec       q    Type
REMARK                         _______ _______ _______ _____ _____    ______ ____
ROOT
ATOM      1  O   UNL     1       2.681  10.117  17.421  0.00  0.00    +0.000 OA
ATOM      2  C   UNL     1       1.727   9.788  18.121  0.00  0.00    +0.000 C 
ATOM      3  N   UNL     1       0.592  10.569  18.113  0.00  0.00    +0.000 N 
ATOM      4  H   UNL     1       0.684  11.400  17.543  0.00  0.00    +0.000 HD
ENDROOT
BRANCH   2   5
ATOM      5  C   UNL     1       1.817   8.530  18.912  0.00  0.00    +0.000 A 
ATOM      6  C   UNL     1       1.267   8.510  20.199  0.00  0.00    +0.000 A 
ATOM      7  C   UNL     1       1.384   7.371  21.009  0.00  0.00    +0.000 A 
ATOM      8  C   UNL     1       2.037   6.230  20.535  0.00  0.00    +0.000 A 
ATOM      9  C   UNL     1       2.521   6.232  19.232  0.00  0.00    +0.000 A 
ATOM     10  C   UNL     1       2.385   7.360  18.421  0.00  0.00    +0.000 A 
BRANCH   9  11
ATOM     11  S   UNL     1       3.293   4.802  18.512  0.00  0.00    +0.000 S 
ATOM     12  O   UNL     1       3.629   3.918  19.607  0.00  0.00    +0.000 OA
ATOM     13  O   UNL     1       2.501   4.367  17.389  0.00  0.00    +0.000 OA
BRANCH  11  14
ATOM     14  N   UNL     1       4.731   5.480  17.904  0.00  0.00    +0.000 NA
ATOM     15  C   UNL     1       5.017   5.314  16.463  0.00  0.00    +0.000 C 
ATOM     16  C   UNL     1       6.218   4.391  16.413  0.00  0.00    +0.000 C 
ATOM     17  C   UNL     1       7.003   4.728  17.664  0.00  0.00    +0.000 C 
ATOM     18  C   UNL     1       5.966   5.208  18.668  0.00  0.00    +0.000 C 
ENDBRANCH  11  14
ENDBRANCH   9  11
ENDBRANCH   2   5
BRANCH   3  19
ATOM     19  C   UNL     1      -0.600  10.494  18.945  0.00  0.00    +0.000 C 
BRANCH  19  20
ATOM     20  C   UNL     1      -0.567  11.502  20.101  0.00  0.00    +0.000 A 
ATOM     21  C   UNL     1      -0.858  11.139  21.431  0.00  0.00    +0.000 A 
ATOM     22  C   UNL     1      -0.948  12.103  22.434  0.00  0.00    +0.000 A 
ATOM     23  C   UNL     1      -0.711  13.441  22.136  0.00  0.00    +0.000 A 
ATOM     24  C   UNL     1      -0.415  13.822  20.829  0.00  0.00    +0.000 A 
ATOM     25  C   UNL     1      -0.357  12.864  19.817  0.00  0.00    +0.000 A 
ENDBRANCH  19  20
BRANCH  19  26
ATOM     26  C   UNL     1      -1.871  10.525  18.107  0.00  0.00    +0.000 A 
ATOM     27  C   UNL     1      -2.943  11.333  18.530  0.00  0.00    +0.000 A 
ATOM     28  C   UNL     1      -4.049  11.543  17.705  0.00  0.00    +0.000 A 
ATOM     29  C   UNL     1      -4.108  10.932  16.455  0.00  0.00    +0.000 A 
ATOM     30  C   UNL     1      -3.088  10.072  16.053  0.00  0.00    +0.000 A 
ATOM     31  C   UNL     1      -1.985   9.853  16.881  0.00  0.00    +0.000 A 
ENDBRANCH  19  26
ENDBRANCH   3  19
TORSDOF 6
ENDMDL
MODEL 3
REMARK VINA RESULT:      -8.3      3.347      8.468
REMARK  Name = 
REMARK  6 active torsions:
REMARK  status: ('A' for Active; 'I' for Inactive)
REMARK    1  A    between atoms: C_2  and  C_17
REMARK    2  A    between atoms: N_3  and  C_4
REMARK    3  A    between atoms: C_4  and  C_5
REMARK    4  A    between atoms: C_4  and  C_11
REMARK    5  A    between atoms: C_21  and  S_22
REMARK    6  A    between atoms: S_22  and  N_25
REMARK                            x       y       z     vdW  Elec       q    Type
REMARK                         _______ _______ _______ _____ _____    ______ ____
ROOT
ATOM      1  O   UNL     1       1.204   9.055  17.097  0.00  0.00    +0.000 OA
ATOM      2  C   UNL     1       1.683   8.493  18.078  0.00  0.00    +0.000 C 
ATOM      3  N   UNL     1       2.543   7.435  17.888  0.00  0.00    +0.000 N 
ATOM      4  H   UNL     1       2.660   7.186  16.915  0.00  0.00    +0.000 HD
ENDROOT
BRANCH   2   5
ATOM      5  C   UNL     1       1.351   9.011  19.434  0.00  0.00    +0.000 A 
ATOM      6  C   UNL     1       1.634   8.206  20.543  0.00  0.00    +0.000 A 
ATOM      7  C   UNL     1       1.281   8.622  21.836  0.00  0.00    +0.000 A 
ATOM      8  C   UNL     1       0.657   9.855  22.038  0.00  0.00    +0.000 A 
ATOM      9  C   UNL     1       0.440  10.679  20.940  0.00  0.00    +0.000 A 
ATOM     10  C   UNL     1       0.812  10.273  19.657  0.00  0.00    +0.000 A 
BRANCH   9  11
ATOM     11  S   UNL     1      -0.271  12.300  21.104  0.00  0.00    +0.000 S 
ATOM     12  O   UNL     1       0.428  12.950  22.191  0.00  0.00    +0.000 OA
ATOM     13  O   UNL     1      -0.377  12.893  19.795  0.00  0.00    +0.000 OA
BRANCH  11  14
ATOM     14  N   UNL     1      -1.843  11.913  21.629  0.00  0.00    +0.000 NA
ATOM     15  C   UNL     1      -2.977  12.609  20.985  0.00  0.00    +0.000 C 
ATOM     16  C   UNL     1      -3.553  13.495  22.071  0.00  0.00    +0.000 C 
ATOM     17  C   UNL     1      -3.314  12.722  23.352  0.00  0.00    +0.000 C 
ATOM     18  C   UNL     1      -2.067  11.891  23.090  0.00  0.00    +0.000 C 
ENDBRANCH  11  14
ENDBRANCH   9  11
ENDBRANCH   2   5
BRANCH   3  19
ATOM     19  C   UNL     1       3.122   6.515  18.856  0.00  0.00    +0.000 C 
BRANCH  19  20
ATOM     20  C   UNL     1       2.241   5.281  19.085  0.00  0.00    +0.000 A 
ATOM     21  C   UNL     1       1.811   4.884  20.367  0.00  0.00    +0.000 A 
ATOM     22  C   UNL     1       1.122   3.685  20.553  0.00  0.00    +0.000 A 
ATOM     23  C   UNL     1       0.816   2.882  19.460  0.00  0.00    +0.000 A 
ATOM     24  C   UNL     1       1.225   3.259  18.182  0.00  0.00    +0.000 A 
ATOM     25  C   UNL     1       1.943   4.441  17.997  0.00  0.00    +0.000 A 
ENDBRANCH  19  20
BRANCH  19  26
ATOM     26  C   UNL     1       4.579   6.208  18.538  0.00  0.00    +0.000 A 
ATOM     27  C   UNL     1       5.176   6.828  17.425  0.00  0.00    +0.000 A 
ATOM     28  C   UNL     1       6.551   6.730  17.203  0.00  0.00    +0.000 A 
ATOM     29  C   UNL     1       7.343   5.992  18.079  0.00  0.00    +0.000 A 
ATOM     30  C   UNL     1       6.755   5.312  19.143  0.00  0.00    +0.000 A 
ATOM     31  C   UNL     1       5.380   5.403  19.361  0.00  0.00    +0.000 A 
ENDBRANCH  19  26
ENDBRANCH   3  19
TORSDOF 6
ENDMDL
MODEL 4
REMARK VINA RESULT:      -8.3      1.537      3.848
REMARK  Name = 
REMARK  6 active torsions:
REMARK  status: ('A' for Active; 'I' for Inactive)
REMARK    1  A    between atoms: C_2  and  C_17
REMARK    2  A    between atoms: N_3  and  C_4
REMARK    3  A    between atoms: C_4  and  C_5
REMARK    4  A    between atoms: C_4  and  C_11
REMARK    5  A    between atoms: C_21  and  S_22
REMARK    6  A    between atoms: S_22  and  N_25
REMARK                            x       y       z     vdW  Elec       q    Type
REMARK                         _______ _______ _______ _____ _____    ______ ____
ROOT
ATOM      1  O   UNL     1       2.564  10.569  17.569  0.00  0.00    +0.000 OA
ATOM      2  C   UNL     1       1.602  10.246  18.262  0.00  0.00    +0.000 C 
ATOM      3  N   UNL     1       0.463  11.018  18.223  0.00  0.00    +0.000 N 
ATOM      4  H   UNL     1       0.557  11.838  17.639  0.00  0.00    +0.000 HD
ENDROOT
BRANCH   2   5
ATOM      5  C   UNL     1       1.691   9.003  19.077  0.00  0.00    +0.000 A 
ATOM      6  C   UNL     1       1.027   8.965  20.309  0.00  0.00    +0.000 A 
ATOM      7  C   UNL     1       1.133   7.842  21.143  0.00  0.00    +0.000 A 
ATOM      8  C   UNL     1       1.890   6.736  20.748  0.00  0.00    +0.000 A 
ATOM      9  C   UNL     1       2.490   6.753  19.495  0.00  0.00    +0.000 A 
ATOM     10  C   UNL     1       2.365   7.862  18.658  0.00  0.00    +0.000 A 
BRANCH   9  11
ATOM     11  S   UNL     1       3.403   5.361  18.869  0.00  0.00    +0.000 S 
ATOM     12  O   UNL     1       3.225   5.362  17.433  0.00  0.00    +0.000 OA
ATOM     13  O   UNL     1       4.708   5.353  19.482  0.00  0.00    +0.000 OA
BRANCH  11  14
ATOM     14  N   UNL     1       2.512   4.067  19.523  0.00  0.00    +0.000 NA
ATOM     15  C   UNL     1       3.246   2.835  19.880  0.00  0.00    +0.000 C 
ATOM     16  C   UNL     1       2.757   1.796  18.890  0.00  0.00    +0.000 C 
ATOM     17  C   UNL     1       1.319   2.186  18.615  0.00  0.00    +0.000 C 
ATOM     18  C   UNL     1       1.270   3.693  18.815  0.00  0.00    +0.000 C 
ENDBRANCH  11  14
ENDBRANCH   9  11
ENDBRANCH   2   5
BRANCH   3  19
ATOM     19  C   UNL     1      -0.741  10.950  19.039  0.00  0.00    +0.000 C 
BRANCH  19  20
ATOM     20  C   UNL     1      -0.722  11.963  20.190  0.00  0.00    +0.000 A 
ATOM     21  C   UNL     1      -0.189  13.260  20.049  0.00  0.00    +0.000 A 
ATOM     22  C   UNL     1      -0.069  14.109  21.149  0.00  0.00    +0.000 A 
ATOM     23  C   UNL     1      -0.513  13.694  22.399  0.00  0.00    +0.000 A 
ATOM     24  C   UNL     1      -1.049  12.419  22.561  0.00  0.00    +0.000 A 
ATOM     25  C   UNL     1      -1.141  11.555  21.469  0.00  0.00    +0.000 A 
ENDBRANCH  19  20
BRANCH  19  26
ATOM     26  C   UNL     1      -2.001  10.978  18.184  0.00  0.00    +0.000 A 
ATOM     27  C   UNL     1      -2.068  10.153  17.045  0.00  0.00    +0.000 A 
ATOM     28  C   UNL     1      -3.263  10.001  16.342  0.00  0.00    +0.000 A 
ATOM     29  C   UNL     1      -4.403  10.688  16.754  0.00  0.00    +0.000 A 
ATOM     30  C   UNL     1      -4.333  11.565  17.835  0.00  0.00    +0.000 A 
ATOM     31  C   UNL     1      -3.135  11.724  18.534  0.00  0.00    +0.000 A 
ENDBRANCH  19  26
ENDBRANCH   3  19
TORSDOF 6
ENDMDL
MODEL 5
REMARK VINA RESULT:      -8.2      2.058      4.156
REMARK  Name = 
REMARK  6 active torsions:
REMARK  status: ('A' for Active; 'I' for Inactive)
REMARK    1  A    between atoms: C_2  and  C_17
REMARK    2  A    between atoms: N_3  and  C_4
REMARK    3  A    between atoms: C_4  and  C_5
REMARK    4  A    between atoms: C_4  and  C_11
REMARK    5  A    between atoms: C_21  and  S_22
REMARK    6  A    between atoms: S_22  and  N_25
REMARK                            x       y       z     vdW  Elec       q    Type
REMARK                         _______ _______ _______ _____ _____    ______ ____
ROOT
ATOM      1  O   UNL     1       2.673  10.409  17.552  0.00  0.00    +0.000 OA
ATOM      2  C   UNL     1       1.692  10.096  18.221  0.00  0.00    +0.000 C 
ATOM      3  N   UNL     1       0.567  10.890  18.170  0.00  0.00    +0.000 N 
ATOM      4  H   UNL     1       0.687  11.714  17.596  0.00  0.00    +0.000 HD
ENDROOT
BRANCH   2   5
ATOM      5  C   UNL     1       1.742   8.844  19.024  0.00  0.00    +0.000 A 
ATOM      6  C   UNL     1       1.152   8.841  20.294  0.00  0.00    +0.000 A 
ATOM      7  C   UNL     1       1.229   7.706  21.115  0.00  0.00    +0.000 A 
ATOM      8  C   UNL     1       1.881   6.554  20.670  0.00  0.00    +0.000 A 
ATOM      9  C   UNL     1       2.405   6.539  19.383  0.00  0.00    +0.000 A 
ATOM     10  C   UNL     1       2.308   7.662  18.560  0.00  0.00    +0.000 A 
BRANCH   9  11
ATOM     11  S   UNL     1       3.179   5.093  18.697  0.00  0.00    +0.000 S 
ATOM     12  O   UNL     1       3.407   4.184  19.800  0.00  0.00    +0.000 OA
ATOM     13  O   UNL     1       2.455   4.699  17.514  0.00  0.00    +0.000 OA
BRANCH  11  14
ATOM     14  N   UNL     1       4.678   5.730  18.203  0.00  0.00    +0.000 NA
ATOM     15  C   UNL     1       5.013   5.668  16.765  0.00  0.00    +0.000 C 
ATOM     16  C   UNL     1       6.160   4.681  16.679  0.00  0.00    +0.000 C 
ATOM     17  C   UNL     1       6.910   4.863  17.983  0.00  0.00    +0.000 C 
ATOM     18  C   UNL     1       5.862   5.320  18.986  0.00  0.00    +0.000 C 
ENDBRANCH  11  14
ENDBRANCH   9  11
ENDBRANCH   2   5
BRANCH   3  19
ATOM     19  C   UNL     1      -0.653  10.834  18.960  0.00  0.00    +0.000 C 
BRANCH  19  20
ATOM     20  C   UNL     1      -0.641  11.838  20.120  0.00  0.00    +0.000 A 
ATOM     21  C   UNL     1      -0.083  13.126  20.001  0.00  0.00    +0.000 A 
ATOM     22  C   UNL     1       0.029  13.964  21.111  0.00  0.00    +0.000 A 
ATOM     23  C   UNL     1      -0.448  13.547  22.348  0.00  0.00    +0.000 A 
ATOM     24  C   UNL     1      -1.011  12.280  22.487  0.00  0.00    +0.000 A 
ATOM     25  C   UNL     1      -1.095  11.427  21.387  0.00  0.00    +0.000 A 
ENDBRANCH  19  20
BRANCH  19  26
ATOM     26  C   UNL     1      -1.895  10.890  18.081  0.00  0.00    +0.000 A 
ATOM     27  C   UNL     1      -1.955  10.071  16.938  0.00  0.00    +0.000 A 
ATOM     28  C   UNL     1      -3.140   9.944  16.210  0.00  0.00    +0.000 A 
ATOM     29  C   UNL     1      -4.274  10.651  16.603  0.00  0.00    +0.000 A 
ATOM     30  C   UNL     1      -4.209  11.522  17.689  0.00  0.00    +0.000 A 
ATOM     31  C   UNL     1      -3.022  11.656  18.412  0.00  0.00    +0.000 A 
ENDBRANCH  19  26
ENDBRANCH   3  19
TORSDOF 6
ENDMDL
MODEL 6
REMARK VINA RESULT:      -8.2      1.969      4.160
REMARK  Name = 
REMARK  6 active torsions:
REMARK  status: ('A' for Active; 'I' for Inactive)
REMARK    1  A    between atoms: C_2  and  C_17
REMARK    2  A    between atoms: N_3  and  C_4
REMARK    3  A    between atoms: C_4  and  C_5
REMARK    4  A    between atoms: C_4  and  C_11
REMARK    5  A    between atoms: C_21  and  S_22
REMARK    6  A    between atoms: S_22  and  N_25
REMARK                            x       y       z     vdW  Elec       q    Type
REMARK                         _______ _______ _______ _____ _____    ______ ____
ROOT
ATOM      1  O   UNL     1       2.677   9.607  17.221  0.00  0.00    +0.000 OA
ATOM      2  C   UNL     1       1.728   9.375  17.966  0.00  0.00    +0.000 C 
ATOM      3  N   UNL     1       0.642  10.221  17.945  0.00  0.00    +0.000 N 
ATOM      4  H   UNL     1       0.763  11.012  17.326  0.00  0.00    +0.000 HD
ENDROOT
BRANCH   2   5
ATOM      5  C   UNL     1       1.771   8.160  18.825  0.00  0.00    +0.000 A 
ATOM      6  C   UNL     1       1.583   8.311  20.203  0.00  0.00    +0.000 A 
ATOM      7  C   UNL     1       1.678   7.206  21.063  0.00  0.00    +0.000 A 
ATOM      8  C   UNL     1       1.945   5.933  20.552  0.00  0.00    +0.000 A 
ATOM      9  C   UNL     1       2.063   5.779  19.176  0.00  0.00    +0.000 A 
ATOM     10  C   UNL     1       1.946   6.876  18.321  0.00  0.00    +0.000 A 
BRANCH   9  11
ATOM     11  S   UNL     1       2.319   4.188  18.425  0.00  0.00    +0.000 S 
ATOM     12  O   UNL     1       2.098   3.202  19.461  0.00  0.00    +0.000 OA
ATOM     13  O   UNL     1       1.616   4.152  17.168  0.00  0.00    +0.000 OA
BRANCH  11  14
ATOM     14  N   UNL     1       3.987   4.252  18.089  0.00  0.00    +0.000 NA
ATOM     15  C   UNL     1       4.731   5.455  18.519  0.00  0.00    +0.000 C 
ATOM     16  C   UNL     1       5.123   6.146  17.228  0.00  0.00    +0.000 C 
ATOM     17  C   UNL     1       5.326   5.014  16.242  0.00  0.00    +0.000 C 
ATOM     18  C   UNL     1       4.399   3.904  16.713  0.00  0.00    +0.000 C 
ENDBRANCH  11  14
ENDBRANCH   9  11
ENDBRANCH   2   5
BRANCH   3  19
ATOM     19  C   UNL     1      -0.526  10.264  18.813  0.00  0.00    +0.000 C 
BRANCH  19  20
ATOM     20  C   UNL     1      -0.366  11.276  19.954  0.00  0.00    +0.000 A 
ATOM     21  C   UNL     1      -0.752  10.993  21.279  0.00  0.00    +0.000 A 
ATOM     22  C   UNL     1      -0.715  11.980  22.264  0.00  0.00    +0.000 A 
ATOM     23  C   UNL     1      -0.256  13.255  21.954  0.00  0.00    +0.000 A 
ATOM     24  C   UNL     1       0.138  13.556  20.652  0.00  0.00    +0.000 A 
ATOM     25  C   UNL     1       0.071  12.580  19.657  0.00  0.00    +0.000 A 
ENDBRANCH  19  20
BRANCH  19  26
ATOM     26  C   UNL     1      -1.815  10.402  18.014  0.00  0.00    +0.000 A 
ATOM     27  C   UNL     1      -2.851  11.203  18.530  0.00  0.00    +0.000 A 
ATOM     28  C   UNL     1      -3.968  11.514  17.753  0.00  0.00    +0.000 A 
ATOM     29  C   UNL     1      -4.075  11.010  16.459  0.00  0.00    +0.000 A 
ATOM     30  C   UNL     1      -3.092  10.157  15.962  0.00  0.00    +0.000 A 
ATOM     31  C   UNL     1      -1.979   9.838  16.740  0.00  0.00    +0.000 A 
ENDBRANCH  19  26
ENDBRANCH   3  19
TORSDOF 6
ENDMDL
MODEL 7
REMARK VINA RESULT:      -8.1      1.130      1.641
REMARK  Name = 
REMARK  6 active torsions:
REMARK  status: ('A' for Active; 'I' for Inactive)
REMARK    1  A    between atoms: C_2  and  C_17
REMARK    2  A    between atoms: N_3  and  C_4
REMARK    3  A    between atoms: C_4  and  C_5
REMARK    4  A    between atoms: C_4  and  C_11
REMARK    5  A    between atoms: C_21  and  S_22
REMARK    6  A    between atoms: S_22  and  N_25
REMARK                            x       y       z     vdW  Elec       q    Type
REMARK                         _______ _______ _______ _____ _____    ______ ____
ROOT
ATOM      1  O   UNL     1       0.145   8.885  21.932  0.00  0.00    +0.000 OA
ATOM      2  C   UNL     1       0.258   9.488  20.868  0.00  0.00    +0.000 C 
ATOM      3  N   UNL     1      -0.418  10.676  20.699  0.00  0.00    +0.000 N 
ATOM      4  H   UNL     1      -1.004  10.916  21.487  0.00  0.00    +0.000 HD
ENDROOT
BRANCH   2   5
ATOM      5  C   UNL     1       1.161   8.934  19.822  0.00  0.00    +0.000 A 
ATOM      6  C   UNL     1       1.505   9.749  18.737  0.00  0.00    +0.000 A 
ATOM      7  C   UNL     1       2.300   9.252  17.693  0.00  0.00    +0.000 A 
ATOM      8  C   UNL     1       2.775   7.939  17.730  0.00  0.00    +0.000 A 
ATOM      9  C   UNL     1       2.487   7.156  18.842  0.00  0.00    +0.000 A 
ATOM     10  C   UNL     1       1.714   7.660  19.889  0.00  0.00    +0.000 A 
BRANCH   9  11
ATOM     11  S   UNL     1       3.116   5.503  19.018  0.00  0.00    +0.000 S 
ATOM     12  O   UNL     1       2.999   4.875  17.719  0.00  0.00    +0.000 OA
ATOM     13  O   UNL     1       4.365   5.558  19.736  0.00  0.00    +0.000 OA
BRANCH  11  14
ATOM     14  N   UNL     1       1.950   4.820  20.054  0.00  0.00    +0.000 NA
ATOM     15  C   UNL     1       2.385   4.404  21.403  0.00  0.00    +0.000 C 
ATOM     16  C   UNL     1       2.287   2.892  21.390  0.00  0.00    +0.000 C 
ATOM     17  C   UNL     1       1.125   2.599  20.464  0.00  0.00    +0.000 C 
ATOM     18  C   UNL     1       1.096   3.759  19.481  0.00  0.00    +0.000 C 
ENDBRANCH  11  14
ENDBRANCH   9  11
ENDBRANCH   2   5
BRANCH   3  19
ATOM     19  C   UNL     1      -0.577  11.499  19.509  0.00  0.00    +0.000 C 
BRANCH  19  20
ATOM     20  C   UNL     1      -1.917  11.251  18.805  0.00  0.00    +0.000 A 
ATOM     21  C   UNL     1      -3.080  11.985  19.108  0.00  0.00    +0.000 A 
ATOM     22  C   UNL     1      -4.310  11.646  18.544  0.00  0.00    +0.000 A 
ATOM     23  C   UNL     1      -4.393  10.593  17.639  0.00  0.00    +0.000 A 
ATOM     24  C   UNL     1      -3.254   9.857  17.320  0.00  0.00    +0.000 A 
ATOM     25  C   UNL     1      -2.029  10.173  17.907  0.00  0.00    +0.000 A 
ENDBRANCH  19  20
BRANCH  19  26
ATOM     26  C   UNL     1      -0.268  12.963  19.795  0.00  0.00    +0.000 A 
ATOM     27  C   UNL     1      -0.043  13.833  18.712  0.00  0.00    +0.000 A 
ATOM     28  C   UNL     1       0.054  15.211  18.910  0.00  0.00    +0.000 A 
ATOM     29  C   UNL     1      -0.051  15.736  20.196  0.00  0.00    +0.000 A 
ATOM     30  C   UNL     1      -0.201  14.881  21.286  0.00  0.00    +0.000 A 
ATOM     31  C   UNL     1      -0.289  13.501  21.090  0.00  0.00    +0.000 A 
ENDBRANCH  19  26
ENDBRANCH   3  19
TORSDOF 6
ENDMDL
MODEL 8
REMARK VINA RESULT:      -8.1      1.640      3.841
REMARK  Name = 
REMARK  6 active torsions:
REMARK  status: ('A' for Active; 'I' for Inactive)
REMARK    1  A    between atoms: C_2  and  C_17
REMARK    2  A    between atoms: N_3  and  C_4
REMARK    3  A    between atoms: C_4  and  C_5
REMARK    4  A    between atoms: C_4  and  C_11
REMARK    5  A    between atoms: C_21  and  S_22
REMARK    6  A    between atoms: S_22  and  N_25
REMARK                            x       y       z     vdW  Elec       q    Type
REMARK                         _______ _______ _______ _____ _____    ______ ____
ROOT
ATOM      1  O   UNL     1       2.381  11.227  17.971  0.00  0.00    +0.000 OA
ATOM      2  C   UNL     1       1.344  10.827  18.495  0.00  0.00    +0.000 C 
ATOM      3  N   UNL     1       0.173  11.516  18.270  0.00  0.00    +0.000 N 
ATOM      4  H   UNL     1       0.302  12.348  17.710  0.00  0.00    +0.000 HD
ENDROOT
BRANCH   2   5
ATOM      5  C   UNL     1       1.388   9.584  19.313  0.00  0.00    +0.000 A 
ATOM      6  C   UNL     1       0.775   9.591  20.572  0.00  0.00    +0.000 A 
ATOM      7  C   UNL     1       0.845   8.467  21.407  0.00  0.00    +0.000 A 
ATOM      8  C   UNL     1       1.512   7.313  20.987  0.00  0.00    +0.000 A 
ATOM      9  C   UNL     1       2.059   7.288  19.709  0.00  0.00    +0.000 A 
ATOM     10  C   UNL     1       1.969   8.400  18.872  0.00  0.00    +0.000 A 
BRANCH   9  11
ATOM     11  S   UNL     1       2.854   5.839  19.054  0.00  0.00    +0.000 S 
ATOM     12  O   UNL     1       3.024   6.067  17.635  0.00  0.00    +0.000 OA
ATOM     13  O   UNL     1       3.957   5.489  19.914  0.00  0.00    +0.000 OA
BRANCH  11  14
ATOM     14  N   UNL     1       1.634   4.672  19.271  0.00  0.00    +0.000 NA
ATOM     15  C   UNL     1       1.709   3.810  20.469  0.00  0.00    +0.000 C 
ATOM     16  C   UNL     1       2.008   2.426  19.929  0.00  0.00    +0.000 C 
ATOM     17  C   UNL     1       1.315   2.390  18.582  0.00  0.00    +0.000 C 
ATOM     18  C   UNL     1       1.305   3.833  18.100  0.00  0.00    +0.000 C 
ENDBRANCH  11  14
ENDBRANCH   9  11
ENDBRANCH   2   5
BRANCH   3  19
ATOM     19  C   UNL     1      -1.140  11.350  18.875  0.00  0.00    +0.000 C 
BRANCH  19  20
ATOM     20  C   UNL     1      -1.532  12.548  19.750  0.00  0.00    +0.000 A 
ATOM     21  C   UNL     1      -0.937  13.817  19.608  0.00  0.00    +0.000 A 
ATOM     22  C   UNL     1      -1.222  14.847  20.504  0.00  0.00    +0.000 A 
ATOM     23  C   UNL     1      -2.132  14.640  21.535  0.00  0.00    +0.000 A 
ATOM     24  C   UNL     1      -2.737  13.395  21.691  0.00  0.00    +0.000 A 
ATOM     25  C   UNL     1      -2.430  12.353  20.815  0.00  0.00    +0.000 A 
ENDBRANCH  19  20
BRANCH  19  26
ATOM     26  C   UNL     1      -2.186  10.943  17.846  0.00  0.00    +0.000 A 
ATOM     27  C   UNL     1      -3.389  11.669  17.776  0.00  0.00    +0.000 A 
ATOM     28  C   UNL     1      -4.291  11.460  16.733  0.00  0.00    +0.000 A 
ATOM     29  C   UNL     1      -4.014  10.505  15.758  0.00  0.00    +0.000 A 
ATOM     30  C   UNL     1      -2.862   9.726  15.854  0.00  0.00    +0.000 A 
ATOM     31  C   UNL     1      -1.963   9.930  16.902  0.00  0.00    +0.000 A 
ENDBRANCH  19  26
ENDBRANCH   3  19
TORSDOF 6
ENDMDL
MODEL 9
REMARK VINA RESULT:      -8.1      3.056      8.424
REMARK  Name = 
REMARK  6 active torsions:
REMARK  status: ('A' for Active; 'I' for Inactive)
REMARK    1  A    between atoms: C_2  and  C_17
REMARK    2  A    between atoms: N_3  and  C_4
REMARK    3  A    between atoms: C_4  and  C_5
REMARK    4  A    between atoms: C_4  and  C_11
REMARK    5  A    between atoms: C_21  and  S_22
REMARK    6  A    between atoms: S_22  and  N_25
REMARK                            x       y       z     vdW  Elec       q    Type
REMARK                         _______ _______ _______ _____ _____    ______ ____
ROOT
ATOM      1  O   UNL     1       1.219   8.912  17.090  0.00  0.00    +0.000 OA
ATOM      2  C   UNL     1       1.723   8.370  18.070  0.00  0.00    +0.000 C 
ATOM      3  N   UNL     1       2.618   7.341  17.878  0.00  0.00    +0.000 N 
ATOM      4  H   UNL     1       2.737   7.093  16.904  0.00  0.00    +0.000 HD
ENDROOT
BRANCH   2   5
ATOM      5  C   UNL     1       1.382   8.881  19.426  0.00  0.00    +0.000 A 
ATOM      6  C   UNL     1       1.714   8.097  20.537  0.00  0.00    +0.000 A 
ATOM      7  C   UNL     1       1.356   8.504  21.832  0.00  0.00    +0.000 A 
ATOM      8  C   UNL     1       0.678   9.709  22.032  0.00  0.00    +0.000 A 
ATOM      9  C   UNL     1       0.412  10.515  20.932  0.00  0.00    +0.000 A 
ATOM     10  C   UNL     1       0.788  10.119  19.648  0.00  0.00    +0.000 A 
BRANCH   9  11
ATOM     11  S   UNL     1      -0.371  12.103  21.095  0.00  0.00    +0.000 S 
ATOM     12  O   UNL     1      -1.757  11.920  20.720  0.00  0.00    +0.000 OA
ATOM     13  O   UNL     1       0.013  12.679  22.359  0.00  0.00    +0.000 OA
BRANCH  11  14
ATOM     14  N   UNL     1       0.411  12.979  19.863  0.00  0.00    +0.000 NA
ATOM     15  C   UNL     1       1.526  13.869  20.251  0.00  0.00    +0.000 C 
ATOM     16  C   UNL     1       1.006  15.270  19.999  0.00  0.00    +0.000 C 
ATOM     17  C   UNL     1       0.074  15.117  18.814  0.00  0.00    +0.000 C 
ATOM     18  C   UNL     1      -0.458  13.695  18.906  0.00  0.00    +0.000 C 
ENDBRANCH  11  14
ENDBRANCH   9  11
ENDBRANCH   2   5
BRANCH   3  19
ATOM     19  C   UNL     1       3.234   6.445  18.845  0.00  0.00    +0.000 C 
BRANCH  19  20
ATOM     20  C   UNL     1       2.416   5.164  19.053  0.00  0.00    +0.000 A 
ATOM     21  C   UNL     1       2.010   4.342  17.983  0.00  0.00    +0.000 A 
ATOM     22  C   UNL     1       1.158   3.258  18.195  0.00  0.00    +0.000 A 
ATOM     23  C   UNL     1       0.728   2.953  19.482  0.00  0.00    +0.000 A 
ATOM     24  C   UNL     1       1.122   3.748  20.556  0.00  0.00    +0.000 A 
ATOM     25  C   UNL     1       1.948   4.852  20.343  0.00  0.00    +0.000 A 
ENDBRANCH  19  20
BRANCH  19  26
ATOM     26  C   UNL     1       4.709   6.218  18.541  0.00  0.00    +0.000 A 
ATOM     27  C   UNL     1       5.295   6.910  17.465  0.00  0.00    +0.000 A 
ATOM     28  C   UNL     1       6.675   6.884  17.265  0.00  0.00    +0.000 A 
ATOM     29  C   UNL     1       7.487   6.147  18.124  0.00  0.00    +0.000 A 
ATOM     30  C   UNL     1       6.914   5.398  19.150  0.00  0.00    +0.000 A 
ATOM     31  C   UNL     1       5.532   5.416  19.346  0.00  0.00    +0.000 A 
ENDBRANCH  19  26
ENDBRANCH   3  19
TORSDOF 6
ENDMDL
