MODEL 1
REMARK VINA RESULT:      -9.2      0.000      0.000
REMARK  Name = 
REMARK  5 active torsions:
REMARK  status: ('A' for Active; 'I' for Inactive)
REMARK    1  A    between atoms: C_1  and  C_2
REMARK    2  A    between atoms: C_4  and  C_5
REMARK    3  A    between atoms: N_6  and  C_7
REMARK    4  A    between atoms: C_10  and  C_11
REMARK    5  A    between atoms: C_17  and  C_18
REMARK                            x       y       z     vdW  Elec       q    Type
REMARK                         _______ _______ _______ _____ _____    ______ ____
ROOT
ATOM      1  C   UNL     1       3.759   6.775  17.773  0.00  0.00    +0.000 C 
ATOM      2  O   UNL     1       4.860   7.277  17.556  0.00  0.00    +0.000 OA
ATOM      3  N   UNL     1       3.538   5.412  17.557  0.00  0.00    +0.000 N 
ATOM      4  C   UNL     1       2.316   4.649  17.777  0.00  0.00    +0.000 C 
ATOM      5  C   UNL     1       2.757   3.438  18.572  0.00  0.00    +0.000 C 
ATOM      6  C   UNL     1       4.120   3.130  17.987  0.00  0.00    +0.000 C 
ATOM      7  C   UNL     1       4.698   4.507  17.600  0.00  0.00    +0.000 C 
ENDROOT
BRANCH   7   8
ATOM      8  C   UNL     1       5.463   4.407  16.312  0.00  0.00    +0.000 A 
ATOM      9  N   UNL     1       6.534   5.115  16.002  0.00  0.00    +0.000 NA
ATOM     10  C   UNL     1       6.785   4.866  14.684  0.00  0.00    +0.000 A 
ATOM     11  C   UNL     1       7.770   5.421  13.853  0.00  0.00    +0.000 A 
ATOM     12  C   UNL     1       7.809   5.031  12.510  0.00  0.00    +0.000 A 
ATOM     13  C   UNL     1       6.899   4.092  12.018  0.00  0.00    +0.000 A 
ATOM     14  C   UNL     1       5.913   3.523  12.838  0.00  0.00    +0.000 A 
ATOM     15  C   UNL     1       5.878   3.948  14.169  0.00  0.00    +0.000 A 
ATOM     16  N   UNL     1       5.045   3.669  15.228  0.00  0.00    +0.000 N 
ATOM     17  H   UNL     1       4.214   3.084  15.219  0.00  0.00    +0.000 HD
ENDBRANCH   7   8
BRANCH   1  21
ATOM     18  C   UNL     1       0.844   9.481  19.464  0.00  0.00    +0.000 A 
ATOM     19  C   UNL     1       1.334   8.420  20.236  0.00  0.00    +0.000 A 
ATOM     20  C   UNL     1       2.230   7.489  19.688  0.00  0.00    +0.000 A 
ATOM     21  C   UNL     1       2.709   7.647  18.387  0.00  0.00    +0.000 A 
ATOM     22  C   UNL     1       2.170   8.674  17.595  0.00  0.00    +0.000 A 
ATOM     23  C   UNL     1       1.230   9.573  18.120  0.00  0.00    +0.000 A 
BRANCH  18  29
ATOM     24  C   UNL     1      -0.725  12.856  22.536  0.00  0.00    +0.000 C 
ATOM     25  C   UNL     1      -0.742  11.953  21.359  0.00  0.00    +0.000 A 
ATOM     26  C   UNL     1      -1.653  11.962  20.288  0.00  0.00    +0.000 A 
ATOM     27  C   UNL     1      -1.246  10.944  19.450  0.00  0.00    +0.000 A 
ATOM     28  C   UNL     1      -1.949  10.410  18.258  0.00  0.00    +0.000 C 
ATOM     29  N   UNL     1      -0.074  10.433  20.002  0.00  0.00    +0.000 N 
ATOM     30  N   UNL     1       0.159  10.977  21.229  0.00  0.00    +0.000 NA
ENDBRANCH  18  29
ENDBRANCH   1  21
TORSDOF 3
ENDMDL
MODEL 2
REMARK VINA RESULT:      -8.9      0.867      1.741
REMARK  Name = 
REMARK  5 active torsions:
REMARK  status: ('A' for Active; 'I' for Inactive)
REMARK    1  A    between atoms: C_1  and  C_2
REMARK    2  A    between atoms: C_4  and  C_5
REMARK    3  A    between atoms: N_6  and  C_7
REMARK    4  A    between atoms: C_10  and  C_11
REMARK    5  A    between atoms: C_17  and  C_18
REMARK                            x       y       z     vdW  Elec       q    Type
REMARK                         _______ _______ _______ _____ _____    ______ ____
ROOT
ATOM      1  C   UNL     1       3.593   6.900  17.804  0.00  0.00    +0.000 C 
ATOM      2  O   UNL     1       4.655   7.441  17.500  0.00  0.00    +0.000 OA
ATOM      3  N   UNL     1       3.370   5.551  17.518  0.00  0.00    +0.000 N 
ATOM      4  C   UNL     1       2.192   4.746  17.821  0.00  0.00    +0.000 C 
ATOM      5  C   UNL     1       2.740   3.494  18.472  0.00  0.00    +0.000 C 
ATOM      6  C   UNL     1       4.030   3.258  17.716  0.00  0.00    +0.000 C 
ATOM      7  C   UNL     1       4.540   4.672  17.364  0.00  0.00    +0.000 C 
ENDROOT
BRANCH   7   8
ATOM      8  C   UNL     1       5.153   4.678  15.994  0.00  0.00    +0.000 A 
ATOM      9  N   UNL     1       4.818   3.871  15.003  0.00  0.00    +0.000 NA
ATOM     10  C   UNL     1       5.745   4.071  14.021  0.00  0.00    +0.000 A 
ATOM     11  C   UNL     1       5.881   3.415  12.788  0.00  0.00    +0.000 A 
ATOM     12  C   UNL     1       6.944   3.774  11.954  0.00  0.00    +0.000 A 
ATOM     13  C   UNL     1       7.835   4.780  12.333  0.00  0.00    +0.000 A 
ATOM     14  C   UNL     1       7.708   5.451  13.559  0.00  0.00    +0.000 A 
ATOM     15  C   UNL     1       6.654   5.057  14.387  0.00  0.00    +0.000 A 
ATOM     16  N   UNL     1       6.254   5.430  15.650  0.00  0.00    +0.000 N 
ATOM     17  H   UNL     1       6.717   6.086  16.272  0.00  0.00    +0.000 HD
ENDBRANCH   7   8
BRANCH   1  21
ATOM     18  C   UNL     1       0.863   9.415  20.017  0.00  0.00    +0.000 A 
ATOM     19  C   UNL     1       1.389   8.266  20.619  0.00  0.00    +0.000 A 
ATOM     20  C   UNL     1       2.224   7.397  19.900  0.00  0.00    +0.000 A 
ATOM     21  C   UNL     1       2.609   7.703  18.594  0.00  0.00    +0.000 A 
ATOM     22  C   UNL     1       2.032   8.823  17.971  0.00  0.00    +0.000 A 
ATOM     23  C   UNL     1       1.151   9.662  18.667  0.00  0.00    +0.000 A 
BRANCH  18  29
ATOM     24  C   UNL     1      -2.354  12.973  20.548  0.00  0.00    +0.000 C 
ATOM     25  C   UNL     1      -1.447  11.868  20.945  0.00  0.00    +0.000 A 
ATOM     26  C   UNL     1      -1.358  11.247  22.203  0.00  0.00    +0.000 A 
ATOM     27  C   UNL     1      -0.382  10.282  22.069  0.00  0.00    +0.000 A 
ATOM     28  C   UNL     1       0.227   9.447  23.133  0.00  0.00    +0.000 C 
ATOM     29  N   UNL     1       0.005  10.306  20.731  0.00  0.00    +0.000 N 
ATOM     30  N   UNL     1      -0.566  11.358  20.082  0.00  0.00    +0.000 NA
ENDBRANCH  18  29
ENDBRANCH   1  21
TORSDOF 3
ENDMDL
MODEL 3
REMARK VINA RESULT:      -8.8      0.768      1.332
REMARK  Name = 
REMARK  5 active torsions:
REMARK  status: ('A' for Active; 'I' for Inactive)
REMARK    1  A    between atoms: C_1  and  C_2
REMARK    2  A    between atoms: C_4  and  C_5
REMARK    3  A    between atoms: N_6  and  C_7
REMARK    4  A    between atoms: C_10  and  C_11
REMARK    5  A    between atoms: C_17  and  C_18
REMARK                            x       y       z     vdW  Elec       q    Type
REMARK                         _______ _______ _______ _____ _____    ______ ____
ROOT
ATOM      1  C   UNL     1       3.855   6.547  17.843  0.00  0.00    +0.000 C 
ATOM      2  O   UNL     1       4.981   7.012  17.676  0.00  0.00    +0.000 OA
ATOM      3  N   UNL     1       3.571   5.221  17.508  0.00  0.00    +0.000 N 
ATOM      4  C   UNL     1       2.311   4.501  17.655  0.00  0.00    +0.000 C 
ATOM      5  C   UNL     1       2.687   3.206  18.342  0.00  0.00    +0.000 C 
ATOM      6  C   UNL     1       4.039   2.884  17.739  0.00  0.00    +0.000 C 
ATOM      7  C   UNL     1       4.686   4.260  17.476  0.00  0.00    +0.000 C 
ENDROOT
BRANCH   7   8
ATOM      8  C   UNL     1       5.456   4.235  16.188  0.00  0.00    +0.000 A 
ATOM      9  N   UNL     1       6.506   4.988  15.911  0.00  0.00    +0.000 NA
ATOM     10  C   UNL     1       6.768   4.800  14.584  0.00  0.00    +0.000 A 
ATOM     11  C   UNL     1       7.737   5.418  13.780  0.00  0.00    +0.000 A 
ATOM     12  C   UNL     1       7.790   5.084  12.423  0.00  0.00    +0.000 A 
ATOM     13  C   UNL     1       6.911   4.139  11.890  0.00  0.00    +0.000 A 
ATOM     14  C   UNL     1       5.941   3.507  12.682  0.00  0.00    +0.000 A 
ATOM     15  C   UNL     1       5.890   3.876  14.030  0.00  0.00    +0.000 A 
ATOM     16  N   UNL     1       5.064   3.529  15.073  0.00  0.00    +0.000 N 
ATOM     17  H   UNL     1       4.251   2.920  15.038  0.00  0.00    +0.000 HD
ENDBRANCH   7   8
BRANCH   1  21
ATOM     18  C   UNL     1       1.060   9.234  19.753  0.00  0.00    +0.000 A 
ATOM     19  C   UNL     1       1.482   8.080  20.425  0.00  0.00    +0.000 A 
ATOM     20  C   UNL     1       2.336   7.158  19.801  0.00  0.00    +0.000 A 
ATOM     21  C   UNL     1       2.843   7.412  18.526  0.00  0.00    +0.000 A 
ATOM     22  C   UNL     1       2.371   8.537  17.830  0.00  0.00    +0.000 A 
ATOM     23  C   UNL     1       1.472   9.432  18.427  0.00  0.00    +0.000 A 
BRANCH  18  29
ATOM     24  C   UNL     1      -2.174  12.812  19.907  0.00  0.00    +0.000 C 
ATOM     25  C   UNL     1      -1.275  11.748  20.418  0.00  0.00    +0.000 A 
ATOM     26  C   UNL     1      -1.213  11.236  21.725  0.00  0.00    +0.000 A 
ATOM     27  C   UNL     1      -0.232  10.267  21.695  0.00  0.00    +0.000 A 
ATOM     28  C   UNL     1       0.354   9.528  22.840  0.00  0.00    +0.000 C 
ATOM     29  N   UNL     1       0.185  10.179  20.369  0.00  0.00    +0.000 N 
ATOM     30  N   UNL     1      -0.374  11.170  19.620  0.00  0.00    +0.000 NA
ENDBRANCH  18  29
ENDBRANCH   1  21
TORSDOF 3
ENDMDL
MODEL 4
REMARK VINA RESULT:      -8.8      2.513     10.629
REMARK  Name = 
REMARK  5 active torsions:
REMARK  status: ('A' for Active; 'I' for Inactive)
REMARK    1  A    between atoms: C_1  and  C_2
REMARK    2  A    between atoms: C_4  and  C_5
REMARK    3  A    between atoms: N_6  and  C_7
REMARK    4  A    between atoms: C_10  and  C_11
REMARK    5  A    between atoms: C_17  and  C_18
REMARK                            x       y       z     vdW  Elec       q    Type
REMARK                         _______ _______ _______ _____ _____    ______ ____
ROOT
ATOM      1  C   UNL     1       0.425  10.468  19.710  0.00  0.00    +0.000 C 
ATOM      2  O   UNL     1       0.930  11.349  20.404  0.00  0.00    +0.000 OA
ATOM      3  N   UNL     1      -0.869  10.609  19.201  0.00  0.00    +0.000 N 
ATOM      4  C   UNL     1      -1.612   9.686  18.353  0.00  0.00    +0.000 C 
ATOM      5  C   UNL     1      -2.141  10.543  17.223  0.00  0.00    +0.000 C 
ATOM      6  C   UNL     1      -2.460  11.852  17.915  0.00  0.00    +0.000 C 
ATOM      7  C   UNL     1      -1.401  11.971  19.031  0.00  0.00    +0.000 C 
ENDROOT
BRANCH   7   8
ATOM      8  C   UNL     1      -2.013  12.563  20.267  0.00  0.00    +0.000 A 
ATOM      9  N   UNL     1      -2.067  11.976  21.450  0.00  0.00    +0.000 NA
ATOM     10  C   UNL     1      -2.874  12.759  22.225  0.00  0.00    +0.000 A 
ATOM     11  C   UNL     1      -3.309  12.546  23.542  0.00  0.00    +0.000 A 
ATOM     12  C   UNL     1      -4.171  13.483  24.120  0.00  0.00    +0.000 A 
ATOM     13  C   UNL     1      -4.569  14.616  23.407  0.00  0.00    +0.000 A 
ATOM     14  C   UNL     1      -4.137  14.847  22.093  0.00  0.00    +0.000 A 
ATOM     15  C   UNL     1      -3.297  13.883  21.526  0.00  0.00    +0.000 A 
ATOM     16  N   UNL     1      -2.733  13.737  20.280  0.00  0.00    +0.000 N 
ATOM     17  H   UNL     1      -2.870  14.333  19.469  0.00  0.00    +0.000 HD
ENDBRANCH   7   8
BRANCH   1  21
ATOM     18  C   UNL     1       2.798   7.093  18.421  0.00  0.00    +0.000 A 
ATOM     19  C   UNL     1       2.285   7.123  19.724  0.00  0.00    +0.000 A 
ATOM     20  C   UNL     1       1.569   8.237  20.188  0.00  0.00    +0.000 A 
ATOM     21  C   UNL     1       1.287   9.304  19.335  0.00  0.00    +0.000 A 
ATOM     22  C   UNL     1       1.854   9.301  18.049  0.00  0.00    +0.000 A 
ATOM     23  C   UNL     1       2.620   8.215  17.600  0.00  0.00    +0.000 A 
BRANCH  18  29
ATOM     24  C   UNL     1       6.737   4.616  17.144  0.00  0.00    +0.000 C 
ATOM     25  C   UNL     1       5.299   4.876  17.401  0.00  0.00    +0.000 A 
ATOM     26  C   UNL     1       4.252   3.938  17.422  0.00  0.00    +0.000 A 
ATOM     27  C   UNL     1       3.114   4.663  17.711  0.00  0.00    +0.000 A 
ATOM     28  C   UNL     1       1.706   4.196  17.690  0.00  0.00    +0.000 C 
ATOM     29  N   UNL     1       3.536   5.971  17.935  0.00  0.00    +0.000 N 
ATOM     30  N   UNL     1       4.854   6.114  17.627  0.00  0.00    +0.000 NA
ENDBRANCH  18  29
ENDBRANCH   1  21
TORSDOF 3
ENDMDL
MODEL 5
REMARK VINA RESULT:      -8.7      2.175     10.723
REMARK  Name = 
REMARK  5 active torsions:
REMARK  status: ('A' for Active; 'I' for Inactive)
REMARK    1  A    between atoms: C_1  and  C_2
REMARK    2  A    between atoms: C_4  and  C_5
REMARK    3  A    between atoms: N_6  and  C_7
REMARK    4  A    between atoms: C_10  and  C_11
REMARK    5  A    between atoms: C_17  and  C_18
REMARK                            x       y       z     vdW  Elec       q    Type
REMARK                         _______ _______ _______ _____ _____    ______ ____
ROOT
ATOM      1  C   UNL     1       0.709  10.326  20.230  0.00  0.00    +0.000 C 
ATOM      2  O   UNL     1       1.306  11.022  21.049  0.00  0.00    +0.000 OA
ATOM      3  N   UNL     1      -0.547  10.704  19.749  0.00  0.00    +0.000 N 
ATOM      4  C   UNL     1      -1.384  10.019  18.771  0.00  0.00    +0.000 C 
ATOM      5  C   UNL     1      -1.781  11.097  17.784  0.00  0.00    +0.000 C 
ATOM      6  C   UNL     1      -1.947  12.317  18.666  0.00  0.00    +0.000 C 
ATOM      7  C   UNL     1      -0.903  12.132  19.788  0.00  0.00    +0.000 C 
ENDROOT
BRANCH   7   8
ATOM      8  C   UNL     1      -1.458  12.604  21.099  0.00  0.00    +0.000 A 
ATOM      9  N   UNL     1      -2.731  12.555  21.453  0.00  0.00    +0.000 NA
ATOM     10  C   UNL     1      -2.829  13.262  22.616  0.00  0.00    +0.000 A 
ATOM     11  C   UNL     1      -3.972  13.569  23.369  0.00  0.00    +0.000 A 
ATOM     12  C   UNL     1      -3.825  14.348  24.521  0.00  0.00    +0.000 A 
ATOM     13  C   UNL     1      -2.562  14.790  24.922  0.00  0.00    +0.000 A 
ATOM     14  C   UNL     1      -1.408  14.486  24.184  0.00  0.00    +0.000 A 
ATOM     15  C   UNL     1      -1.584  13.728  23.023  0.00  0.00    +0.000 A 
ATOM     16  N   UNL     1      -0.725  13.294  22.039  0.00  0.00    +0.000 N 
ATOM     17  H   UNL     1       0.267  13.497  21.955  0.00  0.00    +0.000 HD
ENDBRANCH   7   8
BRANCH   1  21
ATOM     18  C   UNL     1       2.645   6.893  18.456  0.00  0.00    +0.000 A 
ATOM     19  C   UNL     1       2.252   6.850  19.799  0.00  0.00    +0.000 A 
ATOM     20  C   UNL     1       1.683   7.974  20.417  0.00  0.00    +0.000 A 
ATOM     21  C   UNL     1       1.426   9.132  19.683  0.00  0.00    +0.000 A 
ATOM     22  C   UNL     1       1.877   9.196  18.353  0.00  0.00    +0.000 A 
ATOM     23  C   UNL     1       2.500   8.095  17.748  0.00  0.00    +0.000 A 
BRANCH  18  29
ATOM     24  C   UNL     1       6.118   4.387  16.233  0.00  0.00    +0.000 C 
ATOM     25  C   UNL     1       4.798   4.654  16.854  0.00  0.00    +0.000 A 
ATOM     26  C   UNL     1       3.797   3.719  17.167  0.00  0.00    +0.000 A 
ATOM     27  C   UNL     1       2.773   4.450  17.732  0.00  0.00    +0.000 A 
ATOM     28  C   UNL     1       1.411   3.985  18.091  0.00  0.00    +0.000 C 
ATOM     29  N   UNL     1       3.233   5.762  17.813  0.00  0.00    +0.000 N 
ATOM     30  N   UNL     1       4.424   5.897  17.166  0.00  0.00    +0.000 NA
ENDBRANCH  18  29
ENDBRANCH   1  21
TORSDOF 3
ENDMDL
MODEL 6
REMARK VINA RESULT:      -8.7      2.577     10.732
REMARK  Name = 
REMARK  5 active torsions:
REMARK  status: ('A' for Active; 'I' for Inactive)
REMARK    1  A    between atoms: C_1  and  C_2
REMARK    2  A    between atoms: C_4  and  C_5
REMARK    3  A    between atoms: N_6  and  C_7
REMARK    4  A    between atoms: C_10  and  C_11
REMARK    5  A    between atoms: C_17  and  C_18
REMARK                            x       y       z     vdW  Elec       q    Type
REMARK                         _______ _______ _______ _____ _____    ______ ____
ROOT
ATOM      1  C   UNL     1       0.606  10.420  19.910  0.00  0.00    +0.000 C 
ATOM      2  O   UNL     1       1.220  11.166  20.671  0.00  0.00    +0.000 OA
ATOM      3  N   UNL     1      -0.699  10.722  19.511  0.00  0.00    +0.000 N 
ATOM      4  C   UNL     1      -1.563   9.971  18.608  0.00  0.00    +0.000 C 
ATOM      5  C   UNL     1      -2.084  11.003  17.630  0.00  0.00    +0.000 C 
ATOM      6  C   UNL     1      -2.254  12.233  18.497  0.00  0.00    +0.000 C 
ATOM      7  C   UNL     1      -1.127  12.130  19.546  0.00  0.00    +0.000 C 
ENDROOT
BRANCH   7   8
ATOM      8  C   UNL     1      -1.615  12.603  20.884  0.00  0.00    +0.000 A 
ATOM      9  N   UNL     1      -2.876  12.607  21.280  0.00  0.00    +0.000 NA
ATOM     10  C   UNL     1      -2.901  13.297  22.458  0.00  0.00    +0.000 A 
ATOM     11  C   UNL     1      -4.003  13.643  23.254  0.00  0.00    +0.000 A 
ATOM     12  C   UNL     1      -3.780  14.393  24.413  0.00  0.00    +0.000 A 
ATOM     13  C   UNL     1      -2.485  14.768  24.778  0.00  0.00    +0.000 A 
ATOM     14  C   UNL     1      -1.372  14.424  23.996  0.00  0.00    +0.000 A 
ATOM     15  C   UNL     1      -1.622  13.696  22.829  0.00  0.00    +0.000 A 
ATOM     16  N   UNL     1      -0.819  13.240  21.809  0.00  0.00    +0.000 N 
ATOM     17  H   UNL     1       0.178  13.398  21.695  0.00  0.00    +0.000 HD
ENDBRANCH   7   8
BRANCH   1  21
ATOM     18  C   UNL     1       2.879   7.046  18.452  0.00  0.00    +0.000 A 
ATOM     19  C   UNL     1       2.602   8.118  17.594  0.00  0.00    +0.000 A 
ATOM     20  C   UNL     1       1.810   9.194  18.023  0.00  0.00    +0.000 A 
ATOM     21  C   UNL     1       1.347   9.253  19.338  0.00  0.00    +0.000 A 
ATOM     22  C   UNL     1       1.573   8.150  20.178  0.00  0.00    +0.000 A 
ATOM     23  C   UNL     1       2.315   7.045  19.735  0.00  0.00    +0.000 A 
BRANCH  18  29
ATOM     24  C   UNL     1       6.958   4.652  17.497  0.00  0.00    +0.000 C 
ATOM     25  C   UNL     1       5.499   4.881  17.640  0.00  0.00    +0.000 A 
ATOM     26  C   UNL     1       4.474   3.922  17.582  0.00  0.00    +0.000 A 
ATOM     27  C   UNL     1       3.302   4.622  17.778  0.00  0.00    +0.000 A 
ATOM     28  C   UNL     1       1.911   4.125  17.649  0.00  0.00    +0.000 C 
ATOM     29  N   UNL     1       3.677   5.940  18.029  0.00  0.00    +0.000 N 
ATOM     30  N   UNL     1       5.012   6.110  17.825  0.00  0.00    +0.000 NA
ENDBRANCH  18  29
ENDBRANCH   1  21
TORSDOF 3
ENDMDL
MODEL 7
REMARK VINA RESULT:      -8.5      2.729     10.874
REMARK  Name = 
REMARK  5 active torsions:
REMARK  status: ('A' for Active; 'I' for Inactive)
REMARK    1  A    between atoms: C_1  and  C_2
REMARK    2  A    between atoms: C_4  and  C_5
REMARK    3  A    between atoms: N_6  and  C_7
REMARK    4  A    between atoms: C_10  and  C_11
REMARK    5  A    between atoms: C_17  and  C_18
REMARK                            x       y       z     vdW  Elec       q    Type
REMARK                         _______ _______ _______ _____ _____    ______ ____
ROOT
ATOM      1  C   UNL     1       0.751  10.367  20.446  0.00  0.00    +0.000 C 
ATOM      2  O   UNL     1       1.409  10.888  21.345  0.00  0.00    +0.000 OA
ATOM      3  N   UNL     1      -0.419  10.968  19.974  0.00  0.00    +0.000 N 
ATOM      4  C   UNL     1      -1.305  10.508  18.912  0.00  0.00    +0.000 C 
ATOM      5  C   UNL     1      -1.507  11.722  18.029  0.00  0.00    +0.000 C 
ATOM      6  C   UNL     1      -1.532  12.862  19.025  0.00  0.00    +0.000 C 
ATOM      7  C   UNL     1      -0.570  12.422  20.147  0.00  0.00    +0.000 C 
ENDROOT
BRANCH   7   8
ATOM      8  C   UNL     1      -1.104  12.842  21.485  0.00  0.00    +0.000 A 
ATOM      9  N   UNL     1      -2.284  12.506  21.977  0.00  0.00    +0.000 NA
ATOM     10  C   UNL     1      -2.451  13.255  23.106  0.00  0.00    +0.000 A 
ATOM     11  C   UNL     1      -3.561  13.327  23.962  0.00  0.00    +0.000 A 
ATOM     12  C   UNL     1      -3.510  14.204  25.049  0.00  0.00    +0.000 A 
ATOM     13  C   UNL     1      -2.370  14.974  25.288  0.00  0.00    +0.000 A 
ATOM     14  C   UNL     1      -1.249  14.909  24.446  0.00  0.00    +0.000 A 
ATOM     15  C   UNL     1      -1.333  14.044  23.351  0.00  0.00    +0.000 A 
ATOM     16  N   UNL     1      -0.486  13.761  22.303  0.00  0.00    +0.000 N 
ATOM     17  H   UNL     1       0.409  14.196  22.102  0.00  0.00    +0.000 HD
ENDBRANCH   7   8
BRANCH   1  21
ATOM     18  C   UNL     1       2.523   6.803  18.761  0.00  0.00    +0.000 A 
ATOM     19  C   UNL     1       2.291   7.915  17.942  0.00  0.00    +0.000 A 
ATOM     20  C   UNL     1       1.656   9.059  18.449  0.00  0.00    +0.000 A 
ATOM     21  C   UNL     1       1.313   9.140  19.800  0.00  0.00    +0.000 A 
ATOM     22  C   UNL     1       1.490   8.003  20.605  0.00  0.00    +0.000 A 
ATOM     23  C   UNL     1       2.071   6.835  20.088  0.00  0.00    +0.000 A 
BRANCH  18  29
ATOM     24  C   UNL     1       2.985   2.096  17.805  0.00  0.00    +0.000 C 
ATOM     25  C   UNL     1       3.335   3.538  17.817  0.00  0.00    +0.000 A 
ATOM     26  C   UNL     1       4.364   4.173  17.101  0.00  0.00    +0.000 A 
ATOM     27  C   UNL     1       4.278   5.508  17.438  0.00  0.00    +0.000 A 
ATOM     28  C   UNL     1       5.225   6.597  17.097  0.00  0.00    +0.000 C 
ATOM     29  N   UNL     1       3.160   5.628  18.260  0.00  0.00    +0.000 N 
ATOM     30  N   UNL     1       2.662   4.402  18.581  0.00  0.00    +0.000 NA
ENDBRANCH  18  29
ENDBRANCH   1  21
TORSDOF 3
ENDMDL
MODEL 8
REMARK VINA RESULT:      -8.5      2.521     10.670
REMARK  Name = 
REMARK  5 active torsions:
REMARK  status: ('A' for Active; 'I' for Inactive)
REMARK    1  A    between atoms: C_1  and  C_2
REMARK    2  A    between atoms: C_4  and  C_5
REMARK    3  A    between atoms: N_6  and  C_7
REMARK    4  A    between atoms: C_10  and  C_11
REMARK    5  A    between atoms: C_17  and  C_18
REMARK                            x       y       z     vdW  Elec       q    Type
REMARK                         _______ _______ _______ _____ _____    ______ ____
ROOT
ATOM      1  C   UNL     1       0.607   9.440  20.640  0.00  0.00    +0.000 C 
ATOM      2  O   UNL     1       0.136   9.054  21.709  0.00  0.00    +0.000 OA
ATOM      3  N   UNL     1       0.488  10.775  20.246  0.00  0.00    +0.000 N 
ATOM      4  C   UNL     1       0.996  11.409  19.035  0.00  0.00    +0.000 C 
ATOM      5  C   UNL     1       1.711  12.651  19.523  0.00  0.00    +0.000 C 
ATOM      6  C   UNL     1       0.850  13.101  20.685  0.00  0.00    +0.000 C 
ATOM      7  C   UNL     1       0.301  11.793  21.293  0.00  0.00    +0.000 C 
ENDROOT
BRANCH   7   8
ATOM      8  C   UNL     1      -1.120  11.982  21.738  0.00  0.00    +0.000 A 
ATOM      9  N   UNL     1      -2.112  12.399  20.971  0.00  0.00    +0.000 NA
ATOM     10  C   UNL     1      -3.168  12.624  21.805  0.00  0.00    +0.000 A 
ATOM     11  C   UNL     1      -4.439  13.137  21.504  0.00  0.00    +0.000 A 
ATOM     12  C   UNL     1      -5.354  13.312  22.546  0.00  0.00    +0.000 A 
ATOM     13  C   UNL     1      -5.014  12.960  23.855  0.00  0.00    +0.000 A 
ATOM     14  C   UNL     1      -3.751  12.439  24.172  0.00  0.00    +0.000 A 
ATOM     15  C   UNL     1      -2.844  12.298  23.117  0.00  0.00    +0.000 A 
ATOM     16  N   UNL     1      -1.532  11.889  23.048  0.00  0.00    +0.000 N 
ATOM     17  H   UNL     1      -0.927  11.633  23.822  0.00  0.00    +0.000 HD
ENDBRANCH   7   8
BRANCH   1  21
ATOM     18  C   UNL     1       3.068   6.584  18.528  0.00  0.00    +0.000 A 
ATOM     19  C   UNL     1       2.682   7.770  17.892  0.00  0.00    +0.000 A 
ATOM     20  C   UNL     1       1.829   8.682  18.532  0.00  0.00    +0.000 A 
ATOM     21  C   UNL     1       1.410   8.461  19.844  0.00  0.00    +0.000 A 
ATOM     22  C   UNL     1       1.747   7.243  20.458  0.00  0.00    +0.000 A 
ATOM     23  C   UNL     1       2.553   6.302  19.801  0.00  0.00    +0.000 A 
BRANCH  18  29
ATOM     24  C   UNL     1       7.269   4.775  16.991  0.00  0.00    +0.000 C 
ATOM     25  C   UNL     1       5.808   4.838  17.241  0.00  0.00    +0.000 A 
ATOM     26  C   UNL     1       4.868   3.807  17.075  0.00  0.00    +0.000 A 
ATOM     27  C   UNL     1       3.655   4.352  17.441  0.00  0.00    +0.000 A 
ATOM     28  C   UNL     1       2.306   3.752  17.299  0.00  0.00    +0.000 C 
ATOM     29  N   UNL     1       3.930   5.641  17.889  0.00  0.00    +0.000 N 
ATOM     30  N   UNL     1       5.230   5.969  17.652  0.00  0.00    +0.000 NA
ENDBRANCH  18  29
ENDBRANCH   1  21
TORSDOF 3
ENDMDL
MODEL 9
REMARK VINA RESULT:      -8.4      2.703     10.901
REMARK  Name = 
REMARK  5 active torsions:
REMARK  status: ('A' for Active; 'I' for Inactive)
REMARK    1  A    between atoms: C_1  and  C_2
REMARK    2  A    between atoms: C_4  and  C_5
REMARK    3  A    between atoms: N_6  and  C_7
REMARK    4  A    between atoms: C_10  and  C_11
REMARK    5  A    between atoms: C_17  and  C_18
REMARK                            x       y       z     vdW  Elec       q    Type
REMARK                         _______ _______ _______ _____ _____    ______ ____
ROOT
ATOM      1  C   UNL     1       0.119  10.024  20.792  0.00  0.00    +0.000 C 
ATOM      2  O   UNL     1      -0.012   9.942  22.012  0.00  0.00    +0.000 OA
ATOM      3  N   UNL     1      -0.467  11.073  20.078  0.00  0.00    +0.000 N 
ATOM      4  C   UNL     1      -0.402  11.338  18.646  0.00  0.00    +0.000 C 
ATOM      5  C   UNL     1      -0.019  12.800  18.544  0.00  0.00    +0.000 C 
ATOM      6  C   UNL     1      -0.751  13.422  19.715  0.00  0.00    +0.000 C 
ATOM      7  C   UNL     1      -0.760  12.323  20.798  0.00  0.00    +0.000 C 
ENDROOT
BRANCH   7   8
ATOM      8  C   UNL     1      -2.066  12.331  21.536  0.00  0.00    +0.000 A 
ATOM      9  N   UNL     1      -3.233  12.676  21.022  0.00  0.00    +0.000 NA
ATOM     10  C   UNL     1      -4.106  12.739  22.069  0.00  0.00    +0.000 A 
ATOM     11  C   UNL     1      -5.455  13.125  22.073  0.00  0.00    +0.000 A 
ATOM     12  C   UNL     1      -6.142  13.142  23.291  0.00  0.00    +0.000 A 
ATOM     13  C   UNL     1      -5.502  12.761  24.472  0.00  0.00    +0.000 A 
ATOM     14  C   UNL     1      -4.156  12.365  24.484  0.00  0.00    +0.000 A 
ATOM     15  C   UNL     1      -3.483  12.381  23.259  0.00  0.00    +0.000 A 
ATOM     16  N   UNL     1      -2.182  12.124  22.893  0.00  0.00    +0.000 N 
ATOM     17  H   UNL     1      -1.404  11.894  23.505  0.00  0.00    +0.000 HD
ENDBRANCH   7   8
BRANCH   1  21
ATOM     18  C   UNL     1       2.591   7.184  18.673  0.00  0.00    +0.000 A 
ATOM     19  C   UNL     1       2.216   6.923  19.996  0.00  0.00    +0.000 A 
ATOM     20  C   UNL     1       1.470   7.860  20.728  0.00  0.00    +0.000 A 
ATOM     21  C   UNL     1       1.022   9.036  20.125  0.00  0.00    +0.000 A 
ATOM     22  C   UNL     1       1.451   9.324  18.819  0.00  0.00    +0.000 A 
ATOM     23  C   UNL     1       2.246   8.417  18.103  0.00  0.00    +0.000 A 
BRANCH  18  29
ATOM     24  C   UNL     1       6.492   5.475  16.404  0.00  0.00    +0.000 C 
ATOM     25  C   UNL     1       5.109   5.489  16.939  0.00  0.00    +0.000 A 
ATOM     26  C   UNL     1       4.210   4.412  17.011  0.00  0.00    +0.000 A 
ATOM     27  C   UNL     1       3.067   4.923  17.589  0.00  0.00    +0.000 A 
ATOM     28  C   UNL     1       1.750   4.259  17.748  0.00  0.00    +0.000 C 
ATOM     29  N   UNL     1       3.357   6.245  17.916  0.00  0.00    +0.000 N 
ATOM     30  N   UNL     1       4.565   6.615  17.407  0.00  0.00    +0.000 NA
ENDBRANCH  18  29
ENDBRANCH   1  21
TORSDOF 3
ENDMDL
