MODEL 1
REMARK VINA RESULT:      -8.4      0.000      0.000
REMARK  Name = 
REMARK  5 active torsions:
REMARK  status: ('A' for Active; 'I' for Inactive)
REMARK    1  A    between atoms: C_2  and  C_11
REMARK    2  A    between atoms: N_3  and  C_4
REMARK    3  A    between atoms: C_4  and  C_5
REMARK    4  A    between atoms: C_13  and  C_14
REMARK    5  A    between atoms: C_17  and  O_18
REMARK                            x       y       z     vdW  Elec       q    Type
REMARK                         _______ _______ _______ _____ _____    ______ ____
ROOT
ATOM      1  C   UNL     1       4.259   5.401  19.253  0.00  0.00    +0.000 A 
ATOM      2  C   UNL     1       3.748   6.681  19.038  0.00  0.00    +0.000 A 
ATOM      3  C   UNL     1       2.466   7.027  19.448  0.00  0.00    +0.000 A 
ATOM      4  N   UNL     1       1.713   6.225  20.105  0.00  0.00    +0.000 NA
ATOM      5  C   UNL     1       2.270   4.954  20.422  0.00  0.00    +0.000 A 
ATOM      6  C   UNL     1       1.370   4.174  21.022  0.00  0.00    +0.000 A 
ATOM      7  C   UNL     1       1.804   2.915  21.282  0.00  0.00    +0.000 A 
ATOM      8  C   UNL     1       2.178   1.776  21.527  0.00  0.00    +0.000 A 
ATOM      9  C   UNL     1       3.318   2.961  20.547  0.00  0.00    +0.000 A 
ATOM     10  C   UNL     1       3.407   4.438  19.989  0.00  0.00    +0.000 A 
ENDROOT
BRANCH   3  11
ATOM     11  C   UNL     1       1.923   8.365  19.169  0.00  0.00    +0.000 A 
ATOM     12  C   UNL     1       1.096   9.018  20.079  0.00  0.00    +0.000 A 
ATOM     13  C   UNL     1       0.596  10.291  19.838  0.00  0.00    +0.000 A 
ATOM     14  C   UNL     1       0.930  10.929  18.665  0.00  0.00    +0.000 A 
ATOM     15  C   UNL     1       1.717  10.288  17.732  0.00  0.00    +0.000 A 
ATOM     16  C   UNL     1       2.206   9.026  17.987  0.00  0.00    +0.000 A 
BRANCH  14  17
ATOM     17  O   UNL     1       0.519  12.180  18.334  0.00  0.00    +0.000 OA
ATOM     18  H   UNL     1       0.823  12.899  18.909  0.00  0.00    +0.000 HD
ENDBRANCH  14  17
ENDBRANCH   3  11
BRANCH   1  20
ATOM     19  O   UNL     1       6.487   4.562  19.388  0.00  0.00    +0.000 OA
ATOM     20  C   UNL     1       5.615   5.036  18.660  0.00  0.00    +0.000 C 
ATOM     21  N   UNL     1       5.847   5.278  17.288  0.00  0.00    +0.000 N 
ATOM     22  H   UNL     1       5.132   5.660  16.670  0.00  0.00    +0.000 HD
BRANCH  21  23
ATOM     23  C   UNL     1       7.141   4.978  16.660  0.00  0.00    +0.000 C 
BRANCH  23  24
ATOM     24  C   UNL     1       7.024   4.717  15.180  0.00  0.00    +0.000 A 
ATOM     25  C   UNL     1       6.045   3.845  14.743  0.00  0.00    +0.000 A 
ATOM     26  C   UNL     1       5.889   3.609  13.399  0.00  0.00    +0.000 A 
ATOM     27  C   UNL     1       6.711   4.261  12.520  0.00  0.00    +0.000 A 
ATOM     28  C   UNL     1       7.650   5.125  13.017  0.00  0.00    +0.000 A 
ATOM     29  N   UNL     1       7.843   5.363  14.323  0.00  0.00    +0.000 NA
ENDBRANCH  23  24
ENDBRANCH  21  23
ENDBRANCH   1  20
TORSDOF 5
ENDMDL
MODEL 2
REMARK VINA RESULT:      -8.4      2.440      7.234
REMARK  Name = 
REMARK  5 active torsions:
REMARK  status: ('A' for Active; 'I' for Inactive)
REMARK    1  A    between atoms: C_2  and  C_11
REMARK    2  A    between atoms: N_3  and  C_4
REMARK    3  A    between atoms: C_4  and  C_5
REMARK    4  A    between atoms: C_13  and  C_14
REMARK    5  A    between atoms: C_17  and  O_18
REMARK                            x       y       z     vdW  Elec       q    Type
REMARK                         _______ _______ _______ _____ _____    ______ ____
ROOT
ATOM      1  C   UNL     1       2.633   6.362  19.105  0.00  0.00    +0.000 A 
ATOM      2  C   UNL     1       3.543   6.344  18.049  0.00  0.00    +0.000 A 
ATOM      3  C   UNL     1       4.187   5.174  17.667  0.00  0.00    +0.000 A 
ATOM      4  N   UNL     1       3.933   4.040  18.208  0.00  0.00    +0.000 NA
ATOM      5  C   UNL     1       2.926   4.032  19.213  0.00  0.00    +0.000 A 
ATOM      6  C   UNL     1       2.812   2.824  19.766  0.00  0.00    +0.000 A 
ATOM      7  C   UNL     1       1.927   2.759  20.793  0.00  0.00    +0.000 A 
ATOM      8  C   UNL     1       1.131   2.679  21.719  0.00  0.00    +0.000 A 
ATOM      9  C   UNL     1       1.495   4.381  20.921  0.00  0.00    +0.000 A 
ATOM     10  C   UNL     1       2.331   5.073  19.771  0.00  0.00    +0.000 A 
ENDROOT
BRANCH   3  11
ATOM     11  C   UNL     1       5.182   5.182  16.584  0.00  0.00    +0.000 A 
ATOM     12  C   UNL     1       5.011   4.415  15.435  0.00  0.00    +0.000 A 
ATOM     13  C   UNL     1       5.932   4.433  14.394  0.00  0.00    +0.000 A 
ATOM     14  C   UNL     1       7.045   5.234  14.501  0.00  0.00    +0.000 A 
ATOM     15  C   UNL     1       7.255   5.974  15.645  0.00  0.00    +0.000 A 
ATOM     16  C   UNL     1       6.332   5.948  16.666  0.00  0.00    +0.000 A 
BRANCH  14  17
ATOM     17  O   UNL     1       7.997   5.348  13.539  0.00  0.00    +0.000 OA
ATOM     18  H   UNL     1       7.823   5.991  12.834  0.00  0.00    +0.000 HD
ENDBRANCH  14  17
ENDBRANCH   3  11
BRANCH   1  20
ATOM     19  O   UNL     1       1.733   7.839  20.748  0.00  0.00    +0.000 OA
ATOM     20  C   UNL     1       2.062   7.697  19.570  0.00  0.00    +0.000 C 
ATOM     21  N   UNL     1       1.898   8.733  18.624  0.00  0.00    +0.000 N 
ATOM     22  H   UNL     1       2.175   8.635  17.649  0.00  0.00    +0.000 HD
BRANCH  21  23
ATOM     23  C   UNL     1       1.325  10.033  18.999  0.00  0.00    +0.000 C 
BRANCH  23  24
ATOM     24  C   UNL     1      -0.101  10.195  18.537  0.00  0.00    +0.000 A 
ATOM     25  C   UNL     1      -0.927  11.050  19.242  0.00  0.00    +0.000 A 
ATOM     26  C   UNL     1      -2.222  11.247  18.829  0.00  0.00    +0.000 A 
ATOM     27  C   UNL     1      -2.659  10.589  17.711  0.00  0.00    +0.000 A 
ATOM     28  C   UNL     1      -1.787   9.767  17.049  0.00  0.00    +0.000 A 
ATOM     29  N   UNL     1      -0.522   9.538  17.435  0.00  0.00    +0.000 NA
ENDBRANCH  23  24
ENDBRANCH  21  23
ENDBRANCH   1  20
TORSDOF 5
ENDMDL
MODEL 3
REMARK VINA RESULT:      -8.3      1.693      2.098
REMARK  Name = 
REMARK  5 active torsions:
REMARK  status: ('A' for Active; 'I' for Inactive)
REMARK    1  A    between atoms: C_2  and  C_11
REMARK    2  A    between atoms: N_3  and  C_4
REMARK    3  A    between atoms: C_4  and  C_5
REMARK    4  A    between atoms: C_13  and  C_14
REMARK    5  A    between atoms: C_17  and  O_18
REMARK                            x       y       z     vdW  Elec       q    Type
REMARK                         _______ _______ _______ _____ _____    ______ ____
ROOT
ATOM      1  C   UNL     1       4.177   6.013  17.546  0.00  0.00    +0.000 A 
ATOM      2  C   UNL     1       3.528   7.121  18.090  0.00  0.00    +0.000 A 
ATOM      3  C   UNL     1       2.460   6.976  18.966  0.00  0.00    +0.000 A 
ATOM      4  N   UNL     1       2.059   5.832  19.381  0.00  0.00    +0.000 NA
ATOM      5  C   UNL     1       2.788   4.702  18.914  0.00  0.00    +0.000 A 
ATOM      6  C   UNL     1       2.228   3.566  19.334  0.00  0.00    +0.000 A 
ATOM      7  C   UNL     1       2.820   2.441  18.859  0.00  0.00    +0.000 A 
ATOM      8  C   UNL     1       3.342   1.415  18.445  0.00  0.00    +0.000 A 
ATOM      9  C   UNL     1       3.957   3.116  17.817  0.00  0.00    +0.000 A 
ATOM     10  C   UNL     1       3.726   4.672  17.984  0.00  0.00    +0.000 A 
ENDROOT
BRANCH   3  11
ATOM     11  C   UNL     1       1.753   8.155  19.491  0.00  0.00    +0.000 A 
ATOM     12  C   UNL     1       1.456   9.246  18.677  0.00  0.00    +0.000 A 
ATOM     13  C   UNL     1       0.768  10.354  19.154  0.00  0.00    +0.000 A 
ATOM     14  C   UNL     1       0.364  10.375  20.470  0.00  0.00    +0.000 A 
ATOM     15  C   UNL     1       0.679   9.323  21.304  0.00  0.00    +0.000 A 
ATOM     16  C   UNL     1       1.360   8.230  20.815  0.00  0.00    +0.000 A 
BRANCH  14  17
ATOM     17  O   UNL     1      -0.333  11.392  21.037  0.00  0.00    +0.000 OA
ATOM     18  H   UNL     1      -0.959  11.860  20.461  0.00  0.00    +0.000 HD
ENDBRANCH  14  17
ENDBRANCH   3  11
BRANCH   1  20
ATOM     19  O   UNL     1       5.079   7.085  15.615  0.00  0.00    +0.000 OA
ATOM     20  C   UNL     1       5.250   6.230  16.484  0.00  0.00    +0.000 C 
ATOM     21  N   UNL     1       6.406   5.419  16.509  0.00  0.00    +0.000 N 
ATOM     22  H   UNL     1       6.567   4.715  17.227  0.00  0.00    +0.000 HD
BRANCH  21  23
ATOM     23  C   UNL     1       7.463   5.555  15.497  0.00  0.00    +0.000 C 
BRANCH  23  24
ATOM     24  C   UNL     1       7.119   4.868  14.200  0.00  0.00    +0.000 A 
ATOM     25  C   UNL     1       6.125   3.909  14.209  0.00  0.00    +0.000 A 
ATOM     26  C   UNL     1       5.763   3.287  13.038  0.00  0.00    +0.000 A 
ATOM     27  C   UNL     1       6.400   3.647  11.882  0.00  0.00    +0.000 A 
ATOM     28  C   UNL     1       7.366   4.616  11.938  0.00  0.00    +0.000 A 
ATOM     29  N   UNL     1       7.757   5.229  13.066  0.00  0.00    +0.000 NA
ENDBRANCH  23  24
ENDBRANCH  21  23
ENDBRANCH   1  20
TORSDOF 5
ENDMDL
MODEL 4
REMARK VINA RESULT:      -8.2      2.509      7.175
REMARK  Name = 
REMARK  5 active torsions:
REMARK  status: ('A' for Active; 'I' for Inactive)
REMARK    1  A    between atoms: C_2  and  C_11
REMARK    2  A    between atoms: N_3  and  C_4
REMARK    3  A    between atoms: C_4  and  C_5
REMARK    4  A    between atoms: C_13  and  C_14
REMARK    5  A    between atoms: C_17  and  O_18
REMARK                            x       y       z     vdW  Elec       q    Type
REMARK                         _______ _______ _______ _____ _____    ______ ____
ROOT
ATOM      1  C   UNL     1       2.549   6.365  19.334  0.00  0.00    +0.000 A 
ATOM      2  C   UNL     1       3.462   6.400  18.281  0.00  0.00    +0.000 A 
ATOM      3  C   UNL     1       4.127   5.255  17.861  0.00  0.00    +0.000 A 
ATOM      4  N   UNL     1       3.891   4.099  18.361  0.00  0.00    +0.000 NA
ATOM      5  C   UNL     1       2.882   4.039  19.362  0.00  0.00    +0.000 A 
ATOM      6  C   UNL     1       2.788   2.810  19.873  0.00  0.00    +0.000 A 
ATOM      7  C   UNL     1       1.902   2.694  20.894  0.00  0.00    +0.000 A 
ATOM      8  C   UNL     1       1.105   2.569  21.815  0.00  0.00    +0.000 A 
ATOM      9  C   UNL     1       1.441   4.304  21.077  0.00  0.00    +0.000 A 
ATOM     10  C   UNL     1       2.268   5.049  19.954  0.00  0.00    +0.000 A 
ENDROOT
BRANCH   3  11
ATOM     11  C   UNL     1       5.125   5.318  16.782  0.00  0.00    +0.000 A 
ATOM     12  C   UNL     1       6.250   6.132  16.880  0.00  0.00    +0.000 A 
ATOM     13  C   UNL     1       7.212   6.182  15.878  0.00  0.00    +0.000 A 
ATOM     14  C   UNL     1       7.050   5.402  14.757  0.00  0.00    +0.000 A 
ATOM     15  C   UNL     1       5.925   4.616  14.621  0.00  0.00    +0.000 A 
ATOM     16  C   UNL     1       4.982   4.575  15.623  0.00  0.00    +0.000 A 
BRANCH  14  17
ATOM     17  O   UNL     1       7.934   5.353  13.728  0.00  0.00    +0.000 OA
ATOM     18  H   UNL     1       7.556   5.268  12.839  0.00  0.00    +0.000 HD
ENDBRANCH  14  17
ENDBRANCH   3  11
BRANCH   1  20
ATOM     19  O   UNL     1       1.609   7.765  21.021  0.00  0.00    +0.000 OA
ATOM     20  C   UNL     1       1.954   7.674  19.843  0.00  0.00    +0.000 C 
ATOM     21  N   UNL     1       1.786   8.744  18.936  0.00  0.00    +0.000 N 
ATOM     22  H   UNL     1       2.076   8.687  17.961  0.00  0.00    +0.000 HD
BRANCH  21  23
ATOM     23  C   UNL     1       1.190  10.020  19.354  0.00  0.00    +0.000 C 
BRANCH  23  24
ATOM     24  C   UNL     1      -0.161  10.263  18.730  0.00  0.00    +0.000 A 
ATOM     25  C   UNL     1      -0.493   9.561  17.588  0.00  0.00    +0.000 A 
ATOM     26  C   UNL     1      -1.728   9.733  17.012  0.00  0.00    +0.000 A 
ATOM     27  C   UNL     1      -2.609  10.600  17.601  0.00  0.00    +0.000 A 
ATOM     28  C   UNL     1      -2.224  11.254  18.741  0.00  0.00    +0.000 A 
ATOM     29  N   UNL     1      -1.020  11.123  19.318  0.00  0.00    +0.000 NA
ENDBRANCH  23  24
ENDBRANCH  21  23
ENDBRANCH   1  20
TORSDOF 5
ENDMDL
MODEL 5
REMARK VINA RESULT:      -8.2      1.913      2.287
REMARK  Name = 
REMARK  5 active torsions:
REMARK  status: ('A' for Active; 'I' for Inactive)
REMARK    1  A    between atoms: C_2  and  C_11
REMARK    2  A    between atoms: N_3  and  C_4
REMARK    3  A    between atoms: C_4  and  C_5
REMARK    4  A    between atoms: C_13  and  C_14
REMARK    5  A    between atoms: C_17  and  O_18
REMARK                            x       y       z     vdW  Elec       q    Type
REMARK                         _______ _______ _______ _____ _____    ______ ____
ROOT
ATOM      1  C   UNL     1       4.253   5.817  17.106  0.00  0.00    +0.000 A 
ATOM      2  C   UNL     1       3.641   6.974  17.587  0.00  0.00    +0.000 A 
ATOM      3  C   UNL     1       2.653   6.919  18.561  0.00  0.00    +0.000 A 
ATOM      4  N   UNL     1       2.300   5.823  19.123  0.00  0.00    +0.000 NA
ATOM      5  C   UNL     1       2.998   4.652  18.714  0.00  0.00    +0.000 A 
ATOM      6  C   UNL     1       2.486   3.564  19.294  0.00  0.00    +0.000 A 
ATOM      7  C   UNL     1       3.048   2.397  18.888  0.00  0.00    +0.000 A 
ATOM      8  C   UNL     1       3.543   1.335  18.537  0.00  0.00    +0.000 A 
ATOM      9  C   UNL     1       4.085   2.963  17.689  0.00  0.00    +0.000 A 
ATOM     10  C   UNL     1       3.854   4.527  17.715  0.00  0.00    +0.000 A 
ENDROOT
BRANCH   3  11
ATOM     11  C   UNL     1       1.981   8.144  19.021  0.00  0.00    +0.000 A 
ATOM     12  C   UNL     1       1.548   8.285  20.337  0.00  0.00    +0.000 A 
ATOM     13  C   UNL     1       0.934   9.446  20.789  0.00  0.00    +0.000 A 
ATOM     14  C   UNL     1       0.750  10.490  19.913  0.00  0.00    +0.000 A 
ATOM     15  C   UNL     1       1.138  10.360  18.596  0.00  0.00    +0.000 A 
ATOM     16  C   UNL     1       1.747   9.204  18.163  0.00  0.00    +0.000 A 
BRANCH  14  17
ATOM     17  O   UNL     1       0.184  11.678  20.249  0.00  0.00    +0.000 OA
ATOM     18  H   UNL     1      -0.093  12.246  19.513  0.00  0.00    +0.000 HD
ENDBRANCH  14  17
ENDBRANCH   3  11
BRANCH   1  20
ATOM     19  O   UNL     1       5.464   7.028  15.445  0.00  0.00    +0.000 OA
ATOM     20  C   UNL     1       5.230   5.925  15.940  0.00  0.00    +0.000 C 
ATOM     21  N   UNL     1       5.823   4.746  15.436  0.00  0.00    +0.000 N 
ATOM     22  H   UNL     1       5.648   3.828  15.842  0.00  0.00    +0.000 HD
BRANCH  21  23
ATOM     23  C   UNL     1       6.748   4.776  14.295  0.00  0.00    +0.000 C 
BRANCH  23  24
ATOM     24  C   UNL     1       6.305   3.886  13.163  0.00  0.00    +0.000 A 
ATOM     25  C   UNL     1       4.958   3.828  12.861  0.00  0.00    +0.000 A 
ATOM     26  C   UNL     1       4.523   3.053  11.814  0.00  0.00    +0.000 A 
ATOM     27  C   UNL     1       5.450   2.359  11.084  0.00  0.00    +0.000 A 
ATOM     28  C   UNL     1       6.771   2.470  11.425  0.00  0.00    +0.000 A 
ATOM     29  N   UNL     1       7.228   3.203  12.453  0.00  0.00    +0.000 NA
ENDBRANCH  23  24
ENDBRANCH  21  23
ENDBRANCH   1  20
TORSDOF 5
ENDMDL
MODEL 6
REMARK VINA RESULT:      -8.1      0.739      1.172
REMARK  Name = 
REMARK  5 active torsions:
REMARK  status: ('A' for Active; 'I' for Inactive)
REMARK    1  A    between atoms: C_2  and  C_11
REMARK    2  A    between atoms: N_3  and  C_4
REMARK    3  A    between atoms: C_4  and  C_5
REMARK    4  A    between atoms: C_13  and  C_14
REMARK    5  A    between atoms: C_17  and  O_18
REMARK                            x       y       z     vdW  Elec       q    Type
REMARK                         _______ _______ _______ _____ _____    ______ ____
ROOT
ATOM      1  C   UNL     1       4.146   5.372  18.614  0.00  0.00    +0.000 A 
ATOM      2  C   UNL     1       3.698   6.692  18.664  0.00  0.00    +0.000 A 
ATOM      3  C   UNL     1       2.410   7.004  19.082  0.00  0.00    +0.000 A 
ATOM      4  N   UNL     1       1.591   6.117  19.511  0.00  0.00    +0.000 NA
ATOM      5  C   UNL     1       2.079   4.782  19.566  0.00  0.00    +0.000 A 
ATOM      6  C   UNL     1       1.117   3.936  19.937  0.00  0.00    +0.000 A 
ATOM      7  C   UNL     1       1.486   2.630  19.932  0.00  0.00    +0.000 A 
ATOM      8  C   UNL     1       1.801   1.448  19.937  0.00  0.00    +0.000 A 
ATOM      9  C   UNL     1       3.039   2.759  19.295  0.00  0.00    +0.000 A 
ATOM     10  C   UNL     1       3.218   4.315  19.081  0.00  0.00    +0.000 A 
ENDROOT
BRANCH   3  11
ATOM     11  C   UNL     1       1.936   8.397  19.079  0.00  0.00    +0.000 A 
ATOM     12  C   UNL     1       2.180   9.245  18.002  0.00  0.00    +0.000 A 
ATOM     13  C   UNL     1       1.716  10.555  17.977  0.00  0.00    +0.000 A 
ATOM     14  C   UNL     1       0.993  11.028  19.048  0.00  0.00    +0.000 A 
ATOM     15  C   UNL     1       0.772  10.219  20.142  0.00  0.00    +0.000 A 
ATOM     16  C   UNL     1       1.235   8.922  20.150  0.00  0.00    +0.000 A 
BRANCH  14  17
ATOM     17  O   UNL     1       0.473  12.280  19.123  0.00  0.00    +0.000 OA
ATOM     18  H   UNL     1       0.324  12.735  18.279  0.00  0.00    +0.000 HD
ENDBRANCH  14  17
ENDBRANCH   3  11
BRANCH   1  20
ATOM     19  O   UNL     1       6.309   4.369  18.640  0.00  0.00    +0.000 OA
ATOM     20  C   UNL     1       5.517   5.077  18.018  0.00  0.00    +0.000 C 
ATOM     21  N   UNL     1       5.856   5.649  16.772  0.00  0.00    +0.000 N 
ATOM     22  H   UNL     1       5.208   6.228  16.240  0.00  0.00    +0.000 HD
BRANCH  21  23
ATOM     23  C   UNL     1       7.172   5.430  16.156  0.00  0.00    +0.000 C 
BRANCH  23  24
ATOM     24  C   UNL     1       7.074   4.945  14.732  0.00  0.00    +0.000 A 
ATOM     25  C   UNL     1       6.130   3.983  14.429  0.00  0.00    +0.000 A 
ATOM     26  C   UNL     1       5.992   3.543  13.134  0.00  0.00    +0.000 A 
ATOM     27  C   UNL     1       6.796   4.086  12.169  0.00  0.00    +0.000 A 
ATOM     28  C   UNL     1       7.701   5.047  12.532  0.00  0.00    +0.000 A 
ATOM     29  N   UNL     1       7.876   5.485  13.789  0.00  0.00    +0.000 NA
ENDBRANCH  23  24
ENDBRANCH  21  23
ENDBRANCH   1  20
TORSDOF 5
ENDMDL
MODEL 7
REMARK VINA RESULT:      -8.0      1.832      2.349
REMARK  Name = 
REMARK  5 active torsions:
REMARK  status: ('A' for Active; 'I' for Inactive)
REMARK    1  A    between atoms: C_2  and  C_11
REMARK    2  A    between atoms: N_3  and  C_4
REMARK    3  A    between atoms: C_4  and  C_5
REMARK    4  A    between atoms: C_13  and  C_14
REMARK    5  A    between atoms: C_17  and  O_18
REMARK                            x       y       z     vdW  Elec       q    Type
REMARK                         _______ _______ _______ _____ _____    ______ ____
ROOT
ATOM      1  C   UNL     1       3.268   6.433  18.870  0.00  0.00    +0.000 A 
ATOM      2  C   UNL     1       2.692   7.529  19.511  0.00  0.00    +0.000 A 
ATOM      3  C   UNL     1       1.574   7.386  20.324  0.00  0.00    +0.000 A 
ATOM      4  N   UNL     1       1.057   6.245  20.590  0.00  0.00    +0.000 NA
ATOM      5  C   UNL     1       1.706   5.111  20.026  0.00  0.00    +0.000 A 
ATOM      6  C   UNL     1       1.030   3.992  20.291  0.00  0.00    +0.000 A 
ATOM      7  C   UNL     1       1.546   2.877  19.715  0.00  0.00    +0.000 A 
ATOM      8  C   UNL     1       1.997   1.859  19.207  0.00  0.00    +0.000 A 
ATOM      9  C   UNL     1       2.786   3.556  18.800  0.00  0.00    +0.000 A 
ATOM     10  C   UNL     1       2.682   5.098  19.134  0.00  0.00    +0.000 A 
ENDROOT
BRANCH   3  11
ATOM     11  C   UNL     1       0.947   8.560  20.952  0.00  0.00    +0.000 A 
ATOM     12  C   UNL     1       0.650   9.705  20.217  0.00  0.00    +0.000 A 
ATOM     13  C   UNL     1       0.036  10.810  20.793  0.00  0.00    +0.000 A 
ATOM     14  C   UNL     1      -0.292  10.772  22.128  0.00  0.00    +0.000 A 
ATOM     15  C   UNL     1       0.025   9.664  22.885  0.00  0.00    +0.000 A 
ATOM     16  C   UNL     1       0.632   8.575  22.299  0.00  0.00    +0.000 A 
BRANCH  14  17
ATOM     17  O   UNL     1      -0.913  11.782  22.790  0.00  0.00    +0.000 OA
ATOM     18  H   UNL     1      -1.365  11.543  23.615  0.00  0.00    +0.000 HD
ENDBRANCH  14  17
ENDBRANCH   3  11
BRANCH   1  20
ATOM     19  O   UNL     1       4.230   7.416  16.921  0.00  0.00    +0.000 OA
ATOM     20  C   UNL     1       4.406   6.666  17.882  0.00  0.00    +0.000 C 
ATOM     21  N   UNL     1       5.629   5.989  18.079  0.00  0.00    +0.000 N 
ATOM     22  H   UNL     1       5.794   5.374  18.874  0.00  0.00    +0.000 HD
BRANCH  21  23
ATOM     23  C   UNL     1       6.755   6.146  17.147  0.00  0.00    +0.000 C 
BRANCH  23  24
ATOM     24  C   UNL     1       6.593   5.320  15.896  0.00  0.00    +0.000 A 
ATOM     25  C   UNL     1       5.576   4.386  15.852  0.00  0.00    +0.000 A 
ATOM     26  C   UNL     1       5.379   3.640  14.715  0.00  0.00    +0.000 A 
ATOM     27  C   UNL     1       6.201   3.854  13.642  0.00  0.00    +0.000 A 
ATOM     28  C   UNL     1       7.181   4.805  13.744  0.00  0.00    +0.000 A 
ATOM     29  N   UNL     1       7.412   5.537  14.845  0.00  0.00    +0.000 NA
ENDBRANCH  23  24
ENDBRANCH  21  23
ENDBRANCH   1  20
TORSDOF 5
ENDMDL
MODEL 8
REMARK VINA RESULT:      -8.0      1.967      2.585
REMARK  Name = 
REMARK  5 active torsions:
REMARK  status: ('A' for Active; 'I' for Inactive)
REMARK    1  A    between atoms: C_2  and  C_11
REMARK    2  A    between atoms: N_3  and  C_4
REMARK    3  A    between atoms: C_4  and  C_5
REMARK    4  A    between atoms: C_13  and  C_14
REMARK    5  A    between atoms: C_17  and  O_18
REMARK                            x       y       z     vdW  Elec       q    Type
REMARK                         _______ _______ _______ _____ _____    ______ ____
ROOT
ATOM      1  C   UNL     1       4.510   5.710  17.081  0.00  0.00    +0.000 A 
ATOM      2  C   UNL     1       3.901   6.896  17.490  0.00  0.00    +0.000 A 
ATOM      3  C   UNL     1       2.813   6.890  18.355  0.00  0.00    +0.000 A 
ATOM      4  N   UNL     1       2.356   5.814  18.880  0.00  0.00    +0.000 NA
ATOM      5  C   UNL     1       3.042   4.612  18.551  0.00  0.00    +0.000 A 
ATOM      6  C   UNL     1       2.425   3.551  19.076  0.00  0.00    +0.000 A 
ATOM      7  C   UNL     1       2.975   2.358  18.736  0.00  0.00    +0.000 A 
ATOM      8  C   UNL     1       3.459   1.273  18.443  0.00  0.00    +0.000 A 
ATOM      9  C   UNL     1       4.158   2.870  17.652  0.00  0.00    +0.000 A 
ATOM     10  C   UNL     1       3.993   4.443  17.649  0.00  0.00    +0.000 A 
ENDROOT
BRANCH   3  11
ATOM     11  C   UNL     1       2.150   8.147  18.737  0.00  0.00    +0.000 A 
ATOM     12  C   UNL     1       2.069   9.222  17.856  0.00  0.00    +0.000 A 
ATOM     13  C   UNL     1       1.424  10.405  18.196  0.00  0.00    +0.000 A 
ATOM     14  C   UNL     1       0.845  10.517  19.439  0.00  0.00    +0.000 A 
ATOM     15  C   UNL     1       0.945   9.479  20.342  0.00  0.00    +0.000 A 
ATOM     16  C   UNL     1       1.585   8.313  19.989  0.00  0.00    +0.000 A 
BRANCH  14  17
ATOM     17  O   UNL     1       0.172  11.614  19.870  0.00  0.00    +0.000 OA
ATOM     18  H   UNL     1      -0.398  11.493  20.646  0.00  0.00    +0.000 HD
ENDBRANCH  14  17
ENDBRANCH   3  11
BRANCH   1  20
ATOM     19  O   UNL     1       6.507   6.601  16.130  0.00  0.00    +0.000 OA
ATOM     20  C   UNL     1       5.608   5.767  16.025  0.00  0.00    +0.000 C 
ATOM     21  N   UNL     1       5.548   4.875  14.931  0.00  0.00    +0.000 N 
ATOM     22  H   UNL     1       4.817   4.173  14.835  0.00  0.00    +0.000 HD
BRANCH  21  23
ATOM     23  C   UNL     1       6.557   4.899  13.863  0.00  0.00    +0.000 C 
BRANCH  23  24
ATOM     24  C   UNL     1       6.319   3.842  12.814  0.00  0.00    +0.000 A 
ATOM     25  C   UNL     1       7.414   3.269  12.198  0.00  0.00    +0.000 A 
ATOM     26  C   UNL     1       7.234   2.279  11.262  0.00  0.00    +0.000 A 
ATOM     27  C   UNL     1       5.958   1.879  10.971  0.00  0.00    +0.000 A 
ATOM     28  C   UNL     1       4.916   2.476  11.628  0.00  0.00    +0.000 A 
ATOM     29  N   UNL     1       5.055   3.458  12.533  0.00  0.00    +0.000 NA
ENDBRANCH  23  24
ENDBRANCH  21  23
ENDBRANCH   1  20
TORSDOF 5
ENDMDL
MODEL 9
REMARK VINA RESULT:      -7.7      4.038      7.469
REMARK  Name = 
REMARK  5 active torsions:
REMARK  status: ('A' for Active; 'I' for Inactive)
REMARK    1  A    between atoms: C_2  and  C_11
REMARK    2  A    between atoms: N_3  and  C_4
REMARK    3  A    between atoms: C_4  and  C_5
REMARK    4  A    between atoms: C_13  and  C_14
REMARK    5  A    between atoms: C_17  and  O_18
REMARK                            x       y       z     vdW  Elec       q    Type
REMARK                         _______ _______ _______ _____ _____    ______ ____
ROOT
ATOM      1  C   UNL     1      -0.137  10.125  18.791  0.00  0.00    +0.000 A 
ATOM      2  C   UNL     1      -0.163  10.904  19.948  0.00  0.00    +0.000 A 
ATOM      3  C   UNL     1      -1.179  11.823  20.179  0.00  0.00    +0.000 A 
ATOM      4  N   UNL     1      -2.179  11.957  19.390  0.00  0.00    +0.000 NA
ATOM      5  C   UNL     1      -2.214  11.089  18.263  0.00  0.00    +0.000 A 
ATOM      6  C   UNL     1      -3.245  11.380  17.467  0.00  0.00    +0.000 A 
ATOM      7  C   UNL     1      -3.297  10.646  16.327  0.00  0.00    +0.000 A 
ATOM      8  C   UNL     1      -3.363   9.993  15.295  0.00  0.00    +0.000 A 
ATOM      9  C   UNL     1      -1.862   9.776  16.464  0.00  0.00    +0.000 A 
ATOM     10  C   UNL     1      -1.266  10.269  17.842  0.00  0.00    +0.000 A 
ENDROOT
BRANCH   3  11
ATOM     11  C   UNL     1      -1.164  12.673  21.380  0.00  0.00    +0.000 A 
ATOM     12  C   UNL     1      -0.235  13.699  21.532  0.00  0.00    +0.000 A 
ATOM     13  C   UNL     1      -0.226  14.524  22.649  0.00  0.00    +0.000 A 
ATOM     14  C   UNL     1      -1.165  14.325  23.635  0.00  0.00    +0.000 A 
ATOM     15  C   UNL     1      -2.072  13.292  23.523  0.00  0.00    +0.000 A 
ATOM     16  C   UNL     1      -2.070  12.484  22.408  0.00  0.00    +0.000 A 
BRANCH  14  17
ATOM     17  O   UNL     1      -1.265  15.082  24.757  0.00  0.00    +0.000 OA
ATOM     18  H   UNL     1      -0.867  14.714  25.562  0.00  0.00    +0.000 HD
ENDBRANCH  14  17
ENDBRANCH   3  11
BRANCH   1  20
ATOM     19  O   UNL     1       1.695   9.360  17.470  0.00  0.00    +0.000 OA
ATOM     20  C   UNL     1       1.071   9.235  18.524  0.00  0.00    +0.000 C 
ATOM     21  N   UNL     1       1.429   8.264  19.486  0.00  0.00    +0.000 N 
ATOM     22  H   UNL     1       0.930   8.156  20.368  0.00  0.00    +0.000 HD
BRANCH  21  23
ATOM     23  C   UNL     1       2.563   7.354  19.277  0.00  0.00    +0.000 C 
BRANCH  23  24
ATOM     24  C   UNL     1       2.161   5.902  19.328  0.00  0.00    +0.000 A 
ATOM     25  C   UNL     1       1.756   5.375  20.539  0.00  0.00    +0.000 A 
ATOM     26  C   UNL     1       1.350   4.065  20.614  0.00  0.00    +0.000 A 
ATOM     27  C   UNL     1       1.351   3.313  19.470  0.00  0.00    +0.000 A 
ATOM     28  C   UNL     1       1.750   3.899  18.299  0.00  0.00    +0.000 A 
ATOM     29  N   UNL     1       2.169   5.170  18.194  0.00  0.00    +0.000 NA
ENDBRANCH  23  24
ENDBRANCH  21  23
ENDBRANCH   1  20
TORSDOF 5
ENDMDL
