MODEL 1
REMARK VINA RESULT:      -9.0      0.000      0.000
REMARK  Name = 
REMARK  5 active torsions:
REMARK  status: ('A' for Active; 'I' for Inactive)
REMARK    1  A    between atoms: C_2  and  O_3
REMARK    2  A    between atoms: C_2  and  C_4
REMARK    3  A    between atoms: C_6  and  N_7
REMARK    4  A    between atoms: C_8  and  C_10
REMARK    5  A    between atoms: C_12  and  C_13
REMARK                            x       y       z     vdW  Elec       q    Type
REMARK                         _______ _______ _______ _____ _____    ______ ____
ROOT
ATOM      1  N   UNL     1       1.098   7.048  21.232  0.00  0.00    +0.000 N 
ATOM      2  C   UNL     1       1.822   6.110  20.530  0.00  0.00    +0.000 C 
ATOM      3  O   UNL     1       2.803   6.391  19.848  0.00  0.00    +0.000 OA
ATOM      4  H   UNL     1       0.327   6.765  21.822  0.00  0.00    +0.000 HD
ENDROOT
BRANCH   1   7
ATOM      5  C   UNL     1      -0.409   9.833  21.970  0.00  0.00    +0.000 C 
ATOM      6  C   UNL     1       0.965   9.260  22.374  0.00  0.00    +0.000 C 
ATOM      7  C   UNL     1       1.473   8.443  21.164  0.00  0.00    +0.000 C 
ATOM      8  C   UNL     1       0.807   9.168  20.028  0.00  0.00    +0.000 A 
ATOM      9  C   UNL     1       1.135   9.120  18.682  0.00  0.00    +0.000 A 
ATOM     10  C   UNL     1       0.407   9.912  17.791  0.00  0.00    +0.000 A 
ATOM     11  C   UNL     1      -0.646  10.722  18.248  0.00  0.00    +0.000 A 
ATOM     12  C   UNL     1      -0.983  10.753  19.600  0.00  0.00    +0.000 A 
ATOM     13  C   UNL     1      -0.240   9.982  20.482  0.00  0.00    +0.000 A 
BRANCH   5  15
ATOM     14  O   UNL     1      -0.048  12.101  22.698  0.00  0.00    +0.000 OA
ATOM     15  C   UNL     1      -0.760  11.106  22.709  0.00  0.00    +0.000 C 
BRANCH  15  16
ATOM     16  O   UNL     1      -1.924  11.076  23.399  0.00  0.00    +0.000 OA
ATOM     17  H   UNL     1      -2.470  11.880  23.302  0.00  0.00    +0.000 HD
ENDBRANCH  15  16
ENDBRANCH   5  15
ENDBRANCH   1   7
BRANCH   2  18
ATOM     18  C   UNL     1       1.340   4.708  20.655  0.00  0.00    +0.000 C 
ATOM     19  C   UNL     1       2.198   3.692  21.377  0.00  0.00    +0.000 C 
ATOM     20  C   UNL     1       1.969   3.549  19.895  0.00  0.00    +0.000 C 
BRANCH  20  21
ATOM     21  C   UNL     1       3.096   3.738  18.906  0.00  0.00    +0.000 A 
ATOM     22  C   UNL     1       2.860   3.852  17.523  0.00  0.00    +0.000 A 
ATOM     23  C   UNL     1       3.892   4.143  16.621  0.00  0.00    +0.000 A 
ATOM     24  C   UNL     1       5.188   4.328  17.092  0.00  0.00    +0.000 A 
ATOM     25  C   UNL     1       5.448   4.221  18.459  0.00  0.00    +0.000 A 
ATOM     26  C   UNL     1       4.419   3.914  19.349  0.00  0.00    +0.000 A 
ATOM     27  O   UNL     1       6.689   4.425  19.008  0.00  0.00    +0.000 OA
ATOM     28  C   UNL     1       7.525   5.157  18.107  0.00  0.00    +0.000 C 
ATOM     29  C   UNL     1       7.467   4.552  16.714  0.00  0.00    +0.000 C 
ATOM     30  O   UNL     1       6.148   4.643  16.164  0.00  0.00    +0.000 OA
ENDBRANCH  20  21
ENDBRANCH   2  18
TORSDOF 5
ENDMDL
MODEL 2
REMARK VINA RESULT:      -8.9      0.909      1.732
REMARK  Name = 
REMARK  5 active torsions:
REMARK  status: ('A' for Active; 'I' for Inactive)
REMARK    1  A    between atoms: C_2  and  O_3
REMARK    2  A    between atoms: C_2  and  C_4
REMARK    3  A    between atoms: C_6  and  N_7
REMARK    4  A    between atoms: C_8  and  C_10
REMARK    5  A    between atoms: C_12  and  C_13
REMARK                            x       y       z     vdW  Elec       q    Type
REMARK                         _______ _______ _______ _____ _____    ______ ____
ROOT
ATOM      1  N   UNL     1       1.473   7.086  20.914  0.00  0.00    +0.000 N 
ATOM      2  C   UNL     1       2.138   6.303  19.996  0.00  0.00    +0.000 C 
ATOM      3  O   UNL     1       2.923   6.756  19.169  0.00  0.00    +0.000 OA
ATOM      4  H   UNL     1       0.875   6.664  21.611  0.00  0.00    +0.000 HD
ENDROOT
BRANCH   1   7
ATOM      5  C   UNL     1      -0.307   9.615  21.917  0.00  0.00    +0.000 C 
ATOM      6  C   UNL     1       1.151   9.197  22.201  0.00  0.00    +0.000 C 
ATOM      7  C   UNL     1       1.672   8.518  20.913  0.00  0.00    +0.000 C 
ATOM      8  C   UNL     1       0.847   9.217  19.868  0.00  0.00    +0.000 A 
ATOM      9  C   UNL     1       1.088   9.286  18.504  0.00  0.00    +0.000 A 
ATOM     10  C   UNL     1       0.210  10.029  17.711  0.00  0.00    +0.000 A 
ATOM     11  C   UNL     1      -0.899  10.674  18.280  0.00  0.00    +0.000 A 
ATOM     12  C   UNL     1      -1.146  10.587  19.649  0.00  0.00    +0.000 A 
ATOM     13  C   UNL     1      -0.257   9.866  20.435  0.00  0.00    +0.000 A 
BRANCH   5  15
ATOM     14  O   UNL     1      -1.754  10.757  23.468  0.00  0.00    +0.000 OA
ATOM     15  C   UNL     1      -0.759  10.790  22.756  0.00  0.00    +0.000 C 
BRANCH  15  16
ATOM     16  O   UNL     1       0.011  11.900  22.667  0.00  0.00    +0.000 OA
ATOM     17  H   UNL     1       0.468  12.004  21.809  0.00  0.00    +0.000 HD
ENDBRANCH  15  16
ENDBRANCH   5  15
ENDBRANCH   1   7
BRANCH   2  18
ATOM     18  C   UNL     1       1.849   4.845  20.073  0.00  0.00    +0.000 C 
ATOM     19  C   UNL     1       2.727   3.960  20.930  0.00  0.00    +0.000 C 
ATOM     20  C   UNL     1       2.742   3.793  19.433  0.00  0.00    +0.000 C 
BRANCH  20  21
ATOM     21  C   UNL     1       3.964   4.146  18.616  0.00  0.00    +0.000 A 
ATOM     22  C   UNL     1       5.205   4.424  19.218  0.00  0.00    +0.000 A 
ATOM     23  C   UNL     1       6.361   4.636  18.456  0.00  0.00    +0.000 A 
ATOM     24  C   UNL     1       6.295   4.571  17.068  0.00  0.00    +0.000 A 
ATOM     25  C   UNL     1       5.076   4.295  16.447  0.00  0.00    +0.000 A 
ATOM     26  C   UNL     1       3.925   4.102  17.211  0.00  0.00    +0.000 A 
ATOM     27  O   UNL     1       4.933   4.177  15.087  0.00  0.00    +0.000 OA
ATOM     28  C   UNL     1       6.198   3.941  14.465  0.00  0.00    +0.000 C 
ATOM     29  C   UNL     1       7.237   4.926  14.976  0.00  0.00    +0.000 C 
ATOM     30  O   UNL     1       7.467   4.754  16.379  0.00  0.00    +0.000 OA
ENDBRANCH  20  21
ENDBRANCH   2  18
TORSDOF 5
ENDMDL
MODEL 3
REMARK VINA RESULT:      -8.8      1.051      1.148
REMARK  Name = 
REMARK  5 active torsions:
REMARK  status: ('A' for Active; 'I' for Inactive)
REMARK    1  A    between atoms: C_2  and  O_3
REMARK    2  A    between atoms: C_2  and  C_4
REMARK    3  A    between atoms: C_6  and  N_7
REMARK    4  A    between atoms: C_8  and  C_10
REMARK    5  A    between atoms: C_12  and  C_13
REMARK                            x       y       z     vdW  Elec       q    Type
REMARK                         _______ _______ _______ _____ _____    ______ ____
ROOT
ATOM      1  N   UNL     1       1.116   6.236  20.274  0.00  0.00    +0.000 N 
ATOM      2  C   UNL     1       1.599   5.047  20.773  0.00  0.00    +0.000 C 
ATOM      3  O   UNL     1       2.497   4.983  21.606  0.00  0.00    +0.000 OA
ATOM      4  H   UNL     1       0.339   6.243  19.627  0.00  0.00    +0.000 HD
ENDROOT
BRANCH   1   7
ATOM      5  C   UNL     1      -0.116   8.973  21.525  0.00  0.00    +0.000 C 
ATOM      6  C   UNL     1       1.017   8.037  21.995  0.00  0.00    +0.000 C 
ATOM      7  C   UNL     1       1.691   7.487  20.717  0.00  0.00    +0.000 C 
ATOM      8  C   UNL     1       1.441   8.613  19.753  0.00  0.00    +0.000 A 
ATOM      9  C   UNL     1       2.086   8.861  18.552  0.00  0.00    +0.000 A 
ATOM     10  C   UNL     1       1.725   9.997  17.824  0.00  0.00    +0.000 A 
ATOM     11  C   UNL     1       0.718  10.857  18.291  0.00  0.00    +0.000 A 
ATOM     12  C   UNL     1       0.060  10.594  19.492  0.00  0.00    +0.000 A 
ATOM     13  C   UNL     1       0.440   9.476  20.221  0.00  0.00    +0.000 A 
BRANCH   5  15
ATOM     14  O   UNL     1      -1.261  10.940  22.315  0.00  0.00    +0.000 OA
ATOM     15  C   UNL     1      -0.457  10.045  22.537  0.00  0.00    +0.000 C 
BRANCH  15  16
ATOM     16  O   UNL     1       0.196   9.957  23.720  0.00  0.00    +0.000 OA
ATOM     17  H   UNL     1      -0.389   9.845  24.494  0.00  0.00    +0.000 HD
ENDBRANCH  15  16
ENDBRANCH   5  15
ENDBRANCH   1   7
BRANCH   2  18
ATOM     18  C   UNL     1       0.949   3.820  20.238  0.00  0.00    +0.000 C 
ATOM     19  C   UNL     1       1.549   2.467  20.554  0.00  0.00    +0.000 C 
ATOM     20  C   UNL     1       1.568   2.974  19.135  0.00  0.00    +0.000 C 
BRANCH  20  21
ATOM     21  C   UNL     1       2.864   3.345  18.451  0.00  0.00    +0.000 A 
ATOM     22  C   UNL     1       2.941   3.537  17.059  0.00  0.00    +0.000 A 
ATOM     23  C   UNL     1       4.114   3.993  16.443  0.00  0.00    +0.000 A 
ATOM     24  C   UNL     1       5.237   4.270  17.216  0.00  0.00    +0.000 A 
ATOM     25  C   UNL     1       5.185   4.089  18.599  0.00  0.00    +0.000 A 
ATOM     26  C   UNL     1       4.020   3.617  19.203  0.00  0.00    +0.000 A 
ATOM     27  O   UNL     1       6.235   4.374  19.435  0.00  0.00    +0.000 OA
ATOM     28  C   UNL     1       7.168   5.248  18.796  0.00  0.00    +0.000 C 
ATOM     29  C   UNL     1       7.502   4.745  17.401  0.00  0.00    +0.000 C 
ATOM     30  O   UNL     1       6.343   4.746  16.559  0.00  0.00    +0.000 OA
ENDBRANCH  20  21
ENDBRANCH   2  18
TORSDOF 5
ENDMDL
MODEL 4
REMARK VINA RESULT:      -8.4      2.597      6.690
REMARK  Name = 
REMARK  5 active torsions:
REMARK  status: ('A' for Active; 'I' for Inactive)
REMARK    1  A    between atoms: C_2  and  O_3
REMARK    2  A    between atoms: C_2  and  C_4
REMARK    3  A    between atoms: C_6  and  N_7
REMARK    4  A    between atoms: C_8  and  C_10
REMARK    5  A    between atoms: C_12  and  C_13
REMARK                            x       y       z     vdW  Elec       q    Type
REMARK                         _______ _______ _______ _____ _____    ______ ____
ROOT
ATOM      1  N   UNL     1       4.722   4.163  19.777  0.00  0.00    +0.000 N 
ATOM      2  C   UNL     1       3.986   3.003  19.874  0.00  0.00    +0.000 C 
ATOM      3  O   UNL     1       4.283   1.967  19.288  0.00  0.00    +0.000 OA
ATOM      4  H   UNL     1       4.469   4.978  20.319  0.00  0.00    +0.000 HD
ENDROOT
BRANCH   1   7
ATOM      5  C   UNL     1       6.440   6.553  18.396  0.00  0.00    +0.000 C 
ATOM      6  C   UNL     1       6.852   5.362  19.286  0.00  0.00    +0.000 C 
ATOM      7  C   UNL     1       5.896   4.199  18.934  0.00  0.00    +0.000 C 
ATOM      8  C   UNL     1       5.572   4.519  17.502  0.00  0.00    +0.000 A 
ATOM      9  C   UNL     1       5.036   3.671  16.544  0.00  0.00    +0.000 A 
ATOM     10  C   UNL     1       4.851   4.163  15.250  0.00  0.00    +0.000 A 
ATOM     11  C   UNL     1       5.181   5.491  14.933  0.00  0.00    +0.000 A 
ATOM     12  C   UNL     1       5.703   6.343  15.904  0.00  0.00    +0.000 A 
ATOM     13  C   UNL     1       5.906   5.841  17.182  0.00  0.00    +0.000 A 
BRANCH   5  15
ATOM     14  O   UNL     1       7.569   8.318  17.207  0.00  0.00    +0.000 OA
ATOM     15  C   UNL     1       7.577   7.515  18.131  0.00  0.00    +0.000 C 
BRANCH  15  16
ATOM     16  O   UNL     1       8.621   7.431  18.988  0.00  0.00    +0.000 OA
ATOM     17  H   UNL     1       8.612   8.099  19.700  0.00  0.00    +0.000 HD
ENDBRANCH  15  16
ENDBRANCH   5  15
ENDBRANCH   1   7
BRANCH   2  18
ATOM     18  C   UNL     1       2.788   3.079  20.754  0.00  0.00    +0.000 C 
ATOM     19  C   UNL     1       1.412   2.914  20.147  0.00  0.00    +0.000 C 
ATOM     20  C   UNL     1       1.814   4.248  20.721  0.00  0.00    +0.000 C 
BRANCH  20  21
ATOM     21  C   UNL     1       2.016   5.454  19.834  0.00  0.00    +0.000 A 
ATOM     22  C   UNL     1       2.287   5.329  18.458  0.00  0.00    +0.000 A 
ATOM     23  C   UNL     1       2.358   6.446  17.617  0.00  0.00    +0.000 A 
ATOM     24  C   UNL     1       2.156   7.719  18.140  0.00  0.00    +0.000 A 
ATOM     25  C   UNL     1       1.885   7.870  19.501  0.00  0.00    +0.000 A 
ATOM     26  C   UNL     1       1.832   6.755  20.336  0.00  0.00    +0.000 A 
ATOM     27  O   UNL     1       1.637   9.085  20.089  0.00  0.00    +0.000 OA
ATOM     28  C   UNL     1       1.271  10.057  19.106  0.00  0.00    +0.000 C 
ATOM     29  C   UNL     1       2.246  10.030  17.940  0.00  0.00    +0.000 C 
ATOM     30  O   UNL     1       2.206   8.770  17.260  0.00  0.00    +0.000 OA
ENDBRANCH  20  21
ENDBRANCH   2  18
TORSDOF 5
ENDMDL
MODEL 5
REMARK VINA RESULT:      -8.4      1.355      1.997
REMARK  Name = 
REMARK  5 active torsions:
REMARK  status: ('A' for Active; 'I' for Inactive)
REMARK    1  A    between atoms: C_2  and  O_3
REMARK    2  A    between atoms: C_2  and  C_4
REMARK    3  A    between atoms: C_6  and  N_7
REMARK    4  A    between atoms: C_8  and  C_10
REMARK    5  A    between atoms: C_12  and  C_13
REMARK                            x       y       z     vdW  Elec       q    Type
REMARK                         _______ _______ _______ _____ _____    ______ ____
ROOT
ATOM      1  N   UNL     1       1.656   6.283  19.520  0.00  0.00    +0.000 N 
ATOM      2  C   UNL     1       1.832   5.114  20.227  0.00  0.00    +0.000 C 
ATOM      3  O   UNL     1       2.344   5.073  21.341  0.00  0.00    +0.000 OA
ATOM      4  H   UNL     1       1.182   6.277  18.627  0.00  0.00    +0.000 HD
ENDROOT
BRANCH   1   7
ATOM      5  C   UNL     1       0.334   8.461  21.540  0.00  0.00    +0.000 C 
ATOM      6  C   UNL     1       1.686   7.718  21.558  0.00  0.00    +0.000 C 
ATOM      7  C   UNL     1       2.108   7.537  20.082  0.00  0.00    +0.000 C 
ATOM      8  C   UNL     1       1.447   8.728  19.447  0.00  0.00    +0.000 A 
ATOM      9  C   UNL     1       1.729   9.298  18.215  0.00  0.00    +0.000 A 
ATOM     10  C   UNL     1       1.018  10.438  17.831  0.00  0.00    +0.000 A 
ATOM     11  C   UNL     1       0.029  10.981  18.667  0.00  0.00    +0.000 A 
ATOM     12  C   UNL     1      -0.262  10.394  19.897  0.00  0.00    +0.000 A 
ATOM     13  C   UNL     1       0.464   9.275  20.282  0.00  0.00    +0.000 A 
BRANCH   5  15
ATOM     14  O   UNL     1       0.974   9.798  23.439  0.00  0.00    +0.000 OA
ATOM     15  C   UNL     1       0.080   9.258  22.801  0.00  0.00    +0.000 C 
BRANCH  15  16
ATOM     16  O   UNL     1      -1.214   9.334  23.190  0.00  0.00    +0.000 OA
ATOM     17  H   UNL     1      -1.357   9.840  24.014  0.00  0.00    +0.000 HD
ENDBRANCH  15  16
ENDBRANCH   5  15
ENDBRANCH   1   7
BRANCH   2  18
ATOM     18  C   UNL     1       1.348   3.881  19.550  0.00  0.00    +0.000 C 
ATOM     19  C   UNL     1       2.001   2.555  19.871  0.00  0.00    +0.000 C 
ATOM     20  C   UNL     1       2.162   3.146  18.495  0.00  0.00    +0.000 C 
BRANCH  20  21
ATOM     21  C   UNL     1       3.503   3.642  18.006  0.00  0.00    +0.000 A 
ATOM     22  C   UNL     1       4.596   3.810  18.877  0.00  0.00    +0.000 A 
ATOM     23  C   UNL     1       5.868   4.158  18.404  0.00  0.00    +0.000 A 
ATOM     24  C   UNL     1       6.070   4.343  17.040  0.00  0.00    +0.000 A 
ATOM     25  C   UNL     1       5.003   4.181  16.155  0.00  0.00    +0.000 A 
ATOM     26  C   UNL     1       3.735   3.852  16.635  0.00  0.00    +0.000 A 
ATOM     27  O   UNL     1       5.126   4.309  14.794  0.00  0.00    +0.000 OA
ATOM     28  C   UNL     1       6.495   4.191  14.398  0.00  0.00    +0.000 C 
ATOM     29  C   UNL     1       7.380   5.070  15.266  0.00  0.00    +0.000 C 
ATOM     30  O   UNL     1       7.344   4.650  16.635  0.00  0.00    +0.000 OA
ENDBRANCH  20  21
ENDBRANCH   2  18
TORSDOF 5
ENDMDL
MODEL 6
REMARK VINA RESULT:      -8.3      5.627      9.805
REMARK  Name = 
REMARK  5 active torsions:
REMARK  status: ('A' for Active; 'I' for Inactive)
REMARK    1  A    between atoms: C_2  and  O_3
REMARK    2  A    between atoms: C_2  and  C_4
REMARK    3  A    between atoms: C_6  and  N_7
REMARK    4  A    between atoms: C_8  and  C_10
REMARK    5  A    between atoms: C_12  and  C_13
REMARK                            x       y       z     vdW  Elec       q    Type
REMARK                         _______ _______ _______ _____ _____    ______ ____
ROOT
ATOM      1  N   UNL     1      -1.308  10.473  18.767  0.00  0.00    +0.000 N 
ATOM      2  C   UNL     1      -1.785  11.109  17.642  0.00  0.00    +0.000 C 
ATOM      3  O   UNL     1      -1.527  12.277  17.369  0.00  0.00    +0.000 OA
ATOM      4  H   UNL     1      -1.504   9.494  18.925  0.00  0.00    +0.000 HD
ENDROOT
BRANCH   1   7
ATOM      5  C   UNL     1      -0.236   9.867  21.776  0.00  0.00    +0.000 C 
ATOM      6  C   UNL     1       0.492  10.280  20.480  0.00  0.00    +0.000 C 
ATOM      7  C   UNL     1      -0.479  11.198  19.704  0.00  0.00    +0.000 C 
ATOM      8  C   UNL     1      -1.269  11.800  20.832  0.00  0.00    +0.000 A 
ATOM      9  C   UNL     1      -2.055  12.941  20.803  0.00  0.00    +0.000 A 
ATOM     10  C   UNL     1      -2.675  13.352  21.986  0.00  0.00    +0.000 A 
ATOM     11  C   UNL     1      -2.520  12.613  23.171  0.00  0.00    +0.000 A 
ATOM     12  C   UNL     1      -1.742  11.457  23.190  0.00  0.00    +0.000 A 
ATOM     13  C   UNL     1      -1.110  11.068  22.017  0.00  0.00    +0.000 A 
BRANCH   5  15
ATOM     14  O   UNL     1       0.375   9.522  24.081  0.00  0.00    +0.000 OA
ATOM     15  C   UNL     1       0.712   9.523  22.904  0.00  0.00    +0.000 C 
BRANCH  15  16
ATOM     16  O   UNL     1       1.975   9.216  22.529  0.00  0.00    +0.000 OA
ATOM     17  H   UNL     1       2.034   8.523  21.843  0.00  0.00    +0.000 HD
ENDBRANCH  15  16
ENDBRANCH   5  15
ENDBRANCH   1   7
BRANCH   2  18
ATOM     18  C   UNL     1      -2.643  10.277  16.755  0.00  0.00    +0.000 C 
ATOM     19  C   UNL     1      -3.272  10.907  15.532  0.00  0.00    +0.000 C 
ATOM     20  C   UNL     1      -4.152  10.452  16.667  0.00  0.00    +0.000 C 
BRANCH  20  21
ATOM     21  C   UNL     1      -4.910  11.444  17.519  0.00  0.00    +0.000 A 
ATOM     22  C   UNL     1      -5.687  12.471  16.950  0.00  0.00    +0.000 A 
ATOM     23  C   UNL     1      -6.480  13.316  17.737  0.00  0.00    +0.000 A 
ATOM     24  C   UNL     1      -6.511  13.145  19.117  0.00  0.00    +0.000 A 
ATOM     25  C   UNL     1      -5.751  12.133  19.705  0.00  0.00    +0.000 A 
ATOM     26  C   UNL     1      -4.950  11.307  18.917  0.00  0.00    +0.000 A 
ATOM     27  O   UNL     1      -5.755  11.875  21.053  0.00  0.00    +0.000 OA
ATOM     28  C   UNL     1      -6.909  12.446  21.674  0.00  0.00    +0.000 C 
ATOM     29  C   UNL     1      -7.089  13.892  21.238  0.00  0.00    +0.000 C 
ATOM     30  O   UNL     1      -7.332  13.981  19.830  0.00  0.00    +0.000 OA
ENDBRANCH  20  21
ENDBRANCH   2  18
TORSDOF 5
ENDMDL
MODEL 7
REMARK VINA RESULT:      -8.1      9.298     10.892
REMARK  Name = 
REMARK  5 active torsions:
REMARK  status: ('A' for Active; 'I' for Inactive)
REMARK    1  A    between atoms: C_2  and  O_3
REMARK    2  A    between atoms: C_2  and  C_4
REMARK    3  A    between atoms: C_6  and  N_7
REMARK    4  A    between atoms: C_8  and  C_10
REMARK    5  A    between atoms: C_12  and  C_13
REMARK                            x       y       z     vdW  Elec       q    Type
REMARK                         _______ _______ _______ _____ _____    ______ ____
ROOT
ATOM      1  N   UNL     1       9.091  11.981  20.928  0.00  0.00    +0.000 N 
ATOM      2  C   UNL     1      10.264  11.667  20.279  0.00  0.00    +0.000 C 
ATOM      3  O   UNL     1      11.373  11.837  20.775  0.00  0.00    +0.000 OA
ATOM      4  H   UNL     1       8.198  11.777  20.501  0.00  0.00    +0.000 HD
ENDROOT
BRANCH   1   7
ATOM      5  C   UNL     1       6.879  13.369  22.865  0.00  0.00    +0.000 C 
ATOM      6  C   UNL     1       7.886  12.224  23.097  0.00  0.00    +0.000 C 
ATOM      7  C   UNL     1       9.136  12.560  22.252  0.00  0.00    +0.000 C 
ATOM      8  C   UNL     1       9.072  14.062  22.231  0.00  0.00    +0.000 A 
ATOM      9  C   UNL     1      10.090  14.950  21.919  0.00  0.00    +0.000 A 
ATOM     10  C   UNL     1       9.826  16.319  22.003  0.00  0.00    +0.000 A 
ATOM     11  C   UNL     1       8.554  16.783  22.374  0.00  0.00    +0.000 A 
ATOM     12  C   UNL     1       7.529  15.886  22.669  0.00  0.00    +0.000 A 
ATOM     13  C   UNL     1       7.805  14.527  22.607  0.00  0.00    +0.000 A 
BRANCH   5  15
ATOM     14  O   UNL     1       4.800  14.036  23.884  0.00  0.00    +0.000 OA
ATOM     15  C   UNL     1       5.918  13.556  24.019  0.00  0.00    +0.000 C 
BRANCH  15  16
ATOM     16  O   UNL     1       6.378  13.160  25.228  0.00  0.00    +0.000 OA
ATOM     17  H   UNL     1       7.217  12.661  25.196  0.00  0.00    +0.000 HD
ENDBRANCH  15  16
ENDBRANCH   5  15
ENDBRANCH   1   7
BRANCH   2  18
ATOM     18  C   UNL     1      10.105  11.094  18.915  0.00  0.00    +0.000 C 
ATOM     19  C   UNL     1      11.098  11.464  17.835  0.00  0.00    +0.000 C 
ATOM     20  C   UNL     1       9.668  11.924  17.717  0.00  0.00    +0.000 C 
BRANCH  20  21
ATOM     21  C   UNL     1       9.303  13.386  17.826  0.00  0.00    +0.000 A 
ATOM     22  C   UNL     1       7.987  13.806  18.094  0.00  0.00    +0.000 A 
ATOM     23  C   UNL     1       7.673  15.154  18.311  0.00  0.00    +0.000 A 
ATOM     24  C   UNL     1       8.680  16.113  18.266  0.00  0.00    +0.000 A 
ATOM     25  C   UNL     1       9.994  15.722  18.004  0.00  0.00    +0.000 A 
ATOM     26  C   UNL     1      10.296  14.381  17.772  0.00  0.00    +0.000 A 
ATOM     27  O   UNL     1      11.050  16.599  17.979  0.00  0.00    +0.000 OA
ATOM     28  C   UNL     1      10.715  17.812  18.658  0.00  0.00    +0.000 C 
ATOM     29  C   UNL     1       9.364  18.330  18.192  0.00  0.00    +0.000 C 
ATOM     30  O   UNL     1       8.316  17.411  18.519  0.00  0.00    +0.000 OA
ENDBRANCH  20  21
ENDBRANCH   2  18
TORSDOF 5
ENDMDL
MODEL 8
REMARK VINA RESULT:      -8.1      1.392      1.616
REMARK  Name = 
REMARK  5 active torsions:
REMARK  status: ('A' for Active; 'I' for Inactive)
REMARK    1  A    between atoms: C_2  and  O_3
REMARK    2  A    between atoms: C_2  and  C_4
REMARK    3  A    between atoms: C_6  and  N_7
REMARK    4  A    between atoms: C_8  and  C_10
REMARK    5  A    between atoms: C_12  and  C_13
REMARK                            x       y       z     vdW  Elec       q    Type
REMARK                         _______ _______ _______ _____ _____    ______ ____
ROOT
ATOM      1  N   UNL     1       0.988   6.324  20.358  0.00  0.00    +0.000 N 
ATOM      2  C   UNL     1       1.512   5.107  20.735  0.00  0.00    +0.000 C 
ATOM      3  O   UNL     1       2.513   4.994  21.434  0.00  0.00    +0.000 OA
ATOM      4  H   UNL     1       0.131   6.370  19.824  0.00  0.00    +0.000 HD
ENDROOT
BRANCH   1   7
ATOM      5  C   UNL     1      -0.075   9.195  21.452  0.00  0.00    +0.000 C 
ATOM      6  C   UNL     1       0.966   8.198  22.002  0.00  0.00    +0.000 C 
ATOM      7  C   UNL     1       1.641   7.545  20.773  0.00  0.00    +0.000 C 
ATOM      8  C   UNL     1       1.512   8.646  19.758  0.00  0.00    +0.000 A 
ATOM      9  C   UNL     1       2.217   8.793  18.573  0.00  0.00    +0.000 A 
ATOM     10  C   UNL     1       1.970   9.922  17.788  0.00  0.00    +0.000 A 
ATOM     11  C   UNL     1       1.015  10.873  18.181  0.00  0.00    +0.000 A 
ATOM     12  C   UNL     1       0.297  10.711  19.365  0.00  0.00    +0.000 A 
ATOM     13  C   UNL     1       0.565   9.600  20.151  0.00  0.00    +0.000 A 
BRANCH   5  15
ATOM     14  O   UNL     1       0.134  11.442  22.296  0.00  0.00    +0.000 OA
ATOM     15  C   UNL     1      -0.368  10.331  22.407  0.00  0.00    +0.000 C 
BRANCH  15  16
ATOM     16  O   UNL     1      -1.228  10.040  23.411  0.00  0.00    +0.000 OA
ATOM     17  H   UNL     1      -1.968   9.458  23.150  0.00  0.00    +0.000 HD
ENDBRANCH  15  16
ENDBRANCH   5  15
ENDBRANCH   1   7
BRANCH   2  18
ATOM     18  C   UNL     1       0.773   3.914  20.239  0.00  0.00    +0.000 C 
ATOM     19  C   UNL     1       1.306   2.532  20.549  0.00  0.00    +0.000 C 
ATOM     20  C   UNL     1       1.300   3.022  19.124  0.00  0.00    +0.000 C 
BRANCH  20  21
ATOM     21  C   UNL     1       2.588   3.310  18.388  0.00  0.00    +0.000 A 
ATOM     22  C   UNL     1       3.432   2.279  17.934  0.00  0.00    +0.000 A 
ATOM     23  C   UNL     1       4.563   2.544  17.152  0.00  0.00    +0.000 A 
ATOM     24  C   UNL     1       4.871   3.856  16.806  0.00  0.00    +0.000 A 
ATOM     25  C   UNL     1       4.050   4.896  17.243  0.00  0.00    +0.000 A 
ATOM     26  C   UNL     1       2.935   4.627  18.036  0.00  0.00    +0.000 A 
ATOM     27  O   UNL     1       4.263   6.212  16.915  0.00  0.00    +0.000 OA
ATOM     28  C   UNL     1       5.116   6.317  15.773  0.00  0.00    +0.000 C 
ATOM     29  C   UNL     1       6.340   5.430  15.938  0.00  0.00    +0.000 C 
ATOM     30  O   UNL     1       5.973   4.048  16.011  0.00  0.00    +0.000 OA
ENDBRANCH  20  21
ENDBRANCH   2  18
TORSDOF 5
ENDMDL
MODEL 9
REMARK VINA RESULT:      -8.1      5.623      9.981
REMARK  Name = 
REMARK  5 active torsions:
REMARK  status: ('A' for Active; 'I' for Inactive)
REMARK    1  A    between atoms: C_2  and  O_3
REMARK    2  A    between atoms: C_2  and  C_4
REMARK    3  A    between atoms: C_6  and  N_7
REMARK    4  A    between atoms: C_8  and  C_10
REMARK    5  A    between atoms: C_12  and  C_13
REMARK                            x       y       z     vdW  Elec       q    Type
REMARK                         _______ _______ _______ _____ _____    ______ ____
ROOT
ATOM      1  N   UNL     1      -1.207  10.417  18.759  0.00  0.00    +0.000 N 
ATOM      2  C   UNL     1      -1.717  11.047  17.646  0.00  0.00    +0.000 C 
ATOM      3  O   UNL     1      -1.531  12.235  17.401  0.00  0.00    +0.000 OA
ATOM      4  H   UNL     1      -1.342   9.425  18.895  0.00  0.00    +0.000 HD
ENDROOT
BRANCH   1   7
ATOM      5  C   UNL     1      -0.181   9.843  21.791  0.00  0.00    +0.000 C 
ATOM      6  C   UNL     1       0.560  10.290  20.513  0.00  0.00    +0.000 C 
ATOM      7  C   UNL     1      -0.429  11.171  19.717  0.00  0.00    +0.000 C 
ATOM      8  C   UNL     1      -1.268  11.736  20.829  0.00  0.00    +0.000 A 
ATOM      9  C   UNL     1      -2.099  12.845  20.785  0.00  0.00    +0.000 A 
ATOM     10  C   UNL     1      -2.762  13.226  21.954  0.00  0.00    +0.000 A 
ATOM     11  C   UNL     1      -2.604  12.490  23.140  0.00  0.00    +0.000 A 
ATOM     12  C   UNL     1      -1.782  11.366  23.174  0.00  0.00    +0.000 A 
ATOM     13  C   UNL     1      -1.108  11.007  22.015  0.00  0.00    +0.000 A 
BRANCH   5  15
ATOM     14  O   UNL     1       0.392   9.522  24.109  0.00  0.00    +0.000 OA
ATOM     15  C   UNL     1       0.754   9.532  22.939  0.00  0.00    +0.000 C 
BRANCH  15  16
ATOM     16  O   UNL     1       2.034   9.267  22.592  0.00  0.00    +0.000 OA
ATOM     17  H   UNL     1       2.701   9.638  23.202  0.00  0.00    +0.000 HD
ENDBRANCH  15  16
ENDBRANCH   5  15
ENDBRANCH   1   7
BRANCH   2  18
ATOM     18  C   UNL     1      -2.517  10.184  16.735  0.00  0.00    +0.000 C 
ATOM     19  C   UNL     1      -3.141  10.791  15.498  0.00  0.00    +0.000 C 
ATOM     20  C   UNL     1      -4.029  10.296  16.610  0.00  0.00    +0.000 C 
BRANCH  20  21
ATOM     21  C   UNL     1      -4.849  11.252  17.445  0.00  0.00    +0.000 A 
ATOM     22  C   UNL     1      -4.885  11.169  18.850  0.00  0.00    +0.000 A 
ATOM     23  C   UNL     1      -5.550  12.126  19.626  0.00  0.00    +0.000 A 
ATOM     24  C   UNL     1      -6.194  13.192  19.007  0.00  0.00    +0.000 A 
ATOM     25  C   UNL     1      -6.171  13.298  17.616  0.00  0.00    +0.000 A 
ATOM     26  C   UNL     1      -5.522  12.332  16.847  0.00  0.00    +0.000 A 
ATOM     27  O   UNL     1      -6.749  14.337  16.929  0.00  0.00    +0.000 OA
ATOM     28  C   UNL     1      -6.968  15.454  17.795  0.00  0.00    +0.000 C 
ATOM     29  C   UNL     1      -7.639  15.007  19.083  0.00  0.00    +0.000 C 
ATOM     30  O   UNL     1      -6.799  14.114  19.823  0.00  0.00    +0.000 OA
ENDBRANCH  20  21
ENDBRANCH   2  18
TORSDOF 5
ENDMDL
