MODEL 1
REMARK VINA RESULT:      -8.1      0.000      0.000
REMARK  Name = 
REMARK  8 active torsions:
REMARK  status: ('A' for Active; 'I' for Inactive)
REMARK    1  A    between atoms: C_1  and  C_2
REMARK    2  A    between atoms: C_6  and  C_7
REMARK    3  A    between atoms: N_15  and  C_16
REMARK    4  A    between atoms: C_20  and  N_21
REMARK    5  A    between atoms: N_21  and  C_22
REMARK    6  A    between atoms: N_21  and  C_23
REMARK    7  A    between atoms: C_23  and  C_24
REMARK    8  A    between atoms: N_28  and  C_29
REMARK                            x       y       z     vdW  Elec       q    Type
REMARK                         _______ _______ _______ _____ _____    ______ ____
ROOT
ATOM      1  C   UNL     1      -3.123  10.777  15.967  0.00  0.00    +0.000 C 
ATOM      2  C   UNL     1      -2.630  11.047  17.360  0.00  0.00    +0.000 A 
ATOM      3  C   UNL     1      -1.404  10.526  17.789  0.00  0.00    +0.000 A 
ATOM      4  C   UNL     1      -0.994  10.760  19.093  0.00  0.00    +0.000 A 
ATOM      5  C   UNL     1      -1.755  11.554  19.955  0.00  0.00    +0.000 A 
ATOM      6  C   UNL     1      -2.972  12.106  19.555  0.00  0.00    +0.000 A 
ATOM      7  C   UNL     1      -3.400  11.831  18.242  0.00  0.00    +0.000 A 
ATOM      8  C   UNL     1      -1.031  11.689  21.265  0.00  0.00    +0.000 C 
ATOM      9  C   UNL     1       0.263  10.907  21.037  0.00  0.00    +0.000 C 
ATOM     10  O   UNL     1       1.140  10.765  21.876  0.00  0.00    +0.000 OA
ATOM     11  N   UNL     1       0.192  10.370  19.742  0.00  0.00    +0.000 N 
ENDROOT
BRANCH  11  12
ATOM     12  C   UNL     1       1.148   9.496  19.182  0.00  0.00    +0.000 A 
ATOM     13  C   UNL     1       1.785   9.820  17.980  0.00  0.00    +0.000 A 
ATOM     14  C   UNL     1       2.691   8.936  17.406  0.00  0.00    +0.000 A 
ATOM     15  C   UNL     1       2.970   7.726  18.038  0.00  0.00    +0.000 A 
ATOM     16  C   UNL     1       2.358   7.357  19.249  0.00  0.00    +0.000 A 
ATOM     17  C   UNL     1       1.429   8.260  19.794  0.00  0.00    +0.000 A 
BRANCH  16  18
ATOM     18  N   UNL     1       2.713   6.165  19.862  0.00  0.00    +0.000 N 
ATOM     19  C   UNL     1       4.008   5.562  19.540  0.00  0.00    +0.000 C 
BRANCH  18  20
ATOM     20  C   UNL     1       1.731   5.278  20.503  0.00  0.00    +0.000 C 
BRANCH  20  21
ATOM     21  C   UNL     1       1.528   3.970  19.798  0.00  0.00    +0.000 A 
ATOM     22  N   UNL     1       1.010   3.786  18.598  0.00  0.00    +0.000 NA
ATOM     23  N   UNL     1       1.000   2.435  18.337  0.00  0.00    +0.000 NA
ATOM     24  C   UNL     1       1.516   1.827  19.377  0.00  0.00    +0.000 A 
ATOM     25  N   UNL     1       1.864   2.745  20.316  0.00  0.00    +0.000 N 
ATOM     26  C   UNL     1       2.469   2.464  21.590  0.00  0.00    +0.000 C 
ENDBRANCH  20  21
ENDBRANCH  18  20
ENDBRANCH  16  18
ENDBRANCH  11  12
BRANCH   6  27
ATOM     27  C   UNL     1      -3.825  12.972  20.446  0.00  0.00    +0.000 C 
ATOM     28  F   UNL     1      -4.302  12.335  21.551  0.00  0.00    +0.000 F 
ATOM     29  F   UNL     1      -3.149  14.060  20.909  0.00  0.00    +0.000 F 
ATOM     30  F   UNL     1      -4.919  13.459  19.798  0.00  0.00    +0.000 F 
ENDBRANCH   6  27
TORSDOF 5
ENDMDL
MODEL 2
REMARK VINA RESULT:      -8.0      1.064      1.266
REMARK  Name = 
REMARK  8 active torsions:
REMARK  status: ('A' for Active; 'I' for Inactive)
REMARK    1  A    between atoms: C_1  and  C_2
REMARK    2  A    between atoms: C_6  and  C_7
REMARK    3  A    between atoms: N_15  and  C_16
REMARK    4  A    between atoms: C_20  and  N_21
REMARK    5  A    between atoms: N_21  and  C_22
REMARK    6  A    between atoms: N_21  and  C_23
REMARK    7  A    between atoms: C_23  and  C_24
REMARK    8  A    between atoms: N_28  and  C_29
REMARK                            x       y       z     vdW  Elec       q    Type
REMARK                         _______ _______ _______ _____ _____    ______ ____
ROOT
ATOM      1  C   UNL     1      -3.107  10.076  15.842  0.00  0.00    +0.000 C 
ATOM      2  C   UNL     1      -2.582  10.521  17.178  0.00  0.00    +0.000 A 
ATOM      3  C   UNL     1      -1.333  10.080  17.629  0.00  0.00    +0.000 A 
ATOM      4  C   UNL     1      -0.893  10.476  18.883  0.00  0.00    +0.000 A 
ATOM      5  C   UNL     1      -1.649  11.353  19.667  0.00  0.00    +0.000 A 
ATOM      6  C   UNL     1      -2.889  11.828  19.240  0.00  0.00    +0.000 A 
ATOM      7  C   UNL     1      -3.346  11.389  17.982  0.00  0.00    +0.000 A 
ATOM      8  C   UNL     1      -0.893  11.659  20.929  0.00  0.00    +0.000 C 
ATOM      9  C   UNL     1       0.413  10.881  20.757  0.00  0.00    +0.000 C 
ATOM     10  O   UNL     1       1.315  10.858  21.581  0.00  0.00    +0.000 OA
ATOM     11  N   UNL     1       0.319  10.191  19.538  0.00  0.00    +0.000 N 
ENDROOT
BRANCH  11  12
ATOM     12  C   UNL     1       1.280   9.276  19.058  0.00  0.00    +0.000 A 
ATOM     13  C   UNL     1       2.052   9.584  17.934  0.00  0.00    +0.000 A 
ATOM     14  C   UNL     1       2.964   8.663  17.435  0.00  0.00    +0.000 A 
ATOM     15  C   UNL     1       3.113   7.428  18.064  0.00  0.00    +0.000 A 
ATOM     16  C   UNL     1       2.363   7.073  19.200  0.00  0.00    +0.000 A 
ATOM     17  C   UNL     1       1.432   8.016  19.668  0.00  0.00    +0.000 A 
BRANCH  16  18
ATOM     18  N   UNL     1       2.591   5.854  19.818  0.00  0.00    +0.000 N 
ATOM     19  C   UNL     1       1.728   5.452  20.930  0.00  0.00    +0.000 C 
BRANCH  18  20
ATOM     20  C   UNL     1       3.862   5.124  19.692  0.00  0.00    +0.000 C 
BRANCH  20  21
ATOM     21  C   UNL     1       3.753   3.815  18.970  0.00  0.00    +0.000 A 
ATOM     22  N   UNL     1       3.824   3.617  17.667  0.00  0.00    +0.000 NA
ATOM     23  N   UNL     1       3.666   2.271  17.428  0.00  0.00    +0.000 NA
ATOM     24  C   UNL     1       3.509   1.678  18.585  0.00  0.00    +0.000 A 
ATOM     25  N   UNL     1       3.558   2.602  19.581  0.00  0.00    +0.000 N 
ATOM     26  C   UNL     1       3.435   2.336  20.989  0.00  0.00    +0.000 C 
ENDBRANCH  20  21
ENDBRANCH  18  20
ENDBRANCH  16  18
ENDBRANCH  11  12
BRANCH   6  27
ATOM     27  C   UNL     1      -3.738  12.777  20.047  0.00  0.00    +0.000 C 
ATOM     28  F   UNL     1      -4.155  12.275  21.241  0.00  0.00    +0.000 F 
ATOM     29  F   UNL     1      -3.081  13.934  20.341  0.00  0.00    +0.000 F 
ATOM     30  F   UNL     1      -4.869  13.148  19.385  0.00  0.00    +0.000 F 
ENDBRANCH   6  27
TORSDOF 5
ENDMDL
MODEL 3
REMARK VINA RESULT:      -7.9      3.027      5.067
REMARK  Name = 
REMARK  8 active torsions:
REMARK  status: ('A' for Active; 'I' for Inactive)
REMARK    1  A    between atoms: C_1  and  C_2
REMARK    2  A    between atoms: C_6  and  C_7
REMARK    3  A    between atoms: N_15  and  C_16
REMARK    4  A    between atoms: C_20  and  N_21
REMARK    5  A    between atoms: N_21  and  C_22
REMARK    6  A    between atoms: N_21  and  C_23
REMARK    7  A    between atoms: C_23  and  C_24
REMARK    8  A    between atoms: N_28  and  C_29
REMARK                            x       y       z     vdW  Elec       q    Type
REMARK                         _______ _______ _______ _____ _____    ______ ____
ROOT
ATOM      1  C   UNL     1      -0.438   9.622  23.339  0.00  0.00    +0.000 C 
ATOM      2  C   UNL     1       0.149   9.835  21.973  0.00  0.00    +0.000 A 
ATOM      3  C   UNL     1       0.712   8.764  21.270  0.00  0.00    +0.000 A 
ATOM      4  C   UNL     1       1.281   9.000  20.028  0.00  0.00    +0.000 A 
ATOM      5  C   UNL     1       1.243  10.272  19.449  0.00  0.00    +0.000 A 
ATOM      6  C   UNL     1       0.673  11.358  20.113  0.00  0.00    +0.000 A 
ATOM      7  C   UNL     1       0.133  11.118  21.391  0.00  0.00    +0.000 A 
ATOM      8  C   UNL     1       1.866  10.209  18.083  0.00  0.00    +0.000 C 
ATOM      9  C   UNL     1       2.231   8.731  17.929  0.00  0.00    +0.000 C 
ATOM     10  O   UNL     1       2.774   8.254  16.943  0.00  0.00    +0.000 OA
ATOM     11  N   UNL     1       1.877   8.096  19.130  0.00  0.00    +0.000 N 
ENDROOT
BRANCH  11  12
ATOM     12  C   UNL     1       2.144   6.743  19.431  0.00  0.00    +0.000 A 
ATOM     13  C   UNL     1       1.682   6.179  20.624  0.00  0.00    +0.000 A 
ATOM     14  C   UNL     1       1.987   4.861  20.940  0.00  0.00    +0.000 A 
ATOM     15  C   UNL     1       2.749   4.098  20.058  0.00  0.00    +0.000 A 
ATOM     16  C   UNL     1       3.232   4.618  18.845  0.00  0.00    +0.000 A 
ATOM     17  C   UNL     1       2.928   5.961  18.563  0.00  0.00    +0.000 A 
BRANCH  16  18
ATOM     18  N   UNL     1       3.940   3.797  17.980  0.00  0.00    +0.000 N 
ATOM     19  C   UNL     1       3.721   2.351  18.038  0.00  0.00    +0.000 C 
BRANCH  18  20
ATOM     20  C   UNL     1       5.162   4.237  17.290  0.00  0.00    +0.000 C 
BRANCH  20  21
ATOM     21  C   UNL     1       6.185   4.866  18.187  0.00  0.00    +0.000 A 
ATOM     22  N   UNL     1       6.419   4.574  19.453  0.00  0.00    +0.000 NA
ATOM     23  N   UNL     1       7.432   5.390  19.902  0.00  0.00    +0.000 NA
ATOM     24  C   UNL     1       7.798   6.153  18.903  0.00  0.00    +0.000 A 
ATOM     25  N   UNL     1       7.049   5.862  17.807  0.00  0.00    +0.000 N 
ATOM     26  C   UNL     1       7.162   6.482  16.515  0.00  0.00    +0.000 C 
ENDBRANCH  20  21
ENDBRANCH  18  20
ENDBRANCH  16  18
ENDBRANCH  11  12
BRANCH   6  27
ATOM     27  C   UNL     1       0.605  12.746  19.528  0.00  0.00    +0.000 C 
ATOM     28  F   UNL     1       1.818  13.285  19.228  0.00  0.00    +0.000 F 
ATOM     29  F   UNL     1      -0.114  12.785  18.373  0.00  0.00    +0.000 F 
ATOM     30  F   UNL     1       0.004  13.632  20.371  0.00  0.00    +0.000 F 
ENDBRANCH   6  27
TORSDOF 5
ENDMDL
MODEL 4
REMARK VINA RESULT:      -7.9      4.809      8.982
REMARK  Name = 
REMARK  8 active torsions:
REMARK  status: ('A' for Active; 'I' for Inactive)
REMARK    1  A    between atoms: C_1  and  C_2
REMARK    2  A    between atoms: C_6  and  C_7
REMARK    3  A    between atoms: N_15  and  C_16
REMARK    4  A    between atoms: C_20  and  N_21
REMARK    5  A    between atoms: N_21  and  C_22
REMARK    6  A    between atoms: N_21  and  C_23
REMARK    7  A    between atoms: C_23  and  C_24
REMARK    8  A    between atoms: N_28  and  C_29
REMARK                            x       y       z     vdW  Elec       q    Type
REMARK                         _______ _______ _______ _____ _____    ______ ____
ROOT
ATOM      1  C   UNL     1       1.634   3.215  21.674  0.00  0.00    +0.000 C 
ATOM      2  C   UNL     1       2.145   4.084  20.560  0.00  0.00    +0.000 A 
ATOM      3  C   UNL     1       1.855   5.453  20.542  0.00  0.00    +0.000 A 
ATOM      4  C   UNL     1       2.307   6.221  19.480  0.00  0.00    +0.000 A 
ATOM      5  C   UNL     1       3.095   5.661  18.470  0.00  0.00    +0.000 A 
ATOM      6  C   UNL     1       3.419   4.305  18.467  0.00  0.00    +0.000 A 
ATOM      7  C   UNL     1       2.923   3.523  19.528  0.00  0.00    +0.000 A 
ATOM      8  C   UNL     1       3.494   6.740  17.504  0.00  0.00    +0.000 C 
ATOM      9  C   UNL     1       2.873   8.002  18.105  0.00  0.00    +0.000 C 
ATOM     10  O   UNL     1       2.960   9.116  17.610  0.00  0.00    +0.000 OA
ATOM     11  N   UNL     1       2.169   7.603  19.252  0.00  0.00    +0.000 N 
ENDROOT
BRANCH  11  12
ATOM     12  C   UNL     1       1.369   8.458  20.040  0.00  0.00    +0.000 A 
ATOM     13  C   UNL     1       1.430   8.397  21.436  0.00  0.00    +0.000 A 
ATOM     14  C   UNL     1       0.607   9.205  22.210  0.00  0.00    +0.000 A 
ATOM     15  C   UNL     1      -0.277  10.086  21.589  0.00  0.00    +0.000 A 
ATOM     16  C   UNL     1      -0.372  10.187  20.190  0.00  0.00    +0.000 A 
ATOM     17  C   UNL     1       0.456   9.340  19.433  0.00  0.00    +0.000 A 
BRANCH  16  18
ATOM     18  N   UNL     1      -1.230  11.119  19.627  0.00  0.00    +0.000 N 
ATOM     19  C   UNL     1      -1.596  10.982  18.215  0.00  0.00    +0.000 C 
BRANCH  18  20
ATOM     20  C   UNL     1      -1.484  12.435  20.234  0.00  0.00    +0.000 C 
BRANCH  20  21
ATOM     21  C   UNL     1      -2.848  12.582  20.838  0.00  0.00    +0.000 A 
ATOM     22  N   UNL     1      -4.002  12.614  20.197  0.00  0.00    +0.000 NA
ATOM     23  N   UNL     1      -5.005  12.770  21.126  0.00  0.00    +0.000 NA
ATOM     24  C   UNL     1      -4.445  12.821  22.309  0.00  0.00    +0.000 A 
ATOM     25  N   UNL     1      -3.097  12.706  22.181  0.00  0.00    +0.000 N 
ATOM     26  C   UNL     1      -2.141  12.708  23.256  0.00  0.00    +0.000 C 
ENDBRANCH  20  21
ENDBRANCH  18  20
ENDBRANCH  16  18
ENDBRANCH  11  12
BRANCH   6  27
ATOM     27  C   UNL     1       4.268   3.656  17.403  0.00  0.00    +0.000 C 
ATOM     28  F   UNL     1       3.919   3.990  16.131  0.00  0.00    +0.000 F 
ATOM     29  F   UNL     1       5.585   3.982  17.524  0.00  0.00    +0.000 F 
ATOM     30  F   UNL     1       4.213   2.296  17.458  0.00  0.00    +0.000 F 
ENDBRANCH   6  27
TORSDOF 5
ENDMDL
MODEL 5
REMARK VINA RESULT:      -7.9      4.697      8.947
REMARK  Name = 
REMARK  8 active torsions:
REMARK  status: ('A' for Active; 'I' for Inactive)
REMARK    1  A    between atoms: C_1  and  C_2
REMARK    2  A    between atoms: C_6  and  C_7
REMARK    3  A    between atoms: N_15  and  C_16
REMARK    4  A    between atoms: C_20  and  N_21
REMARK    5  A    between atoms: N_21  and  C_22
REMARK    6  A    between atoms: N_21  and  C_23
REMARK    7  A    between atoms: C_23  and  C_24
REMARK    8  A    between atoms: N_28  and  C_29
REMARK                            x       y       z     vdW  Elec       q    Type
REMARK                         _______ _______ _______ _____ _____    ______ ____
ROOT
ATOM      1  C   UNL     1       1.879   3.617  21.598  0.00  0.00    +0.000 C 
ATOM      2  C   UNL     1       2.210   4.609  20.519  0.00  0.00    +0.000 A 
ATOM      3  C   UNL     1       1.830   5.949  20.652  0.00  0.00    +0.000 A 
ATOM      4  C   UNL     1       2.115   6.833  19.622  0.00  0.00    +0.000 A 
ATOM      5  C   UNL     1       2.826   6.417  18.493  0.00  0.00    +0.000 A 
ATOM      6  C   UNL     1       3.238   5.094  18.337  0.00  0.00    +0.000 A 
ATOM      7  C   UNL     1       2.909   4.194  19.369  0.00  0.00    +0.000 A 
ATOM      8  C   UNL     1       3.047   7.598  17.590  0.00  0.00    +0.000 C 
ATOM      9  C   UNL     1       2.412   8.757  18.360  0.00  0.00    +0.000 C 
ATOM     10  O   UNL     1       2.371   9.911  17.959  0.00  0.00    +0.000 OA
ATOM     11  N   UNL     1       1.862   8.214  19.532  0.00  0.00    +0.000 N 
ENDROOT
BRANCH  11  12
ATOM     12  C   UNL     1       1.096   8.940  20.469  0.00  0.00    +0.000 A 
ATOM     13  C   UNL     1       1.237   8.698  21.839  0.00  0.00    +0.000 A 
ATOM     14  C   UNL     1       0.447   9.379  22.756  0.00  0.00    +0.000 A 
ATOM     15  C   UNL     1      -0.484  10.313  22.307  0.00  0.00    +0.000 A 
ATOM     16  C   UNL     1      -0.660  10.595  20.941  0.00  0.00    +0.000 A 
ATOM     17  C   UNL     1       0.136   9.874  20.035  0.00  0.00    +0.000 A 
BRANCH  16  18
ATOM     18  N   UNL     1      -1.563  11.573  20.553  0.00  0.00    +0.000 N 
ATOM     19  C   UNL     1      -1.924  11.683  19.139  0.00  0.00    +0.000 C 
BRANCH  18  20
ATOM     20  C   UNL     1      -1.879  12.740  21.392  0.00  0.00    +0.000 C 
BRANCH  20  21
ATOM     21  C   UNL     1      -3.183  12.637  22.124  0.00  0.00    +0.000 A 
ATOM     22  N   UNL     1      -3.380  12.142  23.332  0.00  0.00    +0.000 NA
ATOM     23  N   UNL     1      -4.723  12.232  23.619  0.00  0.00    +0.000 NA
ATOM     24  C   UNL     1      -5.313  12.784  22.588  0.00  0.00    +0.000 A 
ATOM     25  N   UNL     1      -4.391  13.058  21.628  0.00  0.00    +0.000 N 
ATOM     26  C   UNL     1      -4.653  13.673  20.355  0.00  0.00    +0.000 C 
ENDBRANCH  20  21
ENDBRANCH  18  20
ENDBRANCH  16  18
ENDBRANCH  11  12
BRANCH   6  27
ATOM     27  C   UNL     1       4.009   4.599  17.140  0.00  0.00    +0.000 C 
ATOM     28  F   UNL     1       3.327   3.714  16.363  0.00  0.00    +0.000 F 
ATOM     29  F   UNL     1       4.379   5.613  16.310  0.00  0.00    +0.000 F 
ATOM     30  F   UNL     1       5.163   3.968  17.495  0.00  0.00    +0.000 F 
ENDBRANCH   6  27
TORSDOF 5
ENDMDL
MODEL 6
REMARK VINA RESULT:      -7.8      4.736      8.829
REMARK  Name = 
REMARK  8 active torsions:
REMARK  status: ('A' for Active; 'I' for Inactive)
REMARK    1  A    between atoms: C_1  and  C_2
REMARK    2  A    between atoms: C_6  and  C_7
REMARK    3  A    between atoms: N_15  and  C_16
REMARK    4  A    between atoms: C_20  and  N_21
REMARK    5  A    between atoms: N_21  and  C_22
REMARK    6  A    between atoms: N_21  and  C_23
REMARK    7  A    between atoms: C_23  and  C_24
REMARK    8  A    between atoms: N_28  and  C_29
REMARK                            x       y       z     vdW  Elec       q    Type
REMARK                         _______ _______ _______ _____ _____    ______ ____
ROOT
ATOM      1  C   UNL     1       1.574   3.289  21.640  0.00  0.00    +0.000 C 
ATOM      2  C   UNL     1       2.107   4.149  20.530  0.00  0.00    +0.000 A 
ATOM      3  C   UNL     1       1.825   5.520  20.500  0.00  0.00    +0.000 A 
ATOM      4  C   UNL     1       2.298   6.280  19.441  0.00  0.00    +0.000 A 
ATOM      5  C   UNL     1       3.098   5.710  18.447  0.00  0.00    +0.000 A 
ATOM      6  C   UNL     1       3.416   4.352  18.457  0.00  0.00    +0.000 A 
ATOM      7  C   UNL     1       2.899   3.579  19.514  0.00  0.00    +0.000 A 
ATOM      8  C   UNL     1       3.518   6.782  17.481  0.00  0.00    +0.000 C 
ATOM      9  C   UNL     1       2.894   8.050  18.066  0.00  0.00    +0.000 C 
ATOM     10  O   UNL     1       2.994   9.161  17.566  0.00  0.00    +0.000 OA
ATOM     11  N   UNL     1       2.170   7.661  19.204  0.00  0.00    +0.000 N 
ENDROOT
BRANCH  11  12
ATOM     12  C   UNL     1       1.362   8.524  19.974  0.00  0.00    +0.000 A 
ATOM     13  C   UNL     1       1.376   8.449  21.370  0.00  0.00    +0.000 A 
ATOM     14  C   UNL     1       0.545   9.266  22.125  0.00  0.00    +0.000 A 
ATOM     15  C   UNL     1      -0.301  10.170  21.485  0.00  0.00    +0.000 A 
ATOM     16  C   UNL     1      -0.349  10.286  20.085  0.00  0.00    +0.000 A 
ATOM     17  C   UNL     1       0.486   9.430  19.347  0.00  0.00    +0.000 A 
BRANCH  16  18
ATOM     18  N   UNL     1      -1.169  11.240  19.504  0.00  0.00    +0.000 N 
ATOM     19  C   UNL     1      -2.076  10.834  18.428  0.00  0.00    +0.000 C 
BRANCH  18  20
ATOM     20  C   UNL     1      -0.917  12.685  19.623  0.00  0.00    +0.000 C 
BRANCH  20  21
ATOM     21  C   UNL     1       0.526  13.071  19.490  0.00  0.00    +0.000 A 
ATOM     22  N   UNL     1       1.313  12.859  18.452  0.00  0.00    +0.000 NA
ATOM     23  N   UNL     1       2.559  13.363  18.747  0.00  0.00    +0.000 NA
ATOM     24  C   UNL     1       2.503  13.877  19.951  0.00  0.00    +0.000 A 
ATOM     25  N   UNL     1       1.252  13.720  20.456  0.00  0.00    +0.000 N 
ATOM     26  C   UNL     1       0.799  14.162  21.747  0.00  0.00    +0.000 C 
ENDBRANCH  20  21
ENDBRANCH  18  20
ENDBRANCH  16  18
ENDBRANCH  11  12
BRANCH   6  27
ATOM     27  C   UNL     1       4.278   3.694  17.410  0.00  0.00    +0.000 C 
ATOM     28  F   UNL     1       3.962   4.036  16.131  0.00  0.00    +0.000 F 
ATOM     29  F   UNL     1       5.597   3.999  17.561  0.00  0.00    +0.000 F 
ATOM     30  F   UNL     1       4.202   2.335  17.460  0.00  0.00    +0.000 F 
ENDBRANCH   6  27
TORSDOF 5
ENDMDL
MODEL 7
REMARK VINA RESULT:      -7.7      5.642      9.277
REMARK  Name = 
REMARK  8 active torsions:
REMARK  status: ('A' for Active; 'I' for Inactive)
REMARK    1  A    between atoms: C_1  and  C_2
REMARK    2  A    between atoms: C_6  and  C_7
REMARK    3  A    between atoms: N_15  and  C_16
REMARK    4  A    between atoms: C_20  and  N_21
REMARK    5  A    between atoms: N_21  and  C_22
REMARK    6  A    between atoms: N_21  and  C_23
REMARK    7  A    between atoms: C_23  and  C_24
REMARK    8  A    between atoms: N_28  and  C_29
REMARK                            x       y       z     vdW  Elec       q    Type
REMARK                         _______ _______ _______ _____ _____    ______ ____
ROOT
ATOM      1  C   UNL     1       7.414   8.033  17.553  0.00  0.00    +0.000 C 
ATOM      2  C   UNL     1       6.404   6.967  17.237  0.00  0.00    +0.000 A 
ATOM      3  C   UNL     1       5.161   6.959  17.882  0.00  0.00    +0.000 A 
ATOM      4  C   UNL     1       4.265   5.940  17.599  0.00  0.00    +0.000 A 
ATOM      5  C   UNL     1       4.561   4.966  16.641  0.00  0.00    +0.000 A 
ATOM      6  C   UNL     1       5.781   4.956  15.965  0.00  0.00    +0.000 A 
ATOM      7  C   UNL     1       6.702   5.971  16.287  0.00  0.00    +0.000 A 
ATOM      8  C   UNL     1       3.383   4.045  16.497  0.00  0.00    +0.000 C 
ATOM      9  C   UNL     1       2.352   4.634  17.463  0.00  0.00    +0.000 C 
ATOM     10  O   UNL     1       1.239   4.166  17.652  0.00  0.00    +0.000 OA
ATOM     11  N   UNL     1       2.963   5.731  18.090  0.00  0.00    +0.000 N 
ENDROOT
BRANCH  11  12
ATOM     12  C   UNL     1       2.379   6.488  19.128  0.00  0.00    +0.000 A 
ATOM     13  C   UNL     1       2.058   5.887  20.349  0.00  0.00    +0.000 A 
ATOM     14  C   UNL     1       1.440   6.622  21.352  0.00  0.00    +0.000 A 
ATOM     15  C   UNL     1       1.145   7.968  21.140  0.00  0.00    +0.000 A 
ATOM     16  C   UNL     1       1.452   8.618  19.932  0.00  0.00    +0.000 A 
ATOM     17  C   UNL     1       2.056   7.843  18.928  0.00  0.00    +0.000 A 
BRANCH  16  18
ATOM     18  N   UNL     1       1.186   9.972  19.796  0.00  0.00    +0.000 N 
ATOM     19  C   UNL     1       0.798  10.740  20.981  0.00  0.00    +0.000 C 
BRANCH  18  20
ATOM     20  C   UNL     1       0.891  10.597  18.497  0.00  0.00    +0.000 C 
BRANCH  20  21
ATOM     21  C   UNL     1      -0.572  10.767  18.213  0.00  0.00    +0.000 A 
ATOM     22  N   UNL     1      -1.429   9.825  17.866  0.00  0.00    +0.000 NA
ATOM     23  N   UNL     1      -2.663  10.409  17.694  0.00  0.00    +0.000 NA
ATOM     24  C   UNL     1      -2.534  11.688  17.946  0.00  0.00    +0.000 A 
ATOM     25  N   UNL     1      -1.245  11.961  18.277  0.00  0.00    +0.000 N 
ATOM     26  C   UNL     1      -0.716  13.251  18.628  0.00  0.00    +0.000 C 
ENDBRANCH  20  21
ENDBRANCH  18  20
ENDBRANCH  16  18
ENDBRANCH  11  12
BRANCH   6  27
ATOM     27  C   UNL     1       6.144   3.930  14.921  0.00  0.00    +0.000 C 
ATOM     28  F   UNL     1       5.317   3.919  13.840  0.00  0.00    +0.000 F 
ATOM     29  F   UNL     1       7.398   4.119  14.427  0.00  0.00    +0.000 F 
ATOM     30  F   UNL     1       6.124   2.661  15.416  0.00  0.00    +0.000 F 
ENDBRANCH   6  27
TORSDOF 5
ENDMDL
MODEL 8
REMARK VINA RESULT:      -7.7      1.567      2.369
REMARK  Name = 
REMARK  8 active torsions:
REMARK  status: ('A' for Active; 'I' for Inactive)
REMARK    1  A    between atoms: C_1  and  C_2
REMARK    2  A    between atoms: C_6  and  C_7
REMARK    3  A    between atoms: N_15  and  C_16
REMARK    4  A    between atoms: C_20  and  N_21
REMARK    5  A    between atoms: N_21  and  C_22
REMARK    6  A    between atoms: N_21  and  C_23
REMARK    7  A    between atoms: C_23  and  C_24
REMARK    8  A    between atoms: N_28  and  C_29
REMARK                            x       y       z     vdW  Elec       q    Type
REMARK                         _______ _______ _______ _____ _____    ______ ____
ROOT
ATOM      1  C   UNL     1      -2.737  10.434  15.852  0.00  0.00    +0.000 C 
ATOM      2  C   UNL     1      -2.249  10.716  17.245  0.00  0.00    +0.000 A 
ATOM      3  C   UNL     1      -1.051  10.153  17.701  0.00  0.00    +0.000 A 
ATOM      4  C   UNL     1      -0.648  10.399  19.005  0.00  0.00    +0.000 A 
ATOM      5  C   UNL     1      -1.384  11.246  19.838  0.00  0.00    +0.000 A 
ATOM      6  C   UNL     1      -2.571  11.840  19.409  0.00  0.00    +0.000 A 
ATOM      7  C   UNL     1      -2.995  11.552  18.098  0.00  0.00    +0.000 A 
ATOM      8  C   UNL     1      -0.671  11.381  21.154  0.00  0.00    +0.000 C 
ATOM      9  C   UNL     1       0.592  10.539  20.961  0.00  0.00    +0.000 C 
ATOM     10  O   UNL     1       1.451  10.378  21.815  0.00  0.00    +0.000 OA
ATOM     11  N   UNL     1       0.512   9.974  19.678  0.00  0.00    +0.000 N 
ENDROOT
BRANCH  11  12
ATOM     12  C   UNL     1       1.437   9.047  19.151  0.00  0.00    +0.000 A 
ATOM     13  C   UNL     1       2.178   9.358  18.007  0.00  0.00    +0.000 A 
ATOM     14  C   UNL     1       3.052   8.426  17.462  0.00  0.00    +0.000 A 
ATOM     15  C   UNL     1       3.194   7.178  18.066  0.00  0.00    +0.000 A 
ATOM     16  C   UNL     1       2.474   6.819  19.219  0.00  0.00    +0.000 A 
ATOM     17  C   UNL     1       1.581   7.774  19.734  0.00  0.00    +0.000 A 
BRANCH  16  18
ATOM     18  N   UNL     1       2.695   5.584  19.809  0.00  0.00    +0.000 N 
ATOM     19  C   UNL     1       1.673   5.032  20.700  0.00  0.00    +0.000 C 
BRANCH  18  20
ATOM     20  C   UNL     1       4.032   4.979  19.908  0.00  0.00    +0.000 C 
BRANCH  20  21
ATOM     21  C   UNL     1       4.598   4.517  18.599  0.00  0.00    +0.000 A 
ATOM     22  N   UNL     1       3.996   3.772  17.690  0.00  0.00    +0.000 NA
ATOM     23  N   UNL     1       4.871   3.575  16.647  0.00  0.00    +0.000 NA
ATOM     24  C   UNL     1       5.981   4.207  16.936  0.00  0.00    +0.000 A 
ATOM     25  N   UNL     1       5.859   4.814  18.146  0.00  0.00    +0.000 N 
ATOM     26  C   UNL     1       6.863   5.610  18.799  0.00  0.00    +0.000 C 
ENDBRANCH  20  21
ENDBRANCH  18  20
ENDBRANCH  16  18
ENDBRANCH  11  12
BRANCH   6  27
ATOM     27  C   UNL     1      -3.396  12.762  20.270  0.00  0.00    +0.000 C 
ATOM     28  F   UNL     1      -2.819  13.973  20.502  0.00  0.00    +0.000 F 
ATOM     29  F   UNL     1      -4.612  13.031  19.719  0.00  0.00    +0.000 F 
ATOM     30  F   UNL     1      -3.652  12.232  21.498  0.00  0.00    +0.000 F 
ENDBRANCH   6  27
TORSDOF 5
ENDMDL
MODEL 9
REMARK VINA RESULT:      -7.7      4.838      9.040
REMARK  Name = 
REMARK  8 active torsions:
REMARK  status: ('A' for Active; 'I' for Inactive)
REMARK    1  A    between atoms: C_1  and  C_2
REMARK    2  A    between atoms: C_6  and  C_7
REMARK    3  A    between atoms: N_15  and  C_16
REMARK    4  A    between atoms: C_20  and  N_21
REMARK    5  A    between atoms: N_21  and  C_22
REMARK    6  A    between atoms: N_21  and  C_23
REMARK    7  A    between atoms: C_23  and  C_24
REMARK    8  A    between atoms: N_28  and  C_29
REMARK                            x       y       z     vdW  Elec       q    Type
REMARK                         _______ _______ _______ _____ _____    ______ ____
ROOT
ATOM      1  C   UNL     1       1.791   3.308  21.725  0.00  0.00    +0.000 C 
ATOM      2  C   UNL     1       2.226   4.199  20.597  0.00  0.00    +0.000 A 
ATOM      3  C   UNL     1       1.897   5.560  20.605  0.00  0.00    +0.000 A 
ATOM      4  C   UNL     1       2.279   6.349  19.531  0.00  0.00    +0.000 A 
ATOM      5  C   UNL     1       3.035   5.819  18.481  0.00  0.00    +0.000 A 
ATOM      6  C   UNL     1       3.397   4.473  18.451  0.00  0.00    +0.000 A 
ATOM      7  C   UNL     1       2.972   3.669  19.526  0.00  0.00    +0.000 A 
ATOM      8  C   UNL     1       3.359   6.917  17.507  0.00  0.00    +0.000 C 
ATOM      9  C   UNL     1       2.731   8.156  18.148  0.00  0.00    +0.000 C 
ATOM     10  O   UNL     1       2.764   9.276  17.660  0.00  0.00    +0.000 OA
ATOM     11  N   UNL     1       2.092   7.728  19.322  0.00  0.00    +0.000 N 
ENDROOT
BRANCH  11  12
ATOM     12  C   UNL     1       1.305   8.553  20.153  0.00  0.00    +0.000 A 
ATOM     13  C   UNL     1       1.090   8.212  21.492  0.00  0.00    +0.000 A 
ATOM     14  C   UNL     1       0.276   9.000  22.295  0.00  0.00    +0.000 A 
ATOM     15  C   UNL     1      -0.322  10.141  21.764  0.00  0.00    +0.000 A 
ATOM     16  C   UNL     1      -0.134  10.528  20.425  0.00  0.00    +0.000 A 
ATOM     17  C   UNL     1       0.676   9.699  19.630  0.00  0.00    +0.000 A 
BRANCH  16  18
ATOM     18  N   UNL     1      -0.709  11.702  19.964  0.00  0.00    +0.000 N 
ATOM     19  C   UNL     1      -1.908  12.213  20.631  0.00  0.00    +0.000 C 
BRANCH  18  20
ATOM     20  C   UNL     1      -0.431  12.252  18.628  0.00  0.00    +0.000 C 
BRANCH  20  21
ATOM     21  C   UNL     1       0.241  13.592  18.641  0.00  0.00    +0.000 A 
ATOM     22  N   UNL     1      -0.338  14.771  18.765  0.00  0.00    +0.000 NA
ATOM     23  N   UNL     1       0.639  15.738  18.718  0.00  0.00    +0.000 NA
ATOM     24  C   UNL     1       1.791  15.130  18.573  0.00  0.00    +0.000 A 
ATOM     25  N   UNL     1       1.594  13.786  18.521  0.00  0.00    +0.000 N 
ATOM     26  C   UNL     1       2.617  12.786  18.377  0.00  0.00    +0.000 C 
ENDBRANCH  20  21
ENDBRANCH  18  20
ENDBRANCH  16  18
ENDBRANCH  11  12
BRANCH   6  27
ATOM     27  C   UNL     1       4.215   3.857  17.344  0.00  0.00    +0.000 C 
ATOM     28  F   UNL     1       3.772   4.155  16.092  0.00  0.00    +0.000 F 
ATOM     29  F   UNL     1       5.517   4.255  17.381  0.00  0.00    +0.000 F 
ATOM     30  F   UNL     1       4.238   2.497  17.415  0.00  0.00    +0.000 F 
ENDBRANCH   6  27
TORSDOF 5
ENDMDL
