MODEL 1
REMARK VINA RESULT:      -8.1      0.000      0.000
REMARK  Name = 
REMARK  9 active torsions:
REMARK  status: ('A' for Active; 'I' for Inactive)
REMARK    1  A    between atoms: C_1  and  C_2
REMARK    2  A    between atoms: C_2  and  C_24
REMARK    3  A    between atoms: C_3  and  C_4
REMARK    4  A    between atoms: N_6  and  C_7
REMARK    5  A    between atoms: C_11  and  C_12
REMARK    6  A    between atoms: C_12  and  C_13
REMARK    7  A    between atoms: C_13  and  C_14
REMARK    8  A    between atoms: N_18  and  C_19
REMARK    9  A    between atoms: C_26  and  N_27
REMARK                            x       y       z     vdW  Elec       q    Type
REMARK                         _______ _______ _______ _____ _____    ______ ____
ROOT
ATOM      1  C   UNL     1       6.990   5.640  16.996  0.00  0.00    +0.000 A 
ATOM      2  C   UNL     1       7.127   5.319  15.645  0.00  0.00    +0.000 A 
ATOM      3  C   UNL     1       6.215   4.485  15.014  0.00  0.00    +0.000 A 
ATOM      4  C   UNL     1       5.176   3.926  15.742  0.00  0.00    +0.000 A 
ATOM      5  C   UNL     1       5.026   4.154  17.125  0.00  0.00    +0.000 A 
ATOM      6  C   UNL     1       5.955   5.038  17.730  0.00  0.00    +0.000 A 
ENDROOT
BRANCH   1   9
ATOM      7  C   UNL     1       7.669   7.929  17.667  0.00  0.00    +0.000 C 
ATOM      8  O   UNL     1       6.794   8.567  17.088  0.00  0.00    +0.000 OA
ATOM      9  N   UNL     1       7.848   6.559  17.648  0.00  0.00    +0.000 N 
ATOM     10  H   UNL     1       8.587   6.165  18.222  0.00  0.00    +0.000 HD
BRANCH   7  13
ATOM     11  C   UNL     1       7.917  10.920  17.631  0.00  0.00    +0.000 C 
ATOM     12  C   UNL     1       8.860   9.986  18.350  0.00  0.00    +0.000 C 
ATOM     13  C   UNL     1       8.682   8.653  18.477  0.00  0.00    +0.000 C 
BRANCH  12  14
ATOM     14  C   UNL     1      10.065  10.601  18.997  0.00  0.00    +0.000 C 
ATOM     15  C   UNL     1       9.809  11.851  19.898  0.00  0.00    +0.000 C 
ATOM     16  C   UNL     1      11.021  12.539  19.252  0.00  0.00    +0.000 C 
ATOM     17  C   UNL     1      10.932  11.530  18.096  0.00  0.00    +0.000 C 
BRANCH  16  18
ATOM     18  N   UNL     1      12.219  12.271  20.045  0.00  0.00    +0.000 NA
ATOM     19  H   UNL     1      12.055  11.961  20.999  0.00  0.00    +0.000 HD
ATOM     20  H   UNL     1      12.842  13.076  20.116  0.00  0.00    +0.000 HD
ENDBRANCH  16  18
ENDBRANCH  12  14
ENDBRANCH   7  13
ENDBRANCH   1   9
BRANCH   5  21
ATOM     21  C   UNL     1       3.887   3.378  17.939  0.00  0.00    +0.000 C 
ATOM     22  C   UNL     1       4.215   3.093  19.437  0.00  0.00    +0.000 C 
ATOM     23  O   UNL     1       3.621   1.777  19.341  0.00  0.00    +0.000 OA
ATOM     24  C   UNL     1       3.785   1.829  17.891  0.00  0.00    +0.000 C 
BRANCH  21  25
ATOM     25  C   UNL     1       2.532   4.098  17.782  0.00  0.00    +0.000 C 
BRANCH  25  26
ATOM     26  C   UNL     1       2.314   5.166  18.806  0.00  0.00    +0.000 A 
ATOM     27  N   UNL     1       2.772   6.400  18.745  0.00  0.00    +0.000 NA
ATOM     28  N   UNL     1       2.348   7.076  19.865  0.00  0.00    +0.000 NA
ATOM     29  C   UNL     1       1.639   6.241  20.586  0.00  0.00    +0.000 A 
ATOM     30  N   UNL     1       1.612   5.024  19.977  0.00  0.00    +0.000 N 
ATOM     31  C   UNL     1       0.970   3.848  20.498  0.00  0.00    +0.000 C 
ENDBRANCH  25  26
ENDBRANCH  21  25
ENDBRANCH   5  21
TORSDOF 7
ENDMDL
MODEL 2
REMARK VINA RESULT:      -8.1      3.917      8.021
REMARK  Name = 
REMARK  9 active torsions:
REMARK  status: ('A' for Active; 'I' for Inactive)
REMARK    1  A    between atoms: C_1  and  C_2
REMARK    2  A    between atoms: C_2  and  C_24
REMARK    3  A    between atoms: C_3  and  C_4
REMARK    4  A    between atoms: N_6  and  C_7
REMARK    5  A    between atoms: C_11  and  C_12
REMARK    6  A    between atoms: C_12  and  C_13
REMARK    7  A    between atoms: C_13  and  C_14
REMARK    8  A    between atoms: N_18  and  C_19
REMARK    9  A    between atoms: C_26  and  N_27
REMARK                            x       y       z     vdW  Elec       q    Type
REMARK                         _______ _______ _______ _____ _____    ______ ____
ROOT
ATOM      1  C   UNL     1       2.914   6.401  18.351  0.00  0.00    +0.000 A 
ATOM      2  C   UNL     1       2.499   5.229  18.984  0.00  0.00    +0.000 A 
ATOM      3  C   UNL     1       3.422   4.307  19.456  0.00  0.00    +0.000 A 
ATOM      4  C   UNL     1       4.776   4.528  19.260  0.00  0.00    +0.000 A 
ATOM      5  C   UNL     1       5.256   5.657  18.565  0.00  0.00    +0.000 A 
ATOM      6  C   UNL     1       4.287   6.595  18.127  0.00  0.00    +0.000 A 
ENDROOT
BRANCH   1   9
ATOM      7  C   UNL     1       1.626   8.490  18.709  0.00  0.00    +0.000 C 
ATOM      8  O   UNL     1       1.959   8.726  19.866  0.00  0.00    +0.000 OA
ATOM      9  N   UNL     1       2.005   7.405  17.940  0.00  0.00    +0.000 N 
ATOM     10  H   UNL     1       1.693   7.370  16.975  0.00  0.00    +0.000 HD
BRANCH   7  13
ATOM     11  C   UNL     1      -0.465  10.074  20.166  0.00  0.00    +0.000 C 
ATOM     12  C   UNL     1      -0.308  10.030  18.665  0.00  0.00    +0.000 C 
ATOM     13  C   UNL     1       0.706   9.424  18.011  0.00  0.00    +0.000 C 
BRANCH  12  14
ATOM     14  C   UNL     1      -1.345  10.745  17.852  0.00  0.00    +0.000 C 
ATOM     15  C   UNL     1      -2.428  11.540  18.649  0.00  0.00    +0.000 C 
ATOM     16  C   UNL     1      -3.506  10.967  17.716  0.00  0.00    +0.000 C 
ATOM     17  C   UNL     1      -2.512   9.872  17.299  0.00  0.00    +0.000 C 
BRANCH  16  18
ATOM     18  N   UNL     1      -3.725  11.882  16.598  0.00  0.00    +0.000 NA
ATOM     19  H   UNL     1      -3.376  11.567  15.696  0.00  0.00    +0.000 HD
ATOM     20  H   UNL     1      -3.317  12.805  16.749  0.00  0.00    +0.000 HD
ENDBRANCH  16  18
ENDBRANCH  12  14
ENDBRANCH   7  13
ENDBRANCH   1   9
BRANCH   5  21
ATOM     21  C   UNL     1       6.821   5.792  18.255  0.00  0.00    +0.000 C 
ATOM     22  C   UNL     1       7.726   6.055  19.498  0.00  0.00    +0.000 C 
ATOM     23  O   UNL     1       8.531   6.991  18.743  0.00  0.00    +0.000 OA
ATOM     24  C   UNL     1       7.431   7.144  17.796  0.00  0.00    +0.000 C 
BRANCH  21  25
ATOM     25  C   UNL     1       7.313   4.577  17.442  0.00  0.00    +0.000 C 
BRANCH  25  26
ATOM     26  C   UNL     1       6.958   4.661  15.992  0.00  0.00    +0.000 A 
ATOM     27  N   UNL     1       7.659   5.275  15.060  0.00  0.00    +0.000 NA
ATOM     28  N   UNL     1       7.012   5.114  13.856  0.00  0.00    +0.000 NA
ATOM     29  C   UNL     1       5.933   4.406  14.079  0.00  0.00    +0.000 A 
ATOM     30  N   UNL     1       5.841   4.120  15.406  0.00  0.00    +0.000 N 
ATOM     31  C   UNL     1       4.764   3.400  16.030  0.00  0.00    +0.000 C 
ENDBRANCH  25  26
ENDBRANCH  21  25
ENDBRANCH   5  21
TORSDOF 7
ENDMDL
MODEL 3
REMARK VINA RESULT:      -8.0      2.258      3.553
REMARK  Name = 
REMARK  9 active torsions:
REMARK  status: ('A' for Active; 'I' for Inactive)
REMARK    1  A    between atoms: C_1  and  C_2
REMARK    2  A    between atoms: C_2  and  C_24
REMARK    3  A    between atoms: C_3  and  C_4
REMARK    4  A    between atoms: N_6  and  C_7
REMARK    5  A    between atoms: C_11  and  C_12
REMARK    6  A    between atoms: C_12  and  C_13
REMARK    7  A    between atoms: C_13  and  C_14
REMARK    8  A    between atoms: N_18  and  C_19
REMARK    9  A    between atoms: C_26  and  N_27
REMARK                            x       y       z     vdW  Elec       q    Type
REMARK                         _______ _______ _______ _____ _____    ______ ____
ROOT
ATOM      1  C   UNL     1       7.905   7.921  17.935  0.00  0.00    +0.000 A 
ATOM      2  C   UNL     1       8.393   7.294  19.082  0.00  0.00    +0.000 A 
ATOM      3  C   UNL     1       8.217   5.933  19.282  0.00  0.00    +0.000 A 
ATOM      4  C   UNL     1       7.510   5.187  18.352  0.00  0.00    +0.000 A 
ATOM      5  C   UNL     1       6.930   5.775  17.209  0.00  0.00    +0.000 A 
ATOM      6  C   UNL     1       7.159   7.161  17.019  0.00  0.00    +0.000 A 
ENDROOT
BRANCH   1   9
ATOM      7  C   UNL     1       8.784  10.167  18.511  0.00  0.00    +0.000 C 
ATOM      8  O   UNL     1       9.184   9.932  19.648  0.00  0.00    +0.000 OA
ATOM      9  N   UNL     1       8.146   9.287  17.657  0.00  0.00    +0.000 N 
ATOM     10  H   UNL     1       7.920   9.609  16.721  0.00  0.00    +0.000 HD
BRANCH   7  13
ATOM     11  C   UNL     1      11.491  11.367  18.027  0.00  0.00    +0.000 C 
ATOM     12  C   UNL     1      10.182  12.097  17.853  0.00  0.00    +0.000 C 
ATOM     13  C   UNL     1       8.961  11.529  17.945  0.00  0.00    +0.000 C 
BRANCH  12  14
ATOM     14  C   UNL     1      10.257  13.557  17.521  0.00  0.00    +0.000 C 
ATOM     15  C   UNL     1      11.591  14.057  16.880  0.00  0.00    +0.000 C 
ATOM     16  C   UNL     1      11.560  15.276  17.816  0.00  0.00    +0.000 C 
ATOM     17  C   UNL     1      10.563  14.520  18.708  0.00  0.00    +0.000 C 
BRANCH  16  18
ATOM     18  N   UNL     1      10.880  16.387  17.153  0.00  0.00    +0.000 NA
ATOM     19  H   UNL     1      10.254  16.933  17.739  0.00  0.00    +0.000 HD
ATOM     20  H   UNL     1      10.325  16.094  16.348  0.00  0.00    +0.000 HD
ENDBRANCH  16  18
ENDBRANCH  12  14
ENDBRANCH   7  13
ENDBRANCH   1   9
BRANCH   5  21
ATOM     21  C   UNL     1       6.014   4.890  16.239  0.00  0.00    +0.000 C 
ATOM     22  C   UNL     1       6.769   4.178  15.075  0.00  0.00    +0.000 C 
ATOM     23  O   UNL     1       5.685   4.470  14.162  0.00  0.00    +0.000 OA
ATOM     24  C   UNL     1       5.244   5.537  15.056  0.00  0.00    +0.000 C 
BRANCH  21  25
ATOM     25  C   UNL     1       5.171   3.893  17.061  0.00  0.00    +0.000 C 
BRANCH  25  26
ATOM     26  C   UNL     1       3.861   4.460  17.505  0.00  0.00    +0.000 A 
ATOM     27  N   UNL     1       3.614   5.731  17.754  0.00  0.00    +0.000 NA
ATOM     28  N   UNL     1       2.295   5.851  18.121  0.00  0.00    +0.000 NA
ATOM     29  C   UNL     1       1.764   4.653  18.089  0.00  0.00    +0.000 A 
ATOM     30  N   UNL     1       2.712   3.745  17.734  0.00  0.00    +0.000 N 
ATOM     31  C   UNL     1       2.510   2.324  17.639  0.00  0.00    +0.000 C 
ENDBRANCH  25  26
ENDBRANCH  21  25
ENDBRANCH   5  21
TORSDOF 7
ENDMDL
MODEL 4
REMARK VINA RESULT:      -8.0      1.896      2.465
REMARK  Name = 
REMARK  9 active torsions:
REMARK  status: ('A' for Active; 'I' for Inactive)
REMARK    1  A    between atoms: C_1  and  C_2
REMARK    2  A    between atoms: C_2  and  C_24
REMARK    3  A    between atoms: C_3  and  C_4
REMARK    4  A    between atoms: N_6  and  C_7
REMARK    5  A    between atoms: C_11  and  C_12
REMARK    6  A    between atoms: C_12  and  C_13
REMARK    7  A    between atoms: C_13  and  C_14
REMARK    8  A    between atoms: N_18  and  C_19
REMARK    9  A    between atoms: C_26  and  N_27
REMARK                            x       y       z     vdW  Elec       q    Type
REMARK                         _______ _______ _______ _____ _____    ______ ____
ROOT
ATOM      1  C   UNL     1       6.446   6.593  17.104  0.00  0.00    +0.000 A 
ATOM      2  C   UNL     1       7.016   5.412  16.628  0.00  0.00    +0.000 A 
ATOM      3  C   UNL     1       6.321   4.212  16.676  0.00  0.00    +0.000 A 
ATOM      4  C   UNL     1       5.056   4.174  17.243  0.00  0.00    +0.000 A 
ATOM      5  C   UNL     1       4.454   5.318  17.805  0.00  0.00    +0.000 A 
ATOM      6  C   UNL     1       5.180   6.533  17.708  0.00  0.00    +0.000 A 
ENDROOT
BRANCH   1   9
ATOM      7  C   UNL     1       8.090   8.303  17.826  0.00  0.00    +0.000 C 
ATOM      8  O   UNL     1       8.531   7.737  18.822  0.00  0.00    +0.000 OA
ATOM      9  N   UNL     1       7.091   7.848  16.987  0.00  0.00    +0.000 N 
ATOM     10  H   UNL     1       6.866   8.401  16.166  0.00  0.00    +0.000 HD
BRANCH   7  13
ATOM     11  C   UNL     1       9.173  10.243  19.843  0.00  0.00    +0.000 C 
ATOM     12  C   UNL     1       9.001  10.536  18.372  0.00  0.00    +0.000 C 
ATOM     13  C   UNL     1       8.636   9.629  17.441  0.00  0.00    +0.000 C 
BRANCH  12  14
ATOM     14  C   UNL     1       9.291  11.935  17.920  0.00  0.00    +0.000 C 
ATOM     15  C   UNL     1      10.768  12.243  17.514  0.00  0.00    +0.000 C 
ATOM     16  C   UNL     1      10.687  13.562  18.298  0.00  0.00    +0.000 C 
ATOM     17  C   UNL     1       9.464  13.003  19.041  0.00  0.00    +0.000 C 
BRANCH  16  18
ATOM     18  N   UNL     1      10.267  14.639  17.405  0.00  0.00    +0.000 NA
ATOM     19  H   UNL     1      10.989  15.309  17.151  0.00  0.00    +0.000 HD
ATOM     20  H   UNL     1       9.493  15.191  17.778  0.00  0.00    +0.000 HD
ENDBRANCH  16  18
ENDBRANCH  12  14
ENDBRANCH   7  13
ENDBRANCH   1   9
BRANCH   5  21
ATOM     21  C   UNL     1       3.050   5.185  18.563  0.00  0.00    +0.000 C 
ATOM     22  C   UNL     1       2.761   3.786  19.188  0.00  0.00    +0.000 C 
ATOM     23  O   UNL     1       1.376   3.862  18.774  0.00  0.00    +0.000 OA
ATOM     24  C   UNL     1       1.747   4.866  17.781  0.00  0.00    +0.000 C 
BRANCH  21  25
ATOM     25  C   UNL     1       2.894   6.314  19.602  0.00  0.00    +0.000 C 
BRANCH  25  26
ATOM     26  C   UNL     1       2.299   7.560  19.029  0.00  0.00    +0.000 A 
ATOM     27  N   UNL     1       2.419   7.970  17.781  0.00  0.00    +0.000 NA
ATOM     28  N   UNL     1       1.719   9.146  17.643  0.00  0.00    +0.000 NA
ATOM     29  C   UNL     1       1.187   9.429  18.807  0.00  0.00    +0.000 A 
ATOM     30  N   UNL     1       1.543   8.479  19.714  0.00  0.00    +0.000 N 
ATOM     31  C   UNL     1       1.186   8.482  21.106  0.00  0.00    +0.000 C 
ENDBRANCH  25  26
ENDBRANCH  21  25
ENDBRANCH   5  21
TORSDOF 7
ENDMDL
MODEL 5
REMARK VINA RESULT:      -7.9      2.034      2.828
REMARK  Name = 
REMARK  9 active torsions:
REMARK  status: ('A' for Active; 'I' for Inactive)
REMARK    1  A    between atoms: C_1  and  C_2
REMARK    2  A    between atoms: C_2  and  C_24
REMARK    3  A    between atoms: C_3  and  C_4
REMARK    4  A    between atoms: N_6  and  C_7
REMARK    5  A    between atoms: C_11  and  C_12
REMARK    6  A    between atoms: C_12  and  C_13
REMARK    7  A    between atoms: C_13  and  C_14
REMARK    8  A    between atoms: N_18  and  C_19
REMARK    9  A    between atoms: C_26  and  N_27
REMARK                            x       y       z     vdW  Elec       q    Type
REMARK                         _______ _______ _______ _____ _____    ______ ____
ROOT
ATOM      1  C   UNL     1       6.522   6.883  17.090  0.00  0.00    +0.000 A 
ATOM      2  C   UNL     1       7.015   5.687  16.566  0.00  0.00    +0.000 A 
ATOM      3  C   UNL     1       6.248   4.531  16.580  0.00  0.00    +0.000 A 
ATOM      4  C   UNL     1       4.989   4.549  17.161  0.00  0.00    +0.000 A 
ATOM      5  C   UNL     1       4.464   5.707  17.770  0.00  0.00    +0.000 A 
ATOM      6  C   UNL     1       5.260   6.878  17.707  0.00  0.00    +0.000 A 
ENDROOT
BRANCH   1   9
ATOM      7  C   UNL     1       8.225   8.495  17.896  0.00  0.00    +0.000 C 
ATOM      8  O   UNL     1       8.589   7.901  18.907  0.00  0.00    +0.000 OA
ATOM      9  N   UNL     1       7.241   8.100  17.010  0.00  0.00    +0.000 N 
ATOM     10  H   UNL     1       7.085   8.668  16.183  0.00  0.00    +0.000 HD
BRANCH   7  13
ATOM     11  C   UNL     1       9.237  10.408  19.975  0.00  0.00    +0.000 C 
ATOM     12  C   UNL     1       9.195  10.690  18.493  0.00  0.00    +0.000 C 
ATOM     13  C   UNL     1       8.862   9.790  17.543  0.00  0.00    +0.000 C 
BRANCH  12  14
ATOM     14  C   UNL     1       9.585  12.069  18.053  0.00  0.00    +0.000 C 
ATOM     15  C   UNL     1      11.049  12.247  17.538  0.00  0.00    +0.000 C 
ATOM     16  C   UNL     1      11.159  13.542  18.358  0.00  0.00    +0.000 C 
ATOM     17  C   UNL     1       9.948  13.078  19.183  0.00  0.00    +0.000 C 
BRANCH  16  18
ATOM     18  N   UNL     1      10.779  14.682  17.528  0.00  0.00    +0.000 NA
ATOM     19  H   UNL     1      11.506  15.375  17.370  0.00  0.00    +0.000 HD
ATOM     20  H   UNL     1       9.977  15.197  17.895  0.00  0.00    +0.000 HD
ENDBRANCH  16  18
ENDBRANCH  12  14
ENDBRANCH   7  13
ENDBRANCH   1   9
BRANCH   5  21
ATOM     21  C   UNL     1       3.062   5.632  18.539  0.00  0.00    +0.000 C 
ATOM     22  C   UNL     1       2.064   6.788  18.219  0.00  0.00    +0.000 C 
ATOM     23  O   UNL     1       1.667   6.861  19.609  0.00  0.00    +0.000 OA
ATOM     24  C   UNL     1       2.910   6.191  19.980  0.00  0.00    +0.000 C 
BRANCH  21  25
ATOM     25  C   UNL     1       2.411   4.249  18.335  0.00  0.00    +0.000 C 
BRANCH  25  26
ATOM     26  C   UNL     1       2.124   3.540  19.620  0.00  0.00    +0.000 A 
ATOM     27  N   UNL     1       0.986   3.575  20.284  0.00  0.00    +0.000 NA
ATOM     28  N   UNL     1       1.114   2.787  21.403  0.00  0.00    +0.000 NA
ATOM     29  C   UNL     1       2.326   2.287  21.399  0.00  0.00    +0.000 A 
ATOM     30  N   UNL     1       3.006   2.751  20.316  0.00  0.00    +0.000 N 
ATOM     31  C   UNL     1       4.378   2.456  20.005  0.00  0.00    +0.000 C 
ENDBRANCH  25  26
ENDBRANCH  21  25
ENDBRANCH   5  21
TORSDOF 7
ENDMDL
MODEL 6
REMARK VINA RESULT:      -7.8      5.165      8.493
REMARK  Name = 
REMARK  9 active torsions:
REMARK  status: ('A' for Active; 'I' for Inactive)
REMARK    1  A    between atoms: C_1  and  C_2
REMARK    2  A    between atoms: C_2  and  C_24
REMARK    3  A    between atoms: C_3  and  C_4
REMARK    4  A    between atoms: N_6  and  C_7
REMARK    5  A    between atoms: C_11  and  C_12
REMARK    6  A    between atoms: C_12  and  C_13
REMARK    7  A    between atoms: C_13  and  C_14
REMARK    8  A    between atoms: N_18  and  C_19
REMARK    9  A    between atoms: C_26  and  N_27
REMARK                            x       y       z     vdW  Elec       q    Type
REMARK                         _______ _______ _______ _____ _____    ______ ____
ROOT
ATOM      1  C   UNL     1       1.258   9.020  19.678  0.00  0.00    +0.000 A 
ATOM      2  C   UNL     1       1.493   9.758  18.518  0.00  0.00    +0.000 A 
ATOM      3  C   UNL     1       2.273   9.246  17.491  0.00  0.00    +0.000 A 
ATOM      4  C   UNL     1       2.865   8.000  17.633  0.00  0.00    +0.000 A 
ATOM      5  C   UNL     1       2.725   7.237  18.811  0.00  0.00    +0.000 A 
ATOM      6  C   UNL     1       1.893   7.776  19.826  0.00  0.00    +0.000 A 
ENDROOT
BRANCH   1   9
ATOM      7  C   UNL     1       0.552  10.657  21.403  0.00  0.00    +0.000 C 
ATOM      8  O   UNL     1       1.473  11.460  21.294  0.00  0.00    +0.000 OA
ATOM      9  N   UNL     1       0.395   9.474  20.705  0.00  0.00    +0.000 N 
ATOM     10  H   UNL     1      -0.451   8.935  20.861  0.00  0.00    +0.000 HD
BRANCH   7  13
ATOM     11  C   UNL     1      -1.793  12.420  20.772  0.00  0.00    +0.000 C 
ATOM     12  C   UNL     1      -1.510  11.814  22.125  0.00  0.00    +0.000 C 
ATOM     13  C   UNL     1      -0.532  10.920  22.384  0.00  0.00    +0.000 C 
BRANCH  12  14
ATOM     14  C   UNL     1      -2.411  12.220  23.253  0.00  0.00    +0.000 C 
ATOM     15  C   UNL     1      -3.890  12.555  22.877  0.00  0.00    +0.000 C 
ATOM     16  C   UNL     1      -3.821  13.790  23.788  0.00  0.00    +0.000 C 
ATOM     17  C   UNL     1      -2.288  13.695  23.739  0.00  0.00    +0.000 C 
BRANCH  16  18
ATOM     18  N   UNL     1      -4.290  13.439  25.126  0.00  0.00    +0.000 NA
ATOM     19  H   UNL     1      -4.233  14.178  25.822  0.00  0.00    +0.000 HD
ATOM     20  H   UNL     1      -3.799  12.639  25.528  0.00  0.00    +0.000 HD
ENDBRANCH  16  18
ENDBRANCH  12  14
ENDBRANCH   7  13
ENDBRANCH   1   9
BRANCH   5  21
ATOM     21  C   UNL     1       3.538   5.867  18.970  0.00  0.00    +0.000 C 
ATOM     22  C   UNL     1       5.085   6.022  19.087  0.00  0.00    +0.000 C 
ATOM     23  O   UNL     1       5.289   4.862  18.247  0.00  0.00    +0.000 OA
ATOM     24  C   UNL     1       3.934   5.024  17.728  0.00  0.00    +0.000 C 
BRANCH  21  25
ATOM     25  C   UNL     1       2.961   5.034  20.133  0.00  0.00    +0.000 C 
BRANCH  25  26
ATOM     26  C   UNL     1       2.269   3.790  19.675  0.00  0.00    +0.000 A 
ATOM     27  N   UNL     1       1.022   3.711  19.254  0.00  0.00    +0.000 NA
ATOM     28  N   UNL     1       0.764   2.405  18.910  0.00  0.00    +0.000 NA
ATOM     29  C   UNL     1       1.858   1.715  19.126  0.00  0.00    +0.000 A 
ATOM     30  N   UNL     1       2.820   2.534  19.630  0.00  0.00    +0.000 N 
ATOM     31  C   UNL     1       4.137   2.121  20.033  0.00  0.00    +0.000 C 
ENDBRANCH  25  26
ENDBRANCH  21  25
ENDBRANCH   5  21
TORSDOF 7
ENDMDL
MODEL 7
REMARK VINA RESULT:      -7.8      6.502      9.558
REMARK  Name = 
REMARK  9 active torsions:
REMARK  status: ('A' for Active; 'I' for Inactive)
REMARK    1  A    between atoms: C_1  and  C_2
REMARK    2  A    between atoms: C_2  and  C_24
REMARK    3  A    between atoms: C_3  and  C_4
REMARK    4  A    between atoms: N_6  and  C_7
REMARK    5  A    between atoms: C_11  and  C_12
REMARK    6  A    between atoms: C_12  and  C_13
REMARK    7  A    between atoms: C_13  and  C_14
REMARK    8  A    between atoms: N_18  and  C_19
REMARK    9  A    between atoms: C_26  and  N_27
REMARK                            x       y       z     vdW  Elec       q    Type
REMARK                         _______ _______ _______ _____ _____    ______ ____
ROOT
ATOM      1  C   UNL     1      -0.190  10.162  18.183  0.00  0.00    +0.000 A 
ATOM      2  C   UNL     1      -1.367  10.001  17.452  0.00  0.00    +0.000 A 
ATOM      3  C   UNL     1      -2.540  10.632  17.840  0.00  0.00    +0.000 A 
ATOM      4  C   UNL     1      -2.559  11.401  18.994  0.00  0.00    +0.000 A 
ATOM      5  C   UNL     1      -1.420  11.543  19.814  0.00  0.00    +0.000 A 
ATOM      6  C   UNL     1      -0.231  10.913  19.369  0.00  0.00    +0.000 A 
ENDROOT
BRANCH   1   9
ATOM      7  C   UNL     1       1.820   8.749  18.522  0.00  0.00    +0.000 C 
ATOM      8  O   UNL     1       1.605   8.382  19.673  0.00  0.00    +0.000 OA
ATOM      9  N   UNL     1       1.044   9.607  17.765  0.00  0.00    +0.000 N 
ATOM     10  H   UNL     1       1.319   9.779  16.803  0.00  0.00    +0.000 HD
BRANCH   7  13
ATOM     11  C   UNL     1       2.464   5.832  18.242  0.00  0.00    +0.000 C 
ATOM     12  C   UNL     1       3.372   6.959  17.814  0.00  0.00    +0.000 C 
ATOM     13  C   UNL     1       3.037   8.267  17.819  0.00  0.00    +0.000 C 
BRANCH  12  14
ATOM     14  C   UNL     1       4.736   6.583  17.317  0.00  0.00    +0.000 C 
ATOM     15  C   UNL     1       4.805   5.389  16.312  0.00  0.00    +0.000 C 
ATOM     16  C   UNL     1       6.009   4.832  17.087  0.00  0.00    +0.000 C 
ATOM     17  C   UNL     1       5.605   5.716  18.277  0.00  0.00    +0.000 C 
BRANCH  16  18
ATOM     18  N   UNL     1       7.248   5.338  16.499  0.00  0.00    +0.000 NA
ATOM     19  H   UNL     1       8.100   4.872  16.798  0.00  0.00    +0.000 HD
ATOM     20  H   UNL     1       7.398   6.333  16.674  0.00  0.00    +0.000 HD
ENDBRANCH  16  18
ENDBRANCH  12  14
ENDBRANCH   7  13
ENDBRANCH   1   9
BRANCH   5  21
ATOM     21  C   UNL     1      -1.536  12.333  21.202  0.00  0.00    +0.000 C 
ATOM     22  C   UNL     1      -0.194  12.900  21.759  0.00  0.00    +0.000 C 
ATOM     23  O   UNL     1      -0.570  12.529  23.106  0.00  0.00    +0.000 OA
ATOM     24  C   UNL     1      -1.528  11.575  22.556  0.00  0.00    +0.000 C 
BRANCH  21  25
ATOM     25  C   UNL     1      -2.618  13.429  21.106  0.00  0.00    +0.000 C 
BRANCH  25  26
ATOM     26  C   UNL     1      -3.789  13.175  22.000  0.00  0.00    +0.000 A 
ATOM     27  N   UNL     1      -4.801  12.372  21.738  0.00  0.00    +0.000 NA
ATOM     28  N   UNL     1      -5.663  12.399  22.809  0.00  0.00    +0.000 NA
ATOM     29  C   UNL     1      -5.159  13.216  23.702  0.00  0.00    +0.000 A 
ATOM     30  N   UNL     1      -4.000  13.747  23.230  0.00  0.00    +0.000 N 
ATOM     31  C   UNL     1      -3.191  14.720  23.913  0.00  0.00    +0.000 C 
ENDBRANCH  25  26
ENDBRANCH  21  25
ENDBRANCH   5  21
TORSDOF 7
ENDMDL
MODEL 8
REMARK VINA RESULT:      -7.7      1.978      2.713
REMARK  Name = 
REMARK  9 active torsions:
REMARK  status: ('A' for Active; 'I' for Inactive)
REMARK    1  A    between atoms: C_1  and  C_2
REMARK    2  A    between atoms: C_2  and  C_24
REMARK    3  A    between atoms: C_3  and  C_4
REMARK    4  A    between atoms: N_6  and  C_7
REMARK    5  A    between atoms: C_11  and  C_12
REMARK    6  A    between atoms: C_12  and  C_13
REMARK    7  A    between atoms: C_13  and  C_14
REMARK    8  A    between atoms: N_18  and  C_19
REMARK    9  A    between atoms: C_26  and  N_27
REMARK                            x       y       z     vdW  Elec       q    Type
REMARK                         _______ _______ _______ _____ _____    ______ ____
ROOT
ATOM      1  C   UNL     1       6.619   6.709  17.126  0.00  0.00    +0.000 A 
ATOM      2  C   UNL     1       7.316   5.561  16.748  0.00  0.00    +0.000 A 
ATOM      3  C   UNL     1       6.709   4.314  16.780  0.00  0.00    +0.000 A 
ATOM      4  C   UNL     1       5.404   4.196  17.233  0.00  0.00    +0.000 A 
ATOM      5  C   UNL     1       4.671   5.307  17.696  0.00  0.00    +0.000 A 
ATOM      6  C   UNL     1       5.310   6.571  17.618  0.00  0.00    +0.000 A 
ENDROOT
BRANCH   1   9
ATOM      7  C   UNL     1       8.153   8.516  17.855  0.00  0.00    +0.000 C 
ATOM      8  O   UNL     1       8.642   7.968  18.838  0.00  0.00    +0.000 OA
ATOM      9  N   UNL     1       7.177   8.006  17.020  0.00  0.00    +0.000 N 
ATOM     10  H   UNL     1       6.907   8.553  16.209  0.00  0.00    +0.000 HD
BRANCH   7  13
ATOM     11  C   UNL     1       9.302  10.433  19.858  0.00  0.00    +0.000 C 
ATOM     12  C   UNL     1       9.000  10.770  18.418  0.00  0.00    +0.000 C 
ATOM     13  C   UNL     1       8.605   9.881  17.482  0.00  0.00    +0.000 C 
BRANCH  12  14
ATOM     14  C   UNL     1       9.189  12.197  18.001  0.00  0.00    +0.000 C 
ATOM     15  C   UNL     1      10.626  12.605  17.545  0.00  0.00    +0.000 C 
ATOM     16  C   UNL     1      10.503  13.892  18.376  0.00  0.00    +0.000 C 
ATOM     17  C   UNL     1       9.347  13.238  19.149  0.00  0.00    +0.000 C 
BRANCH  16  18
ATOM     18  N   UNL     1       9.982  14.969  17.537  0.00  0.00    +0.000 NA
ATOM     19  H   UNL     1      10.606  15.759  17.395  0.00  0.00    +0.000 HD
ATOM     20  H   UNL     1       9.108  15.363  17.887  0.00  0.00    +0.000 HD
ENDBRANCH  16  18
ENDBRANCH  12  14
ENDBRANCH   7  13
ENDBRANCH   1   9
BRANCH   5  21
ATOM     21  C   UNL     1       3.217   5.091  18.331  0.00  0.00    +0.000 C 
ATOM     22  C   UNL     1       2.457   3.822  17.836  0.00  0.00    +0.000 C 
ATOM     23  O   UNL     1       1.212   4.557  17.788  0.00  0.00    +0.000 OA
ATOM     24  C   UNL     1       1.972   5.803  17.737  0.00  0.00    +0.000 C 
BRANCH  21  25
ATOM     25  C   UNL     1       3.291   5.143  19.870  0.00  0.00    +0.000 C 
BRANCH  25  26
ATOM     26  C   UNL     1       2.620   3.981  20.529  0.00  0.00    +0.000 A 
ATOM     27  N   UNL     1       1.412   3.984  21.056  0.00  0.00    +0.000 NA
ATOM     28  N   UNL     1       1.151   2.727  21.548  0.00  0.00    +0.000 NA
ATOM     29  C   UNL     1       2.203   1.982  21.310  0.00  0.00    +0.000 A 
ATOM     30  N   UNL     1       3.160   2.730  20.697  0.00  0.00    +0.000 N 
ATOM     31  C   UNL     1       4.469   2.265  20.326  0.00  0.00    +0.000 C 
ENDBRANCH  25  26
ENDBRANCH  21  25
ENDBRANCH   5  21
TORSDOF 7
ENDMDL
MODEL 9
REMARK VINA RESULT:      -7.7      5.328      8.627
REMARK  Name = 
REMARK  9 active torsions:
REMARK  status: ('A' for Active; 'I' for Inactive)
REMARK    1  A    between atoms: C_1  and  C_2
REMARK    2  A    between atoms: C_2  and  C_24
REMARK    3  A    between atoms: C_3  and  C_4
REMARK    4  A    between atoms: N_6  and  C_7
REMARK    5  A    between atoms: C_11  and  C_12
REMARK    6  A    between atoms: C_12  and  C_13
REMARK    7  A    between atoms: C_13  and  C_14
REMARK    8  A    between atoms: N_18  and  C_19
REMARK    9  A    between atoms: C_26  and  N_27
REMARK                            x       y       z     vdW  Elec       q    Type
REMARK                         _______ _______ _______ _____ _____    ______ ____
ROOT
ATOM      1  C   UNL     1       1.660   8.561  19.531  0.00  0.00    +0.000 A 
ATOM      2  C   UNL     1       1.447   8.010  20.795  0.00  0.00    +0.000 A 
ATOM      3  C   UNL     1       0.468   8.515  21.638  0.00  0.00    +0.000 A 
ATOM      4  C   UNL     1      -0.284   9.610  21.241  0.00  0.00    +0.000 A 
ATOM      5  C   UNL     1      -0.067  10.256  20.006  0.00  0.00    +0.000 A 
ATOM      6  C   UNL     1       0.918   9.692  19.156  0.00  0.00    +0.000 A 
ENDROOT
BRANCH   1   9
ATOM      7  C   UNL     1       2.745   6.663  18.359  0.00  0.00    +0.000 C 
ATOM      8  O   UNL     1       2.166   5.736  18.918  0.00  0.00    +0.000 OA
ATOM      9  N   UNL     1       2.586   8.013  18.611  0.00  0.00    +0.000 N 
ATOM     10  H   UNL     1       3.094   8.671  18.029  0.00  0.00    +0.000 HD
BRANCH   7  13
ATOM     11  C   UNL     1       5.422   5.454  18.971  0.00  0.00    +0.000 C 
ATOM     12  C   UNL     1       4.987   5.941  17.610  0.00  0.00    +0.000 C 
ATOM     13  C   UNL     1       3.744   6.366  17.301  0.00  0.00    +0.000 C 
BRANCH  12  14
ATOM     14  C   UNL     1       6.015   5.914  16.519  0.00  0.00    +0.000 C 
ATOM     15  C   UNL     1       5.544   5.372  15.132  0.00  0.00    +0.000 C 
ATOM     16  C   UNL     1       6.844   4.558  15.031  0.00  0.00    +0.000 C 
ATOM     17  C   UNL     1       7.023   4.726  16.548  0.00  0.00    +0.000 C 
BRANCH  16  18
ATOM     18  N   UNL     1       7.859   5.339  14.329  0.00  0.00    +0.000 NA
ATOM     19  H   UNL     1       8.162   6.190  14.795  0.00  0.00    +0.000 HD
ATOM     20  H   UNL     1       7.571   5.622  13.391  0.00  0.00    +0.000 HD
ENDBRANCH  16  18
ENDBRANCH  12  14
ENDBRANCH   7  13
ENDBRANCH   1   9
BRANCH   5  21
ATOM     21  C   UNL     1      -0.874  11.594  19.658  0.00  0.00    +0.000 C 
ATOM     22  C   UNL     1      -1.796  12.131  20.796  0.00  0.00    +0.000 C 
ATOM     23  O   UNL     1      -2.822  12.473  19.835  0.00  0.00    +0.000 OA
ATOM     24  C   UNL     1      -2.221  11.538  18.888  0.00  0.00    +0.000 C 
BRANCH  21  25
ATOM     25  C   UNL     1       0.091  12.684  19.149  0.00  0.00    +0.000 C 
BRANCH  25  26
ATOM     26  C   UNL     1       0.648  13.533  20.247  0.00  0.00    +0.000 A 
ATOM     27  N   UNL     1       1.565  13.164  21.119  0.00  0.00    +0.000 NA
ATOM     28  N   UNL     1       1.819  14.227  21.954  0.00  0.00    +0.000 NA
ATOM     29  C   UNL     1       1.054  15.221  21.575  0.00  0.00    +0.000 A 
ATOM     30  N   UNL     1       0.283  14.827  20.526  0.00  0.00    +0.000 N 
ATOM     31  C   UNL     1      -0.713  15.635  19.875  0.00  0.00    +0.000 C 
ENDBRANCH  25  26
ENDBRANCH  21  25
ENDBRANCH   5  21
TORSDOF 7
ENDMDL
