MODEL 1
REMARK VINA RESULT:      -7.9      0.000      0.000
REMARK  Name = 
REMARK  11 active torsions:
REMARK  status: ('A' for Active; 'I' for Inactive)
REMARK    1  A    between atoms: C_1  and  N_2
REMARK    2  A    between atoms: C_6  and  C_7
REMARK    3  A    between atoms: C_7  and  C_8
REMARK    4  A    between atoms: C_8  and  C_9
REMARK    5  A    between atoms: C_13  and  C_14
REMARK    6  A    between atoms: C_14  and  C_15
REMARK    7  A    between atoms: C_15  and  C_16
REMARK    8  A    between atoms: C_16  and  C_18
REMARK    9  A    between atoms: C_19  and  C_21
REMARK   10  A    between atoms: C_21  and  N_22
REMARK   11  A    between atoms: N_22  and  C_23
REMARK                            x       y       z     vdW  Elec       q    Type
REMARK                         _______ _______ _______ _____ _____    ______ ____
ROOT
ATOM      1  C   UNL     1       2.806   5.611  18.840  0.00  0.00    +0.000 A 
ATOM      2  C   UNL     1       3.095   6.569  17.851  0.00  0.00    +0.000 A 
ATOM      3  C   UNL     1       2.732   7.910  17.997  0.00  0.00    +0.000 A 
ATOM      4  C   UNL     1       2.062   8.330  19.142  0.00  0.00    +0.000 A 
ATOM      5  C   UNL     1       1.747   7.409  20.143  0.00  0.00    +0.000 A 
ATOM      6  C   UNL     1       2.121   6.073  19.977  0.00  0.00    +0.000 A 
ENDROOT
BRANCH   1   7
ATOM      7  C   UNL     1       3.212   4.068  18.724  0.00  0.00    +0.000 C 
ATOM      8  C   UNL     1       3.337   3.276  20.054  0.00  0.00    +0.000 C 
ATOM      9  O   UNL     1       2.335   2.322  19.660  0.00  0.00    +0.000 OA
ATOM     10  C   UNL     1       2.053   3.059  18.451  0.00  0.00    +0.000 C 
BRANCH   7  11
ATOM     11  C   UNL     1       4.464   3.905  17.840  0.00  0.00    +0.000 C 
BRANCH  11  17
ATOM     12  C   UNL     1       7.133   4.671  16.306  0.00  0.00    +0.000 C 
ATOM     13  N   UNL     1       6.842   4.861  17.701  0.00  0.00    +0.000 N 
ATOM     14  C   UNL     1       7.665   5.481  18.591  0.00  0.00    +0.000 A 
ATOM     15  N   UNL     1       7.126   5.441  19.785  0.00  0.00    +0.000 NA
ATOM     16  N   UNL     1       5.906   4.822  19.670  0.00  0.00    +0.000 NA
ATOM     17  C   UNL     1       5.720   4.492  18.406  0.00  0.00    +0.000 A 
ENDBRANCH  11  17
ENDBRANCH   7  11
ENDBRANCH   1   7
BRANCH   5  18
ATOM     18  C   UNL     1       0.990   7.802  21.383  0.00  0.00    +0.000 C 
BRANCH  18  19
ATOM     19  C   UNL     1       1.449   9.165  21.880  0.00  0.00    +0.000 C 
BRANCH  19  20
ATOM     20  C   UNL     1       0.293  10.123  22.030  0.00  0.00    +0.000 C 
ATOM     21  O   UNL     1      -0.104  10.524  23.120  0.00  0.00    +0.000 OA
BRANCH  20  22
ATOM     22  C   UNL     1      -0.317  10.560  20.748  0.00  0.00    +0.000 C 
ATOM     23  C   UNL     1       0.242  11.463  19.937  0.00  0.00    +0.000 C 
ATOM     24  F   UNL     1       1.420  12.034  20.278  0.00  0.00    +0.000 F 
BRANCH  23  25
ATOM     25  C   UNL     1      -0.394  11.863  18.637  0.00  0.00    +0.000 C 
BRANCH  25  26
ATOM     26  N   UNL     1      -0.798  10.704  17.846  0.00  0.00    +0.000 NA
ATOM     27  H   UNL     1      -0.714   9.856  18.405  0.00  0.00    +0.000 HD
BRANCH  26  28
ATOM     28  C   UNL     1      -2.121  10.859  17.247  0.00  0.00    +0.000 C 
ATOM     29  C   UNL     1      -3.330  11.113  18.101  0.00  0.00    +0.000 C 
ATOM     30  C   UNL     1      -3.144   9.776  17.445  0.00  0.00    +0.000 C 
ENDBRANCH  26  28
ENDBRANCH  25  26
ENDBRANCH  23  25
ENDBRANCH  20  22
ENDBRANCH  19  20
ENDBRANCH  18  19
ENDBRANCH   5  18
TORSDOF 10
ENDMDL
MODEL 2
REMARK VINA RESULT:      -7.8      2.296      3.170
REMARK  Name = 
REMARK  11 active torsions:
REMARK  status: ('A' for Active; 'I' for Inactive)
REMARK    1  A    between atoms: C_1  and  N_2
REMARK    2  A    between atoms: C_6  and  C_7
REMARK    3  A    between atoms: C_7  and  C_8
REMARK    4  A    between atoms: C_8  and  C_9
REMARK    5  A    between atoms: C_13  and  C_14
REMARK    6  A    between atoms: C_14  and  C_15
REMARK    7  A    between atoms: C_15  and  C_16
REMARK    8  A    between atoms: C_16  and  C_18
REMARK    9  A    between atoms: C_19  and  C_21
REMARK   10  A    between atoms: C_21  and  N_22
REMARK   11  A    between atoms: N_22  and  C_23
REMARK                            x       y       z     vdW  Elec       q    Type
REMARK                         _______ _______ _______ _____ _____    ______ ____
ROOT
ATOM      1  C   UNL     1       3.448   6.462  18.394  0.00  0.00    +0.000 A 
ATOM      2  C   UNL     1       3.239   7.453  17.417  0.00  0.00    +0.000 A 
ATOM      3  C   UNL     1       2.414   8.556  17.653  0.00  0.00    +0.000 A 
ATOM      4  C   UNL     1       1.769   8.695  18.878  0.00  0.00    +0.000 A 
ATOM      5  C   UNL     1       1.941   7.728  19.871  0.00  0.00    +0.000 A 
ATOM      6  C   UNL     1       2.772   6.634  19.615  0.00  0.00    +0.000 A 
ENDROOT
BRANCH   1   7
ATOM      7  C   UNL     1       4.392   5.189  18.176  0.00  0.00    +0.000 C 
ATOM      8  C   UNL     1       5.883   5.473  17.847  0.00  0.00    +0.000 C 
ATOM      9  O   UNL     1       6.347   4.747  19.000  0.00  0.00    +0.000 OA
ATOM     10  C   UNL     1       4.995   4.538  19.461  0.00  0.00    +0.000 C 
BRANCH   7  11
ATOM     11  C   UNL     1       3.757   4.213  17.166  0.00  0.00    +0.000 C 
BRANCH  11  17
ATOM     12  C   UNL     1       3.728   1.346  18.521  0.00  0.00    +0.000 C 
ATOM     13  N   UNL     1       2.610   2.225  18.311  0.00  0.00    +0.000 N 
ATOM     14  C   UNL     1       1.340   1.983  18.738  0.00  0.00    +0.000 A 
ATOM     15  N   UNL     1       0.554   2.954  18.341  0.00  0.00    +0.000 NA
ATOM     16  N   UNL     1       1.330   3.872  17.678  0.00  0.00    +0.000 NA
ATOM     17  C   UNL     1       2.578   3.446  17.681  0.00  0.00    +0.000 A 
ENDBRANCH  11  17
ENDBRANCH   7  11
ENDBRANCH   1   7
BRANCH   5  18
ATOM     18  C   UNL     1       1.238   7.810  21.199  0.00  0.00    +0.000 C 
BRANCH  18  19
ATOM     19  C   UNL     1      -0.028   8.647  21.083  0.00  0.00    +0.000 C 
BRANCH  19  20
ATOM     20  C   UNL     1       0.211  10.079  21.491  0.00  0.00    +0.000 C 
ATOM     21  O   UNL     1       0.815  10.390  22.513  0.00  0.00    +0.000 OA
BRANCH  20  22
ATOM     22  C   UNL     1      -0.326  11.089  20.543  0.00  0.00    +0.000 C 
ATOM     23  C   UNL     1      -1.404  11.838  20.798  0.00  0.00    +0.000 C 
ATOM     24  F   UNL     1      -2.066  11.685  21.968  0.00  0.00    +0.000 F 
BRANCH  23  25
ATOM     25  C   UNL     1      -1.905  12.865  19.825  0.00  0.00    +0.000 C 
BRANCH  25  26
ATOM     26  N   UNL     1      -1.678  12.463  18.439  0.00  0.00    +0.000 NA
ATOM     27  H   UNL     1      -0.731  12.102  18.333  0.00  0.00    +0.000 HD
BRANCH  26  28
ATOM     28  C   UNL     1      -2.696  11.542  17.942  0.00  0.00    +0.000 C 
ATOM     29  C   UNL     1      -2.374  10.095  17.700  0.00  0.00    +0.000 C 
ATOM     30  C   UNL     1      -2.584  11.020  16.537  0.00  0.00    +0.000 C 
ENDBRANCH  26  28
ENDBRANCH  25  26
ENDBRANCH  23  25
ENDBRANCH  20  22
ENDBRANCH  19  20
ENDBRANCH  18  19
ENDBRANCH   5  18
TORSDOF 10
ENDMDL
MODEL 3
REMARK VINA RESULT:      -7.8      2.333      3.254
REMARK  Name = 
REMARK  11 active torsions:
REMARK  status: ('A' for Active; 'I' for Inactive)
REMARK    1  A    between atoms: C_1  and  N_2
REMARK    2  A    between atoms: C_6  and  C_7
REMARK    3  A    between atoms: C_7  and  C_8
REMARK    4  A    between atoms: C_8  and  C_9
REMARK    5  A    between atoms: C_13  and  C_14
REMARK    6  A    between atoms: C_14  and  C_15
REMARK    7  A    between atoms: C_15  and  C_16
REMARK    8  A    between atoms: C_16  and  C_18
REMARK    9  A    between atoms: C_19  and  C_21
REMARK   10  A    between atoms: C_21  and  N_22
REMARK   11  A    between atoms: N_22  and  C_23
REMARK                            x       y       z     vdW  Elec       q    Type
REMARK                         _______ _______ _______ _____ _____    ______ ____
ROOT
ATOM      1  C   UNL     1       2.994   6.767  18.714  0.00  0.00    +0.000 A 
ATOM      2  C   UNL     1       2.727   7.627  17.632  0.00  0.00    +0.000 A 
ATOM      3  C   UNL     1       1.948   8.778  17.782  0.00  0.00    +0.000 A 
ATOM      4  C   UNL     1       1.409   9.098  19.025  0.00  0.00    +0.000 A 
ATOM      5  C   UNL     1       1.641   8.265  20.121  0.00  0.00    +0.000 A 
ATOM      6  C   UNL     1       2.424   7.120  19.949  0.00  0.00    +0.000 A 
ENDROOT
BRANCH   1   7
ATOM      7  C   UNL     1       3.889   5.447  18.595  0.00  0.00    +0.000 C 
ATOM      8  C   UNL     1       3.994   4.797  17.188  0.00  0.00    +0.000 C 
ATOM      9  O   UNL     1       5.426   4.930  17.158  0.00  0.00    +0.000 OA
ATOM     10  C   UNL     1       5.423   5.658  18.405  0.00  0.00    +0.000 C 
BRANCH   7  11
ATOM     11  C   UNL     1       3.482   4.421  19.671  0.00  0.00    +0.000 C 
BRANCH  11  17
ATOM     12  C   UNL     1       3.609   1.489  18.465  0.00  0.00    +0.000 C 
ATOM     13  N   UNL     1       2.434   2.238  18.821  0.00  0.00    +0.000 N 
ATOM     14  C   UNL     1       1.160   1.763  18.758  0.00  0.00    +0.000 A 
ATOM     15  N   UNL     1       0.323   2.711  19.101  0.00  0.00    +0.000 NA
ATOM     16  N   UNL     1       1.063   3.817  19.437  0.00  0.00    +0.000 NA
ATOM     17  C   UNL     1       2.341   3.526  19.294  0.00  0.00    +0.000 A 
ENDBRANCH  11  17
ENDBRANCH   7  11
ENDBRANCH   1   7
BRANCH   5  18
ATOM     18  C   UNL     1       1.050   8.543  21.477  0.00  0.00    +0.000 C 
BRANCH  18  19
ATOM     19  C   UNL     1      -0.304   9.224  21.341  0.00  0.00    +0.000 C 
BRANCH  19  20
ATOM     20  C   UNL     1      -0.245  10.672  21.762  0.00  0.00    +0.000 C 
ATOM     21  O   UNL     1      -0.228  11.025  22.937  0.00  0.00    +0.000 OA
BRANCH  20  22
ATOM     22  C   UNL     1      -0.188  11.640  20.636  0.00  0.00    +0.000 C 
ATOM     23  C   UNL     1      -1.266  12.257  20.141  0.00  0.00    +0.000 C 
ATOM     24  F   UNL     1      -2.487  12.001  20.666  0.00  0.00    +0.000 F 
BRANCH  23  25
ATOM     25  C   UNL     1      -1.167  13.248  19.018  0.00  0.00    +0.000 C 
BRANCH  25  26
ATOM     26  N   UNL     1      -1.184  12.596  17.711  0.00  0.00    +0.000 NA
ATOM     27  H   UNL     1      -0.248  12.269  17.473  0.00  0.00    +0.000 HD
BRANCH  26  28
ATOM     28  C   UNL     1      -2.193  11.546  17.613  0.00  0.00    +0.000 C 
ATOM     29  C   UNL     1      -1.802  10.124  17.326  0.00  0.00    +0.000 C 
ATOM     30  C   UNL     1      -2.488  10.940  16.270  0.00  0.00    +0.000 C 
ENDBRANCH  26  28
ENDBRANCH  25  26
ENDBRANCH  23  25
ENDBRANCH  20  22
ENDBRANCH  19  20
ENDBRANCH  18  19
ENDBRANCH   5  18
TORSDOF 10
ENDMDL
MODEL 4
REMARK VINA RESULT:      -7.7      2.194      3.043
REMARK  Name = 
REMARK  11 active torsions:
REMARK  status: ('A' for Active; 'I' for Inactive)
REMARK    1  A    between atoms: C_1  and  N_2
REMARK    2  A    between atoms: C_6  and  C_7
REMARK    3  A    between atoms: C_7  and  C_8
REMARK    4  A    between atoms: C_8  and  C_9
REMARK    5  A    between atoms: C_13  and  C_14
REMARK    6  A    between atoms: C_14  and  C_15
REMARK    7  A    between atoms: C_15  and  C_16
REMARK    8  A    between atoms: C_16  and  C_18
REMARK    9  A    between atoms: C_19  and  C_21
REMARK   10  A    between atoms: C_21  and  N_22
REMARK   11  A    between atoms: N_22  and  C_23
REMARK                            x       y       z     vdW  Elec       q    Type
REMARK                         _______ _______ _______ _____ _____    ______ ____
ROOT
ATOM      1  C   UNL     1       2.581   7.115  18.759  0.00  0.00    +0.000 A 
ATOM      2  C   UNL     1       2.203   7.950  17.691  0.00  0.00    +0.000 A 
ATOM      3  C   UNL     1       1.479   9.128  17.899  0.00  0.00    +0.000 A 
ATOM      4  C   UNL     1       1.109   9.500  19.188  0.00  0.00    +0.000 A 
ATOM      5  C   UNL     1       1.455   8.694  20.274  0.00  0.00    +0.000 A 
ATOM      6  C   UNL     1       2.180   7.522  20.044  0.00  0.00    +0.000 A 
ENDROOT
BRANCH   1   7
ATOM      7  C   UNL     1       3.420   5.766  18.573  0.00  0.00    +0.000 C 
ATOM      8  C   UNL     1       2.821   4.696  17.621  0.00  0.00    +0.000 C 
ATOM      9  O   UNL     1       3.977   4.709  16.766  0.00  0.00    +0.000 OA
ATOM     10  C   UNL     1       4.565   5.795  17.514  0.00  0.00    +0.000 C 
BRANCH   7  11
ATOM     11  C   UNL     1       3.792   5.169  19.945  0.00  0.00    +0.000 C 
BRANCH  11  17
ATOM     12  C   UNL     1       4.389   2.055  20.024  0.00  0.00    +0.000 C 
ATOM     13  N   UNL     1       3.208   2.730  20.488  0.00  0.00    +0.000 N 
ATOM     14  C   UNL     1       2.161   2.126  21.115  0.00  0.00    +0.000 A 
ATOM     15  N   UNL     1       1.228   3.012  21.360  0.00  0.00    +0.000 NA
ATOM     16  N   UNL     1       1.687   4.230  20.925  0.00  0.00    +0.000 NA
ATOM     17  C   UNL     1       2.895   4.067  20.420  0.00  0.00    +0.000 A 
ENDBRANCH  11  17
ENDBRANCH   7  11
ENDBRANCH   1   7
BRANCH   5  18
ATOM     18  C   UNL     1       1.047   9.031  21.683  0.00  0.00    +0.000 C 
BRANCH  18  19
ATOM     19  C   UNL     1      -0.448   9.305  21.755  0.00  0.00    +0.000 C 
BRANCH  19  20
ATOM     20  C   UNL     1      -0.737  10.666  22.339  0.00  0.00    +0.000 C 
ATOM     21  O   UNL     1      -0.461  10.969  23.495  0.00  0.00    +0.000 OA
BRANCH  20  22
ATOM     22  C   UNL     1      -1.368  11.622  21.392  0.00  0.00    +0.000 C 
ATOM     23  C   UNL     1      -0.672  12.386  20.545  0.00  0.00    +0.000 C 
ATOM     24  F   UNL     1       0.679  12.314  20.531  0.00  0.00    +0.000 F 
BRANCH  23  25
ATOM     25  C   UNL     1      -1.346  13.324  19.586  0.00  0.00    +0.000 C 
BRANCH  25  26
ATOM     26  N   UNL     1      -2.327  12.639  18.749  0.00  0.00    +0.000 NA
ATOM     27  H   UNL     1      -2.881  13.322  18.233  0.00  0.00    +0.000 HD
BRANCH  26  28
ATOM     28  C   UNL     1      -1.727  11.626  17.884  0.00  0.00    +0.000 C 
ATOM     29  C   UNL     1      -2.467  11.097  16.689  0.00  0.00    +0.000 C 
ATOM     30  C   UNL     1      -2.285  10.231  17.900  0.00  0.00    +0.000 C 
ENDBRANCH  26  28
ENDBRANCH  25  26
ENDBRANCH  23  25
ENDBRANCH  20  22
ENDBRANCH  19  20
ENDBRANCH  18  19
ENDBRANCH   5  18
TORSDOF 10
ENDMDL
MODEL 5
REMARK VINA RESULT:      -7.7      3.006      3.840
REMARK  Name = 
REMARK  11 active torsions:
REMARK  status: ('A' for Active; 'I' for Inactive)
REMARK    1  A    between atoms: C_1  and  N_2
REMARK    2  A    between atoms: C_6  and  C_7
REMARK    3  A    between atoms: C_7  and  C_8
REMARK    4  A    between atoms: C_8  and  C_9
REMARK    5  A    between atoms: C_13  and  C_14
REMARK    6  A    between atoms: C_14  and  C_15
REMARK    7  A    between atoms: C_15  and  C_16
REMARK    8  A    between atoms: C_16  and  C_18
REMARK    9  A    between atoms: C_19  and  C_21
REMARK   10  A    between atoms: C_21  and  N_22
REMARK   11  A    between atoms: N_22  and  C_23
REMARK                            x       y       z     vdW  Elec       q    Type
REMARK                         _______ _______ _______ _____ _____    ______ ____
ROOT
ATOM      1  C   UNL     1       3.570   6.394  18.340  0.00  0.00    +0.000 A 
ATOM      2  C   UNL     1       3.394   7.457  17.435  0.00  0.00    +0.000 A 
ATOM      3  C   UNL     1       2.551   8.534  17.720  0.00  0.00    +0.000 A 
ATOM      4  C   UNL     1       1.854   8.574  18.924  0.00  0.00    +0.000 A 
ATOM      5  C   UNL     1       1.992   7.533  19.845  0.00  0.00    +0.000 A 
ATOM      6  C   UNL     1       2.841   6.467  19.540  0.00  0.00    +0.000 A 
ENDROOT
BRANCH   1   7
ATOM      7  C   UNL     1       4.532   5.147  18.064  0.00  0.00    +0.000 C 
ATOM      8  C   UNL     1       5.999   5.469  17.668  0.00  0.00    +0.000 C 
ATOM      9  O   UNL     1       6.535   4.744  18.789  0.00  0.00    +0.000 OA
ATOM     10  C   UNL     1       5.211   4.498  19.312  0.00  0.00    +0.000 C 
BRANCH   7  11
ATOM     11  C   UNL     1       3.874   4.165  17.075  0.00  0.00    +0.000 C 
BRANCH  11  17
ATOM     12  C   UNL     1       3.717   1.347  18.523  0.00  0.00    +0.000 C 
ATOM     13  N   UNL     1       2.636   2.260  18.267  0.00  0.00    +0.000 N 
ATOM     14  C   UNL     1       1.351   2.080  18.681  0.00  0.00    +0.000 A 
ATOM     15  N   UNL     1       0.609   3.065  18.240  0.00  0.00    +0.000 NA
ATOM     16  N   UNL     1       1.428   3.931  17.560  0.00  0.00    +0.000 NA
ATOM     17  C   UNL     1       2.660   3.460  17.596  0.00  0.00    +0.000 A 
ENDBRANCH  11  17
ENDBRANCH   7  11
ENDBRANCH   1   7
BRANCH   5  18
ATOM     18  C   UNL     1       1.232   7.508  21.144  0.00  0.00    +0.000 C 
BRANCH  18  19
ATOM     19  C   UNL     1       0.318   8.720  21.252  0.00  0.00    +0.000 C 
BRANCH  19  20
ATOM     20  C   UNL     1       0.514   9.451  22.557  0.00  0.00    +0.000 C 
ATOM     21  O   UNL     1       1.601   9.531  23.121  0.00  0.00    +0.000 OA
BRANCH  20  22
ATOM     22  C   UNL     1      -0.715  10.089  23.097  0.00  0.00    +0.000 C 
ATOM     23  C   UNL     1      -1.141  11.299  22.723  0.00  0.00    +0.000 C 
ATOM     24  F   UNL     1      -0.434  12.008  21.813  0.00  0.00    +0.000 F 
BRANCH  23  25
ATOM     25  C   UNL     1      -2.401  11.902  23.274  0.00  0.00    +0.000 C 
BRANCH  25  26
ATOM     26  N   UNL     1      -2.645  13.241  22.743  0.00  0.00    +0.000 NA
ATOM     27  H   UNL     1      -2.016  13.425  21.962  0.00  0.00    +0.000 HD
BRANCH  26  28
ATOM     28  C   UNL     1      -4.047  13.472  22.409  0.00  0.00    +0.000 C 
ATOM     29  C   UNL     1      -4.708  12.718  21.290  0.00  0.00    +0.000 C 
ATOM     30  C   UNL     1      -4.385  14.174  21.124  0.00  0.00    +0.000 C 
ENDBRANCH  26  28
ENDBRANCH  25  26
ENDBRANCH  23  25
ENDBRANCH  20  22
ENDBRANCH  19  20
ENDBRANCH  18  19
ENDBRANCH   5  18
TORSDOF 10
ENDMDL
MODEL 6
REMARK VINA RESULT:      -7.6      2.378      3.204
REMARK  Name = 
REMARK  11 active torsions:
REMARK  status: ('A' for Active; 'I' for Inactive)
REMARK    1  A    between atoms: C_1  and  N_2
REMARK    2  A    between atoms: C_6  and  C_7
REMARK    3  A    between atoms: C_7  and  C_8
REMARK    4  A    between atoms: C_8  and  C_9
REMARK    5  A    between atoms: C_13  and  C_14
REMARK    6  A    between atoms: C_14  and  C_15
REMARK    7  A    between atoms: C_15  and  C_16
REMARK    8  A    between atoms: C_16  and  C_18
REMARK    9  A    between atoms: C_19  and  C_21
REMARK   10  A    between atoms: C_21  and  N_22
REMARK   11  A    between atoms: N_22  and  C_23
REMARK                            x       y       z     vdW  Elec       q    Type
REMARK                         _______ _______ _______ _____ _____    ______ ____
ROOT
ATOM      1  C   UNL     1       2.485   7.320  18.576  0.00  0.00    +0.000 A 
ATOM      2  C   UNL     1       2.595   8.346  17.619  0.00  0.00    +0.000 A 
ATOM      3  C   UNL     1       2.012   9.601  17.815  0.00  0.00    +0.000 A 
ATOM      4  C   UNL     1       1.294   9.861  18.978  0.00  0.00    +0.000 A 
ATOM      5  C   UNL     1       1.152   8.867  19.948  0.00  0.00    +0.000 A 
ATOM      6  C   UNL     1       1.745   7.620  19.732  0.00  0.00    +0.000 A 
ENDROOT
BRANCH   1   7
ATOM      7  C   UNL     1       3.145   5.874  18.403  0.00  0.00    +0.000 C 
ATOM      8  C   UNL     1       4.329   5.760  17.404  0.00  0.00    +0.000 C 
ATOM      9  O   UNL     1       5.230   5.282  18.419  0.00  0.00    +0.000 OA
ATOM     10  C   UNL     1       4.234   5.473  19.447  0.00  0.00    +0.000 C 
BRANCH   7  11
ATOM     11  C   UNL     1       2.059   4.814  18.127  0.00  0.00    +0.000 C 
BRANCH  11  17
ATOM     12  C   UNL     1       3.262   1.919  18.609  0.00  0.00    +0.000 C 
ATOM     13  N   UNL     1       2.368   2.648  19.467  0.00  0.00    +0.000 N 
ATOM     14  C   UNL     1       1.941   2.223  20.688  0.00  0.00    +0.000 A 
ATOM     15  N   UNL     1       1.097   3.094  21.184  0.00  0.00    +0.000 NA
ATOM     16  N   UNL     1       1.000   4.132  20.291  0.00  0.00    +0.000 NA
ATOM     17  C   UNL     1       1.787   3.877  19.264  0.00  0.00    +0.000 A 
ENDBRANCH  11  17
ENDBRANCH   7  11
ENDBRANCH   1   7
BRANCH   5  18
ATOM     18  C   UNL     1       0.355   9.084  21.206  0.00  0.00    +0.000 C 
BRANCH  18  19
ATOM     19  C   UNL     1       0.777  10.375  21.891  0.00  0.00    +0.000 C 
BRANCH  19  20
ATOM     20  C   UNL     1      -0.362  11.361  21.975  0.00  0.00    +0.000 C 
ATOM     21  O   UNL     1      -0.392  12.279  22.789  0.00  0.00    +0.000 OA
BRANCH  20  22
ATOM     22  C   UNL     1      -1.440  11.145  20.976  0.00  0.00    +0.000 C 
ATOM     23  C   UNL     1      -1.502  11.794  19.809  0.00  0.00    +0.000 C 
ATOM     24  F   UNL     1      -0.554  12.708  19.496  0.00  0.00    +0.000 F 
BRANCH  23  25
ATOM     25  C   UNL     1      -2.595  11.532  18.813  0.00  0.00    +0.000 C 
BRANCH  25  26
ATOM     26  N   UNL     1      -2.447  10.230  18.168  0.00  0.00    +0.000 NA
ATOM     27  H   UNL     1      -3.294   9.679  18.298  0.00  0.00    +0.000 HD
BRANCH  26  28
ATOM     28  C   UNL     1      -2.047  10.333  16.767  0.00  0.00    +0.000 C 
ATOM     29  C   UNL     1      -2.869  11.120  15.786  0.00  0.00    +0.000 C 
ATOM     30  C   UNL     1      -2.858   9.621  15.722  0.00  0.00    +0.000 C 
ENDBRANCH  26  28
ENDBRANCH  25  26
ENDBRANCH  23  25
ENDBRANCH  20  22
ENDBRANCH  19  20
ENDBRANCH  18  19
ENDBRANCH   5  18
TORSDOF 10
ENDMDL
MODEL 7
REMARK VINA RESULT:      -7.5      2.073      3.021
REMARK  Name = 
REMARK  11 active torsions:
REMARK  status: ('A' for Active; 'I' for Inactive)
REMARK    1  A    between atoms: C_1  and  N_2
REMARK    2  A    between atoms: C_6  and  C_7
REMARK    3  A    between atoms: C_7  and  C_8
REMARK    4  A    between atoms: C_8  and  C_9
REMARK    5  A    between atoms: C_13  and  C_14
REMARK    6  A    between atoms: C_14  and  C_15
REMARK    7  A    between atoms: C_15  and  C_16
REMARK    8  A    between atoms: C_16  and  C_18
REMARK    9  A    between atoms: C_19  and  C_21
REMARK   10  A    between atoms: C_21  and  N_22
REMARK   11  A    between atoms: N_22  and  C_23
REMARK                            x       y       z     vdW  Elec       q    Type
REMARK                         _______ _______ _______ _____ _____    ______ ____
ROOT
ATOM      1  C   UNL     1       2.957   7.145  18.440  0.00  0.00    +0.000 A 
ATOM      2  C   UNL     1       2.759   8.169  17.495  0.00  0.00    +0.000 A 
ATOM      3  C   UNL     1       1.947   9.274  17.766  0.00  0.00    +0.000 A 
ATOM      4  C   UNL     1       1.305   9.381  18.996  0.00  0.00    +0.000 A 
ATOM      5  C   UNL     1       1.466   8.381  19.957  0.00  0.00    +0.000 A 
ATOM      6  C   UNL     1       2.283   7.287  19.665  0.00  0.00    +0.000 A 
ENDROOT
BRANCH   1   7
ATOM      7  C   UNL     1       3.885   5.869  18.181  0.00  0.00    +0.000 C 
ATOM      8  C   UNL     1       5.282   6.136  17.555  0.00  0.00    +0.000 C 
ATOM      9  O   UNL     1       5.971   5.541  18.669  0.00  0.00    +0.000 OA
ATOM     10  C   UNL     1       4.733   5.364  19.390  0.00  0.00    +0.000 C 
BRANCH   7  11
ATOM     11  C   UNL     1       3.109   4.785  17.408  0.00  0.00    +0.000 C 
BRANCH  11  17
ATOM     12  C   UNL     1       1.132   3.803  19.687  0.00  0.00    +0.000 C 
ATOM     13  N   UNL     1       2.153   3.037  19.025  0.00  0.00    +0.000 N 
ATOM     14  C   UNL     1       2.389   1.712  19.233  0.00  0.00    +0.000 A 
ATOM     15  N   UNL     1       3.417   1.334  18.513  0.00  0.00    +0.000 NA
ATOM     16  N   UNL     1       3.838   2.419  17.787  0.00  0.00    +0.000 NA
ATOM     17  C   UNL     1       3.060   3.445  18.075  0.00  0.00    +0.000 A 
ENDBRANCH  11  17
ENDBRANCH   7  11
ENDBRANCH   1   7
BRANCH   5  18
ATOM     18  C   UNL     1       0.764   8.430  21.288  0.00  0.00    +0.000 C 
BRANCH  18  19
ATOM     19  C   UNL     1       1.036   9.753  21.988  0.00  0.00    +0.000 C 
BRANCH  19  20
ATOM     20  C   UNL     1      -0.238  10.517  22.251  0.00  0.00    +0.000 C 
ATOM     21  O   UNL     1      -0.536  10.957  23.357  0.00  0.00    +0.000 OA
BRANCH  20  22
ATOM     22  C   UNL     1      -1.097  10.713  21.055  0.00  0.00    +0.000 C 
ATOM     23  C   UNL     1      -0.918  11.703  20.175  0.00  0.00    +0.000 C 
ATOM     24  F   UNL     1       0.084  12.594  20.360  0.00  0.00    +0.000 F 
BRANCH  23  25
ATOM     25  C   UNL     1      -1.794  11.857  18.965  0.00  0.00    +0.000 C 
BRANCH  25  26
ATOM     26  N   UNL     1      -2.258  10.568  18.459  0.00  0.00    +0.000 NA
ATOM     27  H   UNL     1      -3.247  10.447  18.672  0.00  0.00    +0.000 HD
BRANCH  26  28
ATOM     28  C   UNL     1      -1.954  10.369  17.045  0.00  0.00    +0.000 C 
ATOM     29  C   UNL     1      -2.688  11.137  15.983  0.00  0.00    +0.000 C 
ATOM     30  C   UNL     1      -2.960   9.674  16.172  0.00  0.00    +0.000 C 
ENDBRANCH  26  28
ENDBRANCH  25  26
ENDBRANCH  23  25
ENDBRANCH  20  22
ENDBRANCH  19  20
ENDBRANCH  18  19
ENDBRANCH   5  18
TORSDOF 10
ENDMDL
MODEL 8
REMARK VINA RESULT:      -7.4      2.406      8.655
REMARK  Name = 
REMARK  11 active torsions:
REMARK  status: ('A' for Active; 'I' for Inactive)
REMARK    1  A    between atoms: C_1  and  N_2
REMARK    2  A    between atoms: C_6  and  C_7
REMARK    3  A    between atoms: C_7  and  C_8
REMARK    4  A    between atoms: C_8  and  C_9
REMARK    5  A    between atoms: C_13  and  C_14
REMARK    6  A    between atoms: C_14  and  C_15
REMARK    7  A    between atoms: C_15  and  C_16
REMARK    8  A    between atoms: C_16  and  C_18
REMARK    9  A    between atoms: C_19  and  C_21
REMARK   10  A    between atoms: C_21  and  N_22
REMARK   11  A    between atoms: N_22  and  C_23
REMARK                            x       y       z     vdW  Elec       q    Type
REMARK                         _______ _______ _______ _____ _____    ______ ____
ROOT
ATOM      1  C   UNL     1       1.194   9.176  19.585  0.00  0.00    +0.000 A 
ATOM      2  C   UNL     1       1.738   9.389  18.305  0.00  0.00    +0.000 A 
ATOM      3  C   UNL     1       2.527   8.425  17.671  0.00  0.00    +0.000 A 
ATOM      4  C   UNL     1       2.797   7.217  18.307  0.00  0.00    +0.000 A 
ATOM      5  C   UNL     1       2.284   6.970  19.582  0.00  0.00    +0.000 A 
ATOM      6  C   UNL     1       1.497   7.947  20.197  0.00  0.00    +0.000 A 
ENDROOT
BRANCH   1   7
ATOM      7  C   UNL     1       0.276  10.243  20.345  0.00  0.00    +0.000 C 
ATOM      8  C   UNL     1      -0.355   9.789  21.689  0.00  0.00    +0.000 C 
ATOM      9  O   UNL     1       0.278  10.852  22.424  0.00  0.00    +0.000 OA
ATOM     10  C   UNL     1       1.012  11.275  21.255  0.00  0.00    +0.000 C 
BRANCH   7  11
ATOM     11  C   UNL     1      -0.778  10.828  19.385  0.00  0.00    +0.000 C 
BRANCH  11  17
ATOM     12  C   UNL     1      -2.392  12.937  21.120  0.00  0.00    +0.000 C 
ATOM     13  N   UNL     1      -1.443  13.209  20.075  0.00  0.00    +0.000 N 
ATOM     14  C   UNL     1      -1.027  14.451  19.706  0.00  0.00    +0.000 A 
ATOM     15  N   UNL     1      -0.202  14.352  18.692  0.00  0.00    +0.000 NA
ATOM     16  N   UNL     1      -0.039  13.017  18.418  0.00  0.00    +0.000 NA
ATOM     17  C   UNL     1      -0.769  12.322  19.269  0.00  0.00    +0.000 A 
ENDBRANCH  11  17
ENDBRANCH   7  11
ENDBRANCH   1   7
BRANCH   5  18
ATOM     18  C   UNL     1       2.577   5.697  20.330  0.00  0.00    +0.000 C 
BRANCH  18  19
ATOM     19  C   UNL     1       1.523   4.643  20.023  0.00  0.00    +0.000 C 
BRANCH  19  20
ATOM     20  C   UNL     1       2.130   3.418  19.384  0.00  0.00    +0.000 C 
ATOM     21  O   UNL     1       1.945   2.282  19.810  0.00  0.00    +0.000 OA
BRANCH  20  22
ATOM     22  C   UNL     1       2.957   3.695  18.181  0.00  0.00    +0.000 C 
ATOM     23  C   UNL     1       4.287   3.559  18.155  0.00  0.00    +0.000 C 
ATOM     24  F   UNL     1       4.943   3.158  19.269  0.00  0.00    +0.000 F 
BRANCH  23  25
ATOM     25  C   UNL     1       5.087   3.825  16.913  0.00  0.00    +0.000 C 
BRANCH  25  26
ATOM     26  N   UNL     1       6.431   4.307  17.222  0.00  0.00    +0.000 NA
ATOM     27  H   UNL     1       7.016   4.261  16.389  0.00  0.00    +0.000 HD
BRANCH  26  28
ATOM     28  C   UNL     1       6.433   5.627  17.845  0.00  0.00    +0.000 C 
ATOM     29  C   UNL     1       7.323   6.722  17.329  0.00  0.00    +0.000 C 
ATOM     30  C   UNL     1       7.634   6.058  18.638  0.00  0.00    +0.000 C 
ENDBRANCH  26  28
ENDBRANCH  25  26
ENDBRANCH  23  25
ENDBRANCH  20  22
ENDBRANCH  19  20
ENDBRANCH  18  19
ENDBRANCH   5  18
TORSDOF 10
ENDMDL
MODEL 9
REMARK VINA RESULT:      -7.4      2.038      3.228
REMARK  Name = 
REMARK  11 active torsions:
REMARK  status: ('A' for Active; 'I' for Inactive)
REMARK    1  A    between atoms: C_1  and  N_2
REMARK    2  A    between atoms: C_6  and  C_7
REMARK    3  A    between atoms: C_7  and  C_8
REMARK    4  A    between atoms: C_8  and  C_9
REMARK    5  A    between atoms: C_13  and  C_14
REMARK    6  A    between atoms: C_14  and  C_15
REMARK    7  A    between atoms: C_15  and  C_16
REMARK    8  A    between atoms: C_16  and  C_18
REMARK    9  A    between atoms: C_19  and  C_21
REMARK   10  A    between atoms: C_21  and  N_22
REMARK   11  A    between atoms: N_22  and  C_23
REMARK                            x       y       z     vdW  Elec       q    Type
REMARK                         _______ _______ _______ _____ _____    ______ ____
ROOT
ATOM      1  C   UNL     1       4.092   5.952  18.770  0.00  0.00    +0.000 A 
ATOM      2  C   UNL     1       3.980   6.756  17.621  0.00  0.00    +0.000 A 
ATOM      3  C   UNL     1       3.022   7.769  17.522  0.00  0.00    +0.000 A 
ATOM      4  C   UNL     1       2.143   8.002  18.576  0.00  0.00    +0.000 A 
ATOM      5  C   UNL     1       2.214   7.219  19.729  0.00  0.00    +0.000 A 
ATOM      6  C   UNL     1       3.179   6.213  19.808  0.00  0.00    +0.000 A 
ENDROOT
BRANCH   1   7
ATOM      7  C   UNL     1       5.178   4.790  18.935  0.00  0.00    +0.000 C 
ATOM      8  C   UNL     1       5.939   4.357  17.653  0.00  0.00    +0.000 C 
ATOM      9  O   UNL     1       7.221   4.680  18.221  0.00  0.00    +0.000 OA
ATOM     10  C   UNL     1       6.601   5.225  19.406  0.00  0.00    +0.000 C 
BRANCH   7  11
ATOM     11  C   UNL     1       4.569   3.582  19.675  0.00  0.00    +0.000 C 
BRANCH  11  17
ATOM     12  C   UNL     1       1.752   3.050  21.034  0.00  0.00    +0.000 C 
ATOM     13  N   UNL     1       2.111   2.846  19.657  0.00  0.00    +0.000 N 
ATOM     14  C   UNL     1       1.251   2.446  18.680  0.00  0.00    +0.000 A 
ATOM     15  N   UNL     1       1.905   2.307  17.553  0.00  0.00    +0.000 NA
ATOM     16  N   UNL     1       3.210   2.663  17.783  0.00  0.00    +0.000 NA
ATOM     17  C   UNL     1       3.332   3.014  19.049  0.00  0.00    +0.000 A 
ENDBRANCH  11  17
ENDBRANCH   7  11
ENDBRANCH   1   7
BRANCH   5  18
ATOM     18  C   UNL     1       1.263   7.404  20.881  0.00  0.00    +0.000 C 
BRANCH  18  19
ATOM     19  C   UNL     1       1.608   8.663  21.663  0.00  0.00    +0.000 C 
BRANCH  19  20
ATOM     20  C   UNL     1       0.437   9.612  21.737  0.00  0.00    +0.000 C 
ATOM     21  O   UNL     1       0.150  10.241  22.751  0.00  0.00    +0.000 OA
BRANCH  20  22
ATOM     22  C   UNL     1      -0.334   9.742  20.473  0.00  0.00    +0.000 C 
ATOM     23  C   UNL     1      -0.090  10.684  19.557  0.00  0.00    +0.000 C 
ATOM     24  F   UNL     1       0.896  11.586  19.766  0.00  0.00    +0.000 F 
BRANCH  23  25
ATOM     25  C   UNL     1      -0.875  10.770  18.280  0.00  0.00    +0.000 C 
BRANCH  25  26
ATOM     26  N   UNL     1      -2.294  11.019  18.525  0.00  0.00    +0.000 NA
ATOM     27  H   UNL     1      -2.488  12.017  18.457  0.00  0.00    +0.000 HD
BRANCH  26  28
ATOM     28  C   UNL     1      -3.167  10.211  17.678  0.00  0.00    +0.000 C 
ATOM     29  C   UNL     1      -2.885  10.052  16.211  0.00  0.00    +0.000 C 
ATOM     30  C   UNL     1      -4.038  10.898  16.664  0.00  0.00    +0.000 C 
ENDBRANCH  26  28
ENDBRANCH  25  26
ENDBRANCH  23  25
ENDBRANCH  20  22
ENDBRANCH  19  20
ENDBRANCH  18  19
ENDBRANCH   5  18
TORSDOF 10
ENDMDL
