MODEL 1
REMARK VINA RESULT:      -8.4      0.000      0.000
REMARK  Name = 
REMARK  5 active torsions:
REMARK  status: ('A' for Active; 'I' for Inactive)
REMARK    1  A    between atoms: C_2  and  C_11
REMARK    2  A    between atoms: N_3  and  C_4
REMARK    3  A    between atoms: C_4  and  C_5
REMARK    4  A    between atoms: C_15  and  S_16
REMARK    5  A    between atoms: S_16  and  N_19
REMARK                            x       y       z     vdW  Elec       q    Type
REMARK                         _______ _______ _______ _____ _____    ______ ____
ROOT
ATOM      1  C   UNL     1       0.783   9.921  18.755  0.00  0.00    +0.000 A 
ATOM      2  C   UNL     1      -0.487   9.855  18.151  0.00  0.00    +0.000 A 
ATOM      3  C   UNL     1      -1.451  10.839  18.388  0.00  0.00    +0.000 A 
ATOM      4  C   UNL     1      -1.162  11.902  19.238  0.00  0.00    +0.000 A 
ATOM      5  C   UNL     1       0.093  11.984  19.850  0.00  0.00    +0.000 A 
ATOM      6  C   UNL     1       1.074  10.997  19.612  0.00  0.00    +0.000 A 
ENDROOT
BRANCH   1   8
ATOM      7  O   UNL     1       2.322   8.885  17.288  0.00  0.00    +0.000 OA
ATOM      8  C   UNL     1       1.754   8.838  18.375  0.00  0.00    +0.000 C 
ATOM      9  N   UNL     1       1.965   7.810  19.262  0.00  0.00    +0.000 N 
ATOM     10  H   UNL     1       1.507   7.770  20.161  0.00  0.00    +0.000 HD
BRANCH   9  11
ATOM     11  C   UNL     1       2.834   6.689  18.946  0.00  0.00    +0.000 C 
BRANCH  11  12
ATOM     12  C   UNL     1       2.164   5.357  19.197  0.00  0.00    +0.000 A 
ATOM     13  C   UNL     1       1.734   5.014  20.477  0.00  0.00    +0.000 A 
ATOM     14  C   UNL     1       1.144   3.768  20.679  0.00  0.00    +0.000 A 
ATOM     15  C   UNL     1       0.989   2.905  19.601  0.00  0.00    +0.000 A 
ATOM     16  C   UNL     1       1.427   3.328  18.358  0.00  0.00    +0.000 A 
ATOM     17  N   UNL     1       2.002   4.531  18.129  0.00  0.00    +0.000 NA
ENDBRANCH  11  12
ENDBRANCH   9  11
ENDBRANCH   1   8
BRANCH   5  18
ATOM     18  S   UNL     1       0.548  13.516  20.651  0.00  0.00    +0.000 S 
ATOM     19  O   UNL     1      -0.605  13.882  21.448  0.00  0.00    +0.000 OA
ATOM     20  O   UNL     1       1.847  13.343  21.268  0.00  0.00    +0.000 OA
BRANCH  18  21
ATOM     21  N   UNL     1       0.728  14.673  19.430  0.00  0.00    +0.000 NA
ATOM     22  C   UNL     1       1.987  14.665  18.586  0.00  0.00    +0.000 C 
ATOM     23  C   UNL     1       2.694  16.052  18.497  0.00  0.00    +0.000 C 
ATOM     24  C   UNL     1       1.659  17.063  18.058  0.00  0.00    +0.000 A 
ATOM     25  C   UNL     1       1.799  17.894  16.949  0.00  0.00    +0.000 A 
ATOM     26  C   UNL     1       0.669  18.531  16.432  0.00  0.00    +0.000 A 
ATOM     27  C   UNL     1      -0.581  18.361  17.038  0.00  0.00    +0.000 A 
ATOM     28  C   UNL     1      -0.699  17.613  18.207  0.00  0.00    +0.000 A 
ATOM     29  C   UNL     1       0.427  16.984  18.729  0.00  0.00    +0.000 A 
ATOM     30  C   UNL     1       0.367  16.040  19.900  0.00  0.00    +0.000 C 
ENDBRANCH  18  21
ENDBRANCH   5  18
TORSDOF 5
ENDMDL
MODEL 2
REMARK VINA RESULT:      -8.4      6.583     11.246
REMARK  Name = 
REMARK  5 active torsions:
REMARK  status: ('A' for Active; 'I' for Inactive)
REMARK    1  A    between atoms: C_2  and  C_11
REMARK    2  A    between atoms: N_3  and  C_4
REMARK    3  A    between atoms: C_4  and  C_5
REMARK    4  A    between atoms: C_15  and  S_16
REMARK    5  A    between atoms: S_16  and  N_19
REMARK                            x       y       z     vdW  Elec       q    Type
REMARK                         _______ _______ _______ _____ _____    ______ ____
ROOT
ATOM      1  C   UNL     1       7.928   8.268  18.191  0.00  0.00    +0.000 A 
ATOM      2  C   UNL     1       8.603   7.388  19.057  0.00  0.00    +0.000 A 
ATOM      3  C   UNL     1       8.225   6.045  19.159  0.00  0.00    +0.000 A 
ATOM      4  C   UNL     1       7.161   5.565  18.401  0.00  0.00    +0.000 A 
ATOM      5  C   UNL     1       6.477   6.425  17.537  0.00  0.00    +0.000 A 
ATOM      6  C   UNL     1       6.855   7.781  17.423  0.00  0.00    +0.000 A 
ENDROOT
BRANCH   1   8
ATOM      7  O   UNL     1       7.969  10.473  17.336  0.00  0.00    +0.000 OA
ATOM      8  C   UNL     1       8.465   9.671  18.121  0.00  0.00    +0.000 C 
ATOM      9  N   UNL     1       9.518  10.007  18.937  0.00  0.00    +0.000 N 
ATOM     10  H   UNL     1       9.926   9.354  19.590  0.00  0.00    +0.000 HD
BRANCH   9  11
ATOM     11  C   UNL     1      10.142  11.319  18.884  0.00  0.00    +0.000 C 
BRANCH  11  12
ATOM     12  C   UNL     1       9.570  12.266  19.914  0.00  0.00    +0.000 A 
ATOM     13  C   UNL     1       9.732  12.010  21.275  0.00  0.00    +0.000 A 
ATOM     14  C   UNL     1       9.171  12.890  22.198  0.00  0.00    +0.000 A 
ATOM     15  C   UNL     1       8.474  14.003  21.742  0.00  0.00    +0.000 A 
ATOM     16  C   UNL     1       8.373  14.195  20.374  0.00  0.00    +0.000 A 
ATOM     17  N   UNL     1       8.908  13.361  19.453  0.00  0.00    +0.000 NA
ENDBRANCH  11  12
ENDBRANCH   9  11
ENDBRANCH   1   8
BRANCH   5  18
ATOM     18  S   UNL     1       5.357   5.711  16.340  0.00  0.00    +0.000 S 
ATOM     19  O   UNL     1       4.984   6.806  15.471  0.00  0.00    +0.000 OA
ATOM     20  O   UNL     1       5.966   4.513  15.800  0.00  0.00    +0.000 OA
BRANCH  18  21
ATOM     21  N   UNL     1       3.976   5.225  17.190  0.00  0.00    +0.000 NA
ATOM     22  C   UNL     1       3.239   6.239  18.042  0.00  0.00    +0.000 C 
ATOM     23  C   UNL     1       2.973   5.760  19.501  0.00  0.00    +0.000 C 
ATOM     24  C   UNL     1       2.299   4.409  19.422  0.00  0.00    +0.000 A 
ATOM     25  C   UNL     1       1.080   4.107  20.025  0.00  0.00    +0.000 A 
ATOM     26  C   UNL     1       0.384   2.968  19.614  0.00  0.00    +0.000 A 
ATOM     27  C   UNL     1       0.918   2.126  18.632  0.00  0.00    +0.000 A 
ATOM     28  C   UNL     1       2.182   2.375  18.105  0.00  0.00    +0.000 A 
ATOM     29  C   UNL     1       2.883   3.505  18.519  0.00  0.00    +0.000 A 
ATOM     30  C   UNL     1       4.186   3.932  17.899  0.00  0.00    +0.000 C 
ENDBRANCH  18  21
ENDBRANCH   5  18
TORSDOF 5
ENDMDL
MODEL 3
REMARK VINA RESULT:      -8.3      3.500      5.330
REMARK  Name = 
REMARK  5 active torsions:
REMARK  status: ('A' for Active; 'I' for Inactive)
REMARK    1  A    between atoms: C_2  and  C_11
REMARK    2  A    between atoms: N_3  and  C_4
REMARK    3  A    between atoms: C_4  and  C_5
REMARK    4  A    between atoms: C_15  and  S_16
REMARK    5  A    between atoms: S_16  and  N_19
REMARK                            x       y       z     vdW  Elec       q    Type
REMARK                         _______ _______ _______ _____ _____    ______ ____
ROOT
ATOM      1  C   UNL     1       1.446   7.656  20.658  0.00  0.00    +0.000 A 
ATOM      2  C   UNL     1       0.520   7.721  21.716  0.00  0.00    +0.000 A 
ATOM      3  C   UNL     1      -0.106   8.925  22.053  0.00  0.00    +0.000 A 
ATOM      4  C   UNL     1       0.188  10.083  21.341  0.00  0.00    +0.000 A 
ATOM      5  C   UNL     1       1.107  10.040  20.288  0.00  0.00    +0.000 A 
ATOM      6  C   UNL     1       1.741   8.828  19.938  0.00  0.00    +0.000 A 
ENDROOT
BRANCH   1   8
ATOM      7  O   UNL     1       1.352   5.293  20.620  0.00  0.00    +0.000 OA
ATOM      8  C   UNL     1       2.007   6.296  20.351  0.00  0.00    +0.000 C 
ATOM      9  N   UNL     1       3.258   6.218  19.789  0.00  0.00    +0.000 N 
ATOM     10  H   UNL     1       3.799   7.039  19.558  0.00  0.00    +0.000 HD
BRANCH   9  11
ATOM     11  C   UNL     1       3.903   4.942  19.524  0.00  0.00    +0.000 C 
BRANCH  11  12
ATOM     12  C   UNL     1       4.975   5.053  18.463  0.00  0.00    +0.000 A 
ATOM     13  C   UNL     1       4.678   5.596  17.214  0.00  0.00    +0.000 A 
ATOM     14  C   UNL     1       5.682   5.659  16.251  0.00  0.00    +0.000 A 
ATOM     15  C   UNL     1       6.954   5.190  16.560  0.00  0.00    +0.000 A 
ATOM     16  C   UNL     1       7.171   4.681  17.829  0.00  0.00    +0.000 A 
ATOM     17  N   UNL     1       6.218   4.608  18.787  0.00  0.00    +0.000 NA
ENDBRANCH  11  12
ENDBRANCH   9  11
ENDBRANCH   1   8
BRANCH   5  18
ATOM     18  S   UNL     1       1.205  11.446  19.189  0.00  0.00    +0.000 S 
ATOM     19  O   UNL     1       1.450  12.583  20.051  0.00  0.00    +0.000 OA
ATOM     20  O   UNL     1       2.118  11.124  18.112  0.00  0.00    +0.000 OA
BRANCH  18  21
ATOM     21  N   UNL     1      -0.329  11.635  18.498  0.00  0.00    +0.000 NA
ATOM     22  C   UNL     1      -1.300  12.621  19.115  0.00  0.00    +0.000 C 
ATOM     23  C   UNL     1      -2.707  12.019  19.410  0.00  0.00    +0.000 C 
ATOM     24  C   UNL     1      -3.203  11.375  18.135  0.00  0.00    +0.000 A 
ATOM     25  C   UNL     1      -4.419  11.679  17.528  0.00  0.00    +0.000 A 
ATOM     26  C   UNL     1      -4.627  11.299  16.200  0.00  0.00    +0.000 A 
ATOM     27  C   UNL     1      -3.640  10.598  15.499  0.00  0.00    +0.000 A 
ATOM     28  C   UNL     1      -2.468  10.206  16.141  0.00  0.00    +0.000 A 
ATOM     29  C   UNL     1      -2.261  10.575  17.467  0.00  0.00    +0.000 A 
ATOM     30  C   UNL     1      -0.967  10.324  18.193  0.00  0.00    +0.000 C 
ENDBRANCH  18  21
ENDBRANCH   5  18
TORSDOF 5
ENDMDL
MODEL 4
REMARK VINA RESULT:      -8.3      4.094      5.616
REMARK  Name = 
REMARK  5 active torsions:
REMARK  status: ('A' for Active; 'I' for Inactive)
REMARK    1  A    between atoms: C_2  and  C_11
REMARK    2  A    between atoms: N_3  and  C_4
REMARK    3  A    between atoms: C_4  and  C_5
REMARK    4  A    between atoms: C_15  and  S_16
REMARK    5  A    between atoms: S_16  and  N_19
REMARK                            x       y       z     vdW  Elec       q    Type
REMARK                         _______ _______ _______ _____ _____    ______ ____
ROOT
ATOM      1  C   UNL     1       0.581   9.658  20.989  0.00  0.00    +0.000 A 
ATOM      2  C   UNL     1       0.248   9.005  22.191  0.00  0.00    +0.000 A 
ATOM      3  C   UNL     1      -0.513   9.645  23.173  0.00  0.00    +0.000 A 
ATOM      4  C   UNL     1      -0.947  10.952  22.972  0.00  0.00    +0.000 A 
ATOM      5  C   UNL     1      -0.625  11.619  21.786  0.00  0.00    +0.000 A 
ATOM      6  C   UNL     1       0.139  10.978  20.786  0.00  0.00    +0.000 A 
ENDROOT
BRANCH   1   8
ATOM      7  O   UNL     1       1.412   9.224  18.818  0.00  0.00    +0.000 OA
ATOM      8  C   UNL     1       1.350   8.847  19.984  0.00  0.00    +0.000 C 
ATOM      9  N   UNL     1       1.950   7.685  20.405  0.00  0.00    +0.000 N 
ATOM     10  H   UNL     1       1.908   7.373  21.365  0.00  0.00    +0.000 HD
BRANCH   9  11
ATOM     11  C   UNL     1       2.653   6.806  19.486  0.00  0.00    +0.000 C 
BRANCH  11  12
ATOM     12  C   UNL     1       2.063   5.415  19.459  0.00  0.00    +0.000 A 
ATOM     13  C   UNL     1       2.004   4.696  18.266  0.00  0.00    +0.000 A 
ATOM     14  C   UNL     1       1.431   3.426  18.272  0.00  0.00    +0.000 A 
ATOM     15  C   UNL     1       0.943   2.904  19.464  0.00  0.00    +0.000 A 
ATOM     16  C   UNL     1       1.055   3.675  20.609  0.00  0.00    +0.000 A 
ATOM     17  N   UNL     1       1.608   4.909  20.636  0.00  0.00    +0.000 NA
ENDBRANCH  11  12
ENDBRANCH   9  11
ENDBRANCH   1   8
BRANCH   5  18
ATOM     18  S   UNL     1      -1.474  13.148  21.415  0.00  0.00    +0.000 S 
ATOM     19  O   UNL     1      -1.086  14.060  22.470  0.00  0.00    +0.000 OA
ATOM     20  O   UNL     1      -1.234  13.480  20.026  0.00  0.00    +0.000 OA
BRANCH  18  21
ATOM     21  N   UNL     1      -3.130  12.839  21.572  0.00  0.00    +0.000 NA
ATOM     22  C   UNL     1      -3.954  12.579  20.327  0.00  0.00    +0.000 C 
ATOM     23  C   UNL     1      -5.239  13.457  20.228  0.00  0.00    +0.000 C 
ATOM     24  C   UNL     1      -6.003  13.295  21.522  0.00  0.00    +0.000 A 
ATOM     25  C   UNL     1      -7.334  12.894  21.599  0.00  0.00    +0.000 A 
ATOM     26  C   UNL     1      -7.837  12.445  22.822  0.00  0.00    +0.000 A 
ATOM     27  C   UNL     1      -7.024  12.428  23.961  0.00  0.00    +0.000 A 
ATOM     28  C   UNL     1      -5.725  12.926  23.904  0.00  0.00    +0.000 A 
ATOM     29  C   UNL     1      -5.224  13.383  22.688  0.00  0.00    +0.000 A 
ATOM     30  C   UNL     1      -3.790  13.800  22.500  0.00  0.00    +0.000 C 
ENDBRANCH  18  21
ENDBRANCH   5  18
TORSDOF 5
ENDMDL
MODEL 5
REMARK VINA RESULT:      -8.2      3.802      5.131
REMARK  Name = 
REMARK  5 active torsions:
REMARK  status: ('A' for Active; 'I' for Inactive)
REMARK    1  A    between atoms: C_2  and  C_11
REMARK    2  A    between atoms: N_3  and  C_4
REMARK    3  A    between atoms: C_4  and  C_5
REMARK    4  A    between atoms: C_15  and  S_16
REMARK    5  A    between atoms: S_16  and  N_19
REMARK                            x       y       z     vdW  Elec       q    Type
REMARK                         _______ _______ _______ _____ _____    ______ ____
ROOT
ATOM      1  C   UNL     1       1.327   8.750  20.153  0.00  0.00    +0.000 A 
ATOM      2  C   UNL     1       0.954   8.357  21.453  0.00  0.00    +0.000 A 
ATOM      3  C   UNL     1       0.155   9.178  22.253  0.00  0.00    +0.000 A 
ATOM      4  C   UNL     1      -0.278  10.409  21.769  0.00  0.00    +0.000 A 
ATOM      5  C   UNL     1       0.083  10.818  20.482  0.00  0.00    +0.000 A 
ATOM      6  C   UNL     1       0.886   9.993  19.665  0.00  0.00    +0.000 A 
ENDROOT
BRANCH   1   8
ATOM      7  O   UNL     1       2.252   7.893  18.152  0.00  0.00    +0.000 OA
ATOM      8  C   UNL     1       2.136   7.756  19.367  0.00  0.00    +0.000 C 
ATOM      9  N   UNL     1       2.711   6.705  20.038  0.00  0.00    +0.000 N 
ATOM     10  H   UNL     1       2.625   6.591  21.038  0.00  0.00    +0.000 HD
BRANCH   9  11
ATOM     11  C   UNL     1       3.450   5.663  19.346  0.00  0.00    +0.000 C 
BRANCH  11  12
ATOM     12  C   UNL     1       2.620   4.417  19.133  0.00  0.00    +0.000 A 
ATOM     13  C   UNL     1       2.926   3.534  18.099  0.00  0.00    +0.000 A 
ATOM     14  C   UNL     1       2.126   2.408  17.915  0.00  0.00    +0.000 A 
ATOM     15  C   UNL     1       1.052   2.189  18.770  0.00  0.00    +0.000 A 
ATOM     16  C   UNL     1       0.826   3.106  19.783  0.00  0.00    +0.000 A 
ATOM     17  N   UNL     1       1.586   4.206  19.989  0.00  0.00    +0.000 NA
ENDBRANCH  11  12
ENDBRANCH   9  11
ENDBRANCH   1   8
BRANCH   5  18
ATOM     18  S   UNL     1      -0.760  12.225  19.771  0.00  0.00    +0.000 S 
ATOM     19  O   UNL     1      -0.740  13.239  20.805  0.00  0.00    +0.000 OA
ATOM     20  O   UNL     1      -0.190  12.490  18.466  0.00  0.00    +0.000 OA
BRANCH  18  21
ATOM     21  N   UNL     1      -2.368  11.760  19.525  0.00  0.00    +0.000 NA
ATOM     22  C   UNL     1      -2.728  10.984  18.275  0.00  0.00    +0.000 C 
ATOM     23  C   UNL     1      -3.927  11.588  17.482  0.00  0.00    +0.000 C 
ATOM     24  C   UNL     1      -5.072  11.768  18.452  0.00  0.00    +0.000 A 
ATOM     25  C   UNL     1      -6.345  11.234  18.267  0.00  0.00    +0.000 A 
ATOM     26  C   UNL     1      -7.214  11.158  19.357  0.00  0.00    +0.000 A 
ATOM     27  C   UNL     1      -6.822  11.639  20.611  0.00  0.00    +0.000 A 
ATOM     28  C   UNL     1      -5.589  12.265  20.770  0.00  0.00    +0.000 A 
ATOM     29  C   UNL     1      -4.724  12.350  19.683  0.00  0.00    +0.000 A 
ATOM     30  C   UNL     1      -3.318  12.876  19.795  0.00  0.00    +0.000 C 
ENDBRANCH  18  21
ENDBRANCH   5  18
TORSDOF 5
ENDMDL
MODEL 6
REMARK VINA RESULT:      -8.2      1.749      2.139
REMARK  Name = 
REMARK  5 active torsions:
REMARK  status: ('A' for Active; 'I' for Inactive)
REMARK    1  A    between atoms: C_2  and  C_11
REMARK    2  A    between atoms: N_3  and  C_4
REMARK    3  A    between atoms: C_4  and  C_5
REMARK    4  A    between atoms: C_15  and  S_16
REMARK    5  A    between atoms: S_16  and  N_19
REMARK                            x       y       z     vdW  Elec       q    Type
REMARK                         _______ _______ _______ _____ _____    ______ ____
ROOT
ATOM      1  C   UNL     1       1.219   8.959  19.958  0.00  0.00    +0.000 A 
ATOM      2  C   UNL     1       1.042   8.898  21.353  0.00  0.00    +0.000 A 
ATOM      3  C   UNL     1       0.234   9.825  22.018  0.00  0.00    +0.000 A 
ATOM      4  C   UNL     1      -0.405  10.830  21.299  0.00  0.00    +0.000 A 
ATOM      5  C   UNL     1      -0.240  10.909  19.913  0.00  0.00    +0.000 A 
ATOM      6  C   UNL     1       0.570   9.974  19.232  0.00  0.00    +0.000 A 
ENDROOT
BRANCH   1   8
ATOM      7  O   UNL     1       2.264   7.868  18.138  0.00  0.00    +0.000 OA
ATOM      8  C   UNL     1       2.061   7.873  19.348  0.00  0.00    +0.000 C 
ATOM      9  N   UNL     1       2.566   6.898  20.174  0.00  0.00    +0.000 N 
ATOM     10  H   UNL     1       2.408   6.901  21.172  0.00  0.00    +0.000 HD
BRANCH   9  11
ATOM     11  C   UNL     1       3.331   5.775  19.658  0.00  0.00    +0.000 C 
BRANCH  11  12
ATOM     12  C   UNL     1       2.463   4.567  19.388  0.00  0.00    +0.000 A 
ATOM     13  C   UNL     1       1.496   4.172  20.311  0.00  0.00    +0.000 A 
ATOM     14  C   UNL     1       0.730   3.040  20.043  0.00  0.00    +0.000 A 
ATOM     15  C   UNL     1       0.940   2.340  18.861  0.00  0.00    +0.000 A 
ATOM     16  C   UNL     1       1.908   2.808  17.988  0.00  0.00    +0.000 A 
ATOM     17  N   UNL     1       2.666   3.905  18.218  0.00  0.00    +0.000 NA
ENDBRANCH  11  12
ENDBRANCH   9  11
ENDBRANCH   1   8
BRANCH   5  18
ATOM     18  S   UNL     1      -1.330  11.983  18.989  0.00  0.00    +0.000 S 
ATOM     19  O   UNL     1      -1.656  11.245  17.786  0.00  0.00    +0.000 OA
ATOM     20  O   UNL     1      -2.375  12.449  19.876  0.00  0.00    +0.000 OA
BRANCH  18  21
ATOM     21  N   UNL     1      -0.419  13.337  18.541  0.00  0.00    +0.000 NA
ATOM     22  C   UNL     1       1.073  13.184  18.323  0.00  0.00    +0.000 C 
ATOM     23  C   UNL     1       1.933  14.224  19.104  0.00  0.00    +0.000 C 
ATOM     24  C   UNL     1       1.396  15.598  18.777  0.00  0.00    +0.000 A 
ATOM     25  C   UNL     1       2.170  16.639  18.268  0.00  0.00    +0.000 A 
ATOM     26  C   UNL     1       1.531  17.734  17.682  0.00  0.00    +0.000 A 
ATOM     27  C   UNL     1       0.135  17.799  17.633  0.00  0.00    +0.000 A 
ATOM     28  C   UNL     1      -0.636  16.806  18.233  0.00  0.00    +0.000 A 
ATOM     29  C   UNL     1      -0.003  15.718  18.826  0.00  0.00    +0.000 A 
ATOM     30  C   UNL     1      -0.753  14.531  19.368  0.00  0.00    +0.000 C 
ENDBRANCH  18  21
ENDBRANCH   5  18
TORSDOF 5
ENDMDL
MODEL 7
REMARK VINA RESULT:      -8.2      3.811      5.161
REMARK  Name = 
REMARK  5 active torsions:
REMARK  status: ('A' for Active; 'I' for Inactive)
REMARK    1  A    between atoms: C_2  and  C_11
REMARK    2  A    between atoms: N_3  and  C_4
REMARK    3  A    between atoms: C_4  and  C_5
REMARK    4  A    between atoms: C_15  and  S_16
REMARK    5  A    between atoms: S_16  and  N_19
REMARK                            x       y       z     vdW  Elec       q    Type
REMARK                         _______ _______ _______ _____ _____    ______ ____
ROOT
ATOM      1  C   UNL     1       1.120   9.196  20.269  0.00  0.00    +0.000 A 
ATOM      2  C   UNL     1       0.863   8.815  21.599  0.00  0.00    +0.000 A 
ATOM      3  C   UNL     1       0.102   9.626  22.447  0.00  0.00    +0.000 A 
ATOM      4  C   UNL     1      -0.408  10.832  21.978  0.00  0.00    +0.000 A 
ATOM      5  C   UNL     1      -0.162  11.229  20.661  0.00  0.00    +0.000 A 
ATOM      6  C   UNL     1       0.601  10.414  19.796  0.00  0.00    +0.000 A 
ENDROOT
BRANCH   1   8
ATOM      7  O   UNL     1       1.990   8.383  18.225  0.00  0.00    +0.000 OA
ATOM      8  C   UNL     1       1.898   8.214  19.437  0.00  0.00    +0.000 C 
ATOM      9  N   UNL     1       2.472   7.136  20.067  0.00  0.00    +0.000 N 
ATOM     10  H   UNL     1       2.406   6.996  21.064  0.00  0.00    +0.000 HD
BRANCH   9  11
ATOM     11  C   UNL     1       3.182   6.104  19.329  0.00  0.00    +0.000 C 
BRANCH  11  12
ATOM     12  C   UNL     1       2.595   4.730  19.560  0.00  0.00    +0.000 A 
ATOM     13  C   UNL     1       1.471   4.570  20.368  0.00  0.00    +0.000 A 
ATOM     14  C   UNL     1       0.971   3.287  20.580  0.00  0.00    +0.000 A 
ATOM     15  C   UNL     1       1.597   2.203  19.976  0.00  0.00    +0.000 A 
ATOM     16  C   UNL     1       2.698   2.449  19.175  0.00  0.00    +0.000 A 
ATOM     17  N   UNL     1       3.206   3.682  18.946  0.00  0.00    +0.000 NA
ENDBRANCH  11  12
ENDBRANCH   9  11
ENDBRANCH   1   8
BRANCH   5  18
ATOM     18  S   UNL     1      -1.104  12.595  19.995  0.00  0.00    +0.000 S 
ATOM     19  O   UNL     1      -1.120  13.590  21.047  0.00  0.00    +0.000 OA
ATOM     20  O   UNL     1      -0.582  12.916  18.683  0.00  0.00    +0.000 OA
BRANCH  18  21
ATOM     21  N   UNL     1      -2.687  12.038  19.778  0.00  0.00    +0.000 NA
ATOM     22  C   UNL     1      -3.029  11.260  18.523  0.00  0.00    +0.000 C 
ATOM     23  C   UNL     1      -4.279  11.804  17.766  0.00  0.00    +0.000 C 
ATOM     24  C   UNL     1      -5.410  11.900  18.764  0.00  0.00    +0.000 A 
ATOM     25  C   UNL     1      -6.653  11.294  18.598  0.00  0.00    +0.000 A 
ATOM     26  C   UNL     1      -7.491  11.151  19.707  0.00  0.00    +0.000 A 
ATOM     27  C   UNL     1      -7.100  11.637  20.959  0.00  0.00    +0.000 A 
ATOM     28  C   UNL     1      -5.903  12.333  21.100  0.00  0.00    +0.000 A 
ATOM     29  C   UNL     1      -5.069  12.485  19.996  0.00  0.00    +0.000 A 
ATOM     30  C   UNL     1      -3.695  13.091  20.086  0.00  0.00    +0.000 C 
ENDBRANCH  18  21
ENDBRANCH   5  18
TORSDOF 5
ENDMDL
MODEL 8
REMARK VINA RESULT:      -8.1      3.975      5.654
REMARK  Name = 
REMARK  5 active torsions:
REMARK  status: ('A' for Active; 'I' for Inactive)
REMARK    1  A    between atoms: C_2  and  C_11
REMARK    2  A    between atoms: N_3  and  C_4
REMARK    3  A    between atoms: C_4  and  C_5
REMARK    4  A    between atoms: C_15  and  S_16
REMARK    5  A    between atoms: S_16  and  N_19
REMARK                            x       y       z     vdW  Elec       q    Type
REMARK                         _______ _______ _______ _____ _____    ______ ____
ROOT
ATOM      1  C   UNL     1       1.449   9.008  19.317  0.00  0.00    +0.000 A 
ATOM      2  C   UNL     1       1.223   8.452  20.590  0.00  0.00    +0.000 A 
ATOM      3  C   UNL     1       0.438   9.115  21.538  0.00  0.00    +0.000 A 
ATOM      4  C   UNL     1      -0.127  10.348  21.230  0.00  0.00    +0.000 A 
ATOM      5  C   UNL     1       0.088  10.919  19.971  0.00  0.00    +0.000 A 
ATOM      6  C   UNL     1       0.874  10.254  19.006  0.00  0.00    +0.000 A 
ENDROOT
BRANCH   1   8
ATOM      7  O   UNL     1       2.543   8.622  17.256  0.00  0.00    +0.000 OA
ATOM      8  C   UNL     1       2.258   8.174  18.363  0.00  0.00    +0.000 C 
ATOM      9  N   UNL     1       2.641   6.916  18.759  0.00  0.00    +0.000 N 
ATOM     10  H   UNL     1       2.416   6.545  19.672  0.00  0.00    +0.000 HD
BRANCH   9  11
ATOM     11  C   UNL     1       3.364   6.018  17.874  0.00  0.00    +0.000 C 
BRANCH  11  12
ATOM     12  C   UNL     1       4.859   6.090  18.083  0.00  0.00    +0.000 A 
ATOM     13  C   UNL     1       5.658   6.832  17.214  0.00  0.00    +0.000 A 
ATOM     14  C   UNL     1       7.036   6.857  17.421  0.00  0.00    +0.000 A 
ATOM     15  C   UNL     1       7.578   6.152  18.489  0.00  0.00    +0.000 A 
ATOM     16  C   UNL     1       6.714   5.455  19.316  0.00  0.00    +0.000 A 
ATOM     17  N   UNL     1       5.372   5.413  19.144  0.00  0.00    +0.000 NA
ENDBRANCH  11  12
ENDBRANCH   9  11
ENDBRANCH   1   8
BRANCH   5  18
ATOM     18  S   UNL     1      -0.918  12.317  19.491  0.00  0.00    +0.000 S 
ATOM     19  O   UNL     1      -0.123  13.483  19.813  0.00  0.00    +0.000 OA
ATOM     20  O   UNL     1      -1.393  12.097  18.140  0.00  0.00    +0.000 OA
BRANCH  18  21
ATOM     21  N   UNL     1      -2.276  12.314  20.501  0.00  0.00    +0.000 NA
ATOM     22  C   UNL     1      -3.658  12.323  19.879  0.00  0.00    +0.000 C 
ATOM     23  C   UNL     1      -4.596  13.433  20.445  0.00  0.00    +0.000 C 
ATOM     24  C   UNL     1      -4.594  13.307  21.951  0.00  0.00    +0.000 A 
ATOM     25  C   UNL     1      -5.743  13.159  22.724  0.00  0.00    +0.000 A 
ATOM     26  C   UNL     1      -5.620  12.709  24.041  0.00  0.00    +0.000 A 
ATOM     27  C   UNL     1      -4.359  12.440  24.585  0.00  0.00    +0.000 A 
ATOM     28  C   UNL     1      -3.207  12.687  23.843  0.00  0.00    +0.000 A 
ATOM     29  C   UNL     1      -3.325  13.144  22.533  0.00  0.00    +0.000 A 
ATOM     30  C   UNL     1      -2.146  13.298  21.611  0.00  0.00    +0.000 C 
ENDBRANCH  18  21
ENDBRANCH   5  18
TORSDOF 5
ENDMDL
MODEL 9
REMARK VINA RESULT:      -8.1      3.779      5.027
REMARK  Name = 
REMARK  5 active torsions:
REMARK  status: ('A' for Active; 'I' for Inactive)
REMARK    1  A    between atoms: C_2  and  C_11
REMARK    2  A    between atoms: N_3  and  C_4
REMARK    3  A    between atoms: C_4  and  C_5
REMARK    4  A    between atoms: C_15  and  S_16
REMARK    5  A    between atoms: S_16  and  N_19
REMARK                            x       y       z     vdW  Elec       q    Type
REMARK                         _______ _______ _______ _____ _____    ______ ____
ROOT
ATOM      1  C   UNL     1       1.539   8.760  19.661  0.00  0.00    +0.000 A 
ATOM      2  C   UNL     1       1.265   8.156  20.903  0.00  0.00    +0.000 A 
ATOM      3  C   UNL     1       0.513   8.820  21.877  0.00  0.00    +0.000 A 
ATOM      4  C   UNL     1       0.028  10.100  21.627  0.00  0.00    +0.000 A 
ATOM      5  C   UNL     1       0.293  10.718  20.401  0.00  0.00    +0.000 A 
ATOM      6  C   UNL     1       1.047  10.053  19.409  0.00  0.00    +0.000 A 
ENDROOT
BRANCH   1   8
ATOM      7  O   UNL     1       2.333   8.257  17.491  0.00  0.00    +0.000 OA
ATOM      8  C   UNL     1       2.304   7.926  18.673  0.00  0.00    +0.000 C 
ATOM      9  N   UNL     1       2.939   6.795  19.127  0.00  0.00    +0.000 N 
ATOM     10  H   UNL     1       2.925   6.521  20.098  0.00  0.00    +0.000 HD
BRANCH   9  11
ATOM     11  C   UNL     1       3.642   5.895  18.227  0.00  0.00    +0.000 C 
BRANCH  11  12
ATOM     12  C   UNL     1       3.054   4.503  18.235  0.00  0.00    +0.000 A 
ATOM     13  C   UNL     1       1.699   4.311  18.501  0.00  0.00    +0.000 A 
ATOM     14  C   UNL     1       1.195   3.013  18.525  0.00  0.00    +0.000 A 
ATOM     15  C   UNL     1       2.048   1.945  18.276  0.00  0.00    +0.000 A 
ATOM     16  C   UNL     1       3.377   2.221  18.003  0.00  0.00    +0.000 A 
ATOM     17  N   UNL     1       3.897   3.470  17.969  0.00  0.00    +0.000 NA
ENDBRANCH  11  12
ENDBRANCH   9  11
ENDBRANCH   1   8
BRANCH   5  18
ATOM     18  S   UNL     1      -0.619  12.198  19.983  0.00  0.00    +0.000 S 
ATOM     19  O   UNL     1      -0.652  12.977  21.203  0.00  0.00    +0.000 OA
ATOM     20  O   UNL     1      -0.060  12.753  18.768  0.00  0.00    +0.000 OA
BRANCH  18  21
ATOM     21  N   UNL     1      -2.201  11.715  19.627  0.00  0.00    +0.000 NA
ATOM     22  C   UNL     1      -2.460  10.900  18.376  0.00  0.00    +0.000 C 
ATOM     23  C   UNL     1      -3.596  11.474  17.475  0.00  0.00    +0.000 C 
ATOM     24  C   UNL     1      -4.813  11.674  18.348  0.00  0.00    +0.000 A 
ATOM     25  C   UNL     1      -6.066  11.127  18.080  0.00  0.00    +0.000 A 
ATOM     26  C   UNL     1      -7.017  11.077  19.101  0.00  0.00    +0.000 A 
ATOM     27  C   UNL     1      -6.726  11.597  20.367  0.00  0.00    +0.000 A 
ATOM     28  C   UNL     1      -5.511  12.236  20.602  0.00  0.00    +0.000 A 
ATOM     29  C   UNL     1      -4.564  12.295  19.583  0.00  0.00    +0.000 A 
ATOM     30  C   UNL     1      -3.173  12.832  19.789  0.00  0.00    +0.000 C 
ENDBRANCH  18  21
ENDBRANCH   5  18
TORSDOF 5
ENDMDL
