MODEL 1
REMARK VINA RESULT:      -8.0      0.000      0.000
REMARK  Name = 
REMARK  5 active torsions:
REMARK  status: ('A' for Active; 'I' for Inactive)
REMARK    1  A    between atoms: C_1  and  O_2
REMARK    2  A    between atoms: O_2  and  C_3
REMARK    3  A    between atoms: C_10  and  C_11
REMARK    4  A    between atoms: N_21  and  C_22
REMARK    5  A    between atoms: C_22  and  C_23
REMARK                            x       y       z     vdW  Elec       q    Type
REMARK                         _______ _______ _______ _____ _____    ______ ____
ROOT
ATOM      1  C   UNL     1       6.059   3.552  13.297  0.00  0.00    +0.000 C 
ATOM      2  C   UNL     1       7.052   4.696  13.320  0.00  0.00    +0.000 C 
ATOM      3  C   UNL     1       7.129   5.069  14.797  0.00  0.00    +0.000 C 
ATOM      4  N   UNL     1       5.847   4.626  15.407  0.00  0.00    +0.000 N 
ATOM      5  C   UNL     1       5.304   5.494  16.319  0.00  0.00    +0.000 A 
ATOM      6  N   UNL     1       5.812   6.667  16.626  0.00  0.00    +0.000 NA
ATOM      7  N   UNL     1       5.012   7.271  17.531  0.00  0.00    +0.000 NA
ATOM      8  C   UNL     1       4.039   6.451  17.892  0.00  0.00    +0.000 A 
ATOM      9  N   UNL     1       4.197   5.276  17.141  0.00  0.00    +0.000 N 
ATOM     10  C   UNL     1       5.040   4.008  14.348  0.00  0.00    +0.000 C 
ENDROOT
BRANCH   8  11
ATOM     11  C   UNL     1       3.018   6.861  18.919  0.00  0.00    +0.000 A 
ATOM     12  C   UNL     1       2.637   5.968  19.936  0.00  0.00    +0.000 A 
ATOM     13  C   UNL     1       1.699   6.300  20.907  0.00  0.00    +0.000 A 
ATOM     14  C   UNL     1       1.048   7.521  20.856  0.00  0.00    +0.000 A 
ATOM     15  C   UNL     1       1.316   8.425  19.822  0.00  0.00    +0.000 A 
ATOM     16  C   UNL     1       0.556   9.603  19.772  0.00  0.00    +0.000 A 
ATOM     17  C   UNL     1       0.730  10.529  18.749  0.00  0.00    +0.000 A 
ATOM     18  C   UNL     1       1.687  10.290  17.783  0.00  0.00    +0.000 A 
ATOM     19  C   UNL     1       2.468   9.126  17.837  0.00  0.00    +0.000 A 
ATOM     20  C   UNL     1       2.307   8.127  18.841  0.00  0.00    +0.000 A 
ENDBRANCH   8  11
BRANCH   1  22
ATOM     21  C   UNL     1       5.729   2.096  11.454  0.00  0.00    +0.000 C 
ATOM     22  O   UNL     1       5.428   3.355  12.037  0.00  0.00    +0.000 OA
ENDBRANCH   1  22
BRANCH   9  23
ATOM     23  C   UNL     1       3.362   4.091  17.138  0.00  0.00    +0.000 C 
BRANCH  23  24
ATOM     24  C   UNL     1       3.930   2.813  17.776  0.00  0.00    +0.000 C 
ATOM     25  C   UNL     1       2.878   1.793  18.178  0.00  0.00    +0.000 C 
ATOM     26  C   UNL     1       2.513   2.147  19.606  0.00  0.00    +0.000 C 
ATOM     27  O   UNL     1       3.586   2.921  20.145  0.00  0.00    +0.000 OA
ATOM     28  C   UNL     1       4.566   3.141  19.127  0.00  0.00    +0.000 C 
ENDBRANCH  23  24
ENDBRANCH   9  23
TORSDOF 4
ENDMDL
MODEL 2
REMARK VINA RESULT:      -7.7      3.831      6.600
REMARK  Name = 
REMARK  5 active torsions:
REMARK  status: ('A' for Active; 'I' for Inactive)
REMARK    1  A    between atoms: C_1  and  O_2
REMARK    2  A    between atoms: O_2  and  C_3
REMARK    3  A    between atoms: C_10  and  C_11
REMARK    4  A    between atoms: N_21  and  C_22
REMARK    5  A    between atoms: C_22  and  C_23
REMARK                            x       y       z     vdW  Elec       q    Type
REMARK                         _______ _______ _______ _____ _____    ______ ____
ROOT
ATOM      1  C   UNL     1       2.527   4.129  20.602  0.00  0.00    +0.000 C 
ATOM      2  C   UNL     1       3.450   4.141  19.401  0.00  0.00    +0.000 C 
ATOM      3  C   UNL     1       3.819   5.614  19.253  0.00  0.00    +0.000 C 
ATOM      4  N   UNL     1       2.715   6.387  19.883  0.00  0.00    +0.000 N 
ATOM      5  C   UNL     1       2.338   7.520  19.209  0.00  0.00    +0.000 A 
ATOM      6  N   UNL     1       2.845   7.909  18.061  0.00  0.00    +0.000 NA
ATOM      7  N   UNL     1       2.227   9.043  17.667  0.00  0.00    +0.000 NA
ATOM      8  C   UNL     1       1.390   9.450  18.605  0.00  0.00    +0.000 A 
ATOM      9  N   UNL     1       1.438   8.499  19.636  0.00  0.00    +0.000 N 
ATOM     10  C   UNL     1       1.732   5.423  20.393  0.00  0.00    +0.000 C 
ENDROOT
BRANCH   8  11
ATOM     11  C   UNL     1       0.591  10.715  18.438  0.00  0.00    +0.000 A 
ATOM     12  C   UNL     1       1.185  11.966  18.674  0.00  0.00    +0.000 A 
ATOM     13  C   UNL     1       0.489  13.162  18.533  0.00  0.00    +0.000 A 
ATOM     14  C   UNL     1      -0.860  13.148  18.218  0.00  0.00    +0.000 A 
ATOM     15  C   UNL     1      -1.536  11.933  18.055  0.00  0.00    +0.000 A 
ATOM     16  C   UNL     1      -2.921  11.984  17.832  0.00  0.00    +0.000 A 
ATOM     17  C   UNL     1      -3.672  10.820  17.705  0.00  0.00    +0.000 A 
ATOM     18  C   UNL     1      -3.034   9.598  17.776  0.00  0.00    +0.000 A 
ATOM     19  C   UNL     1      -1.647   9.538  17.976  0.00  0.00    +0.000 A 
ATOM     20  C   UNL     1      -0.834  10.696  18.148  0.00  0.00    +0.000 A 
ENDBRANCH   8  11
BRANCH   1  22
ATOM     21  C   UNL     1       1.675   2.231  19.462  0.00  0.00    +0.000 C 
ATOM     22  O   UNL     1       1.654   3.006  20.652  0.00  0.00    +0.000 OA
ENDBRANCH   1  22
BRANCH   9  23
ATOM     23  C   UNL     1       0.676   8.467  20.868  0.00  0.00    +0.000 C 
BRANCH  23  24
ATOM     24  C   UNL     1       1.120   9.394  22.011  0.00  0.00    +0.000 C 
ATOM     25  C   UNL     1       0.299   9.259  23.282  0.00  0.00    +0.000 C 
ATOM     26  C   UNL     1      -0.829  10.260  23.129  0.00  0.00    +0.000 C 
ATOM     27  O   UNL     1      -0.421  11.224  22.157  0.00  0.00    +0.000 OA
ATOM     28  C   UNL     1       0.858  10.852  21.633  0.00  0.00    +0.000 C 
ENDBRANCH  23  24
ENDBRANCH   9  23
TORSDOF 4
ENDMDL
MODEL 3
REMARK VINA RESULT:      -7.6      2.442      7.106
REMARK  Name = 
REMARK  5 active torsions:
REMARK  status: ('A' for Active; 'I' for Inactive)
REMARK    1  A    between atoms: C_1  and  O_2
REMARK    2  A    between atoms: O_2  and  C_3
REMARK    3  A    between atoms: C_10  and  C_11
REMARK    4  A    between atoms: N_21  and  C_22
REMARK    5  A    between atoms: C_22  and  C_23
REMARK                            x       y       z     vdW  Elec       q    Type
REMARK                         _______ _______ _______ _____ _____    ______ ____
ROOT
ATOM      1  C   UNL     1      -0.315   9.612  20.597  0.00  0.00    +0.000 C 
ATOM      2  C   UNL     1      -0.145  10.577  19.442  0.00  0.00    +0.000 C 
ATOM      3  C   UNL     1       0.394   9.695  18.319  0.00  0.00    +0.000 C 
ATOM      4  N   UNL     1       1.057   8.538  18.979  0.00  0.00    +0.000 N 
ATOM      5  C   UNL     1       2.238   8.139  18.409  0.00  0.00    +0.000 A 
ATOM      6  N   UNL     1       2.812   8.735  17.387  0.00  0.00    +0.000 NA
ATOM      7  N   UNL     1       3.971   8.104  17.104  0.00  0.00    +0.000 NA
ATOM      8  C   UNL     1       4.105   7.036  17.871  0.00  0.00    +0.000 A 
ATOM      9  N   UNL     1       2.993   7.008  18.727  0.00  0.00    +0.000 N 
ATOM     10  C   UNL     1       0.915   8.712  20.430  0.00  0.00    +0.000 C 
ENDROOT
BRANCH   8  11
ATOM     11  C   UNL     1       5.297   6.128  17.740  0.00  0.00    +0.000 A 
ATOM     12  C   UNL     1       6.269   6.081  18.755  0.00  0.00    +0.000 A 
ATOM     13  C   UNL     1       7.387   5.258  18.679  0.00  0.00    +0.000 A 
ATOM     14  C   UNL     1       7.617   4.499  17.544  0.00  0.00    +0.000 A 
ATOM     15  C   UNL     1       6.735   4.563  16.459  0.00  0.00    +0.000 A 
ATOM     16  C   UNL     1       7.073   3.844  15.301  0.00  0.00    +0.000 A 
ATOM     17  C   UNL     1       6.272   3.894  14.165  0.00  0.00    +0.000 A 
ATOM     18  C   UNL     1       5.115   4.645  14.191  0.00  0.00    +0.000 A 
ATOM     19  C   UNL     1       4.757   5.349  15.351  0.00  0.00    +0.000 A 
ATOM     20  C   UNL     1       5.557   5.363  16.531  0.00  0.00    +0.000 A 
ENDBRANCH   8  11
BRANCH   1  22
ATOM     21  C   UNL     1       0.385   9.481  22.859  0.00  0.00    +0.000 C 
ATOM     22  O   UNL     1      -0.314  10.233  21.877  0.00  0.00    +0.000 OA
ENDBRANCH   1  22
BRANCH   9  23
ATOM     23  C   UNL     1       2.693   6.061  19.783  0.00  0.00    +0.000 C 
BRANCH  23  24
ATOM     24  C   UNL     1       2.068   4.716  19.383  0.00  0.00    +0.000 C 
ATOM     25  C   UNL     1       1.027   4.193  20.358  0.00  0.00    +0.000 C 
ATOM     26  C   UNL     1       1.807   3.350  21.349  0.00  0.00    +0.000 C 
ATOM     27  O   UNL     1       3.041   2.988  20.729  0.00  0.00    +0.000 OA
ATOM     28  C   UNL     1       3.123   3.610  19.444  0.00  0.00    +0.000 C 
ENDBRANCH  23  24
ENDBRANCH   9  23
TORSDOF 4
ENDMDL
MODEL 4
REMARK VINA RESULT:      -7.6      3.468      6.308
REMARK  Name = 
REMARK  5 active torsions:
REMARK  status: ('A' for Active; 'I' for Inactive)
REMARK    1  A    between atoms: C_1  and  O_2
REMARK    2  A    between atoms: O_2  and  C_3
REMARK    3  A    between atoms: C_10  and  C_11
REMARK    4  A    between atoms: N_21  and  C_22
REMARK    5  A    between atoms: C_22  and  C_23
REMARK                            x       y       z     vdW  Elec       q    Type
REMARK                         _______ _______ _______ _____ _____    ______ ____
ROOT
ATOM      1  C   UNL     1       2.970   3.996  20.073  0.00  0.00    +0.000 C 
ATOM      2  C   UNL     1       3.624   3.986  18.707  0.00  0.00    +0.000 C 
ATOM      3  C   UNL     1       4.008   5.447  18.487  0.00  0.00    +0.000 C 
ATOM      4  N   UNL     1       3.088   6.252  19.333  0.00  0.00    +0.000 N 
ATOM      5  C   UNL     1       2.621   7.404  18.754  0.00  0.00    +0.000 A 
ATOM      6  N   UNL     1       2.893   7.785  17.526  0.00  0.00    +0.000 NA
ATOM      7  N   UNL     1       2.249   8.943  17.271  0.00  0.00    +0.000 NA
ATOM      8  C   UNL     1       1.640   9.372  18.363  0.00  0.00    +0.000 A 
ATOM      9  N   UNL     1       1.866   8.411  19.360  0.00  0.00    +0.000 N 
ATOM     10  C   UNL     1       2.197   5.320  20.035  0.00  0.00    +0.000 C 
ENDROOT
BRANCH   8  11
ATOM     11  C   UNL     1       0.871  10.666  18.367  0.00  0.00    +0.000 A 
ATOM     12  C   UNL     1       1.495  11.861  18.764  0.00  0.00    +0.000 A 
ATOM     13  C   UNL     1       0.826  13.080  18.785  0.00  0.00    +0.000 A 
ATOM     14  C   UNL     1      -0.522  13.139  18.476  0.00  0.00    +0.000 A 
ATOM     15  C   UNL     1      -1.227  11.974  18.155  0.00  0.00    +0.000 A 
ATOM     16  C   UNL     1      -2.611  12.085  17.946  0.00  0.00    +0.000 A 
ATOM     17  C   UNL     1      -3.388  10.966  17.668  0.00  0.00    +0.000 A 
ATOM     18  C   UNL     1      -2.780   9.731  17.575  0.00  0.00    +0.000 A 
ATOM     19  C   UNL     1      -1.394   9.613  17.761  0.00  0.00    +0.000 A 
ATOM     20  C   UNL     1      -0.554  10.719  18.082  0.00  0.00    +0.000 A 
ENDBRANCH   8  11
BRANCH   1  22
ATOM     21  C   UNL     1       1.965   2.565  21.676  0.00  0.00    +0.000 C 
ATOM     22  O   UNL     1       2.086   2.905  20.302  0.00  0.00    +0.000 OA
ENDBRANCH   1  22
BRANCH   9  23
ATOM     23  C   UNL     1       1.375   8.395  20.724  0.00  0.00    +0.000 C 
BRANCH  23  24
ATOM     24  C   UNL     1       0.120   9.221  21.044  0.00  0.00    +0.000 C 
ATOM     25  C   UNL     1       0.340  10.327  22.062  0.00  0.00    +0.000 C 
ATOM     26  C   UNL     1       0.060   9.684  23.407  0.00  0.00    +0.000 C 
ATOM     27  O   UNL     1      -0.736   8.523  23.171  0.00  0.00    +0.000 OA
ATOM     28  C   UNL     1      -0.911   8.349  21.761  0.00  0.00    +0.000 C 
ENDBRANCH  23  24
ENDBRANCH   9  23
TORSDOF 4
ENDMDL
MODEL 5
REMARK VINA RESULT:      -7.3      2.629      7.248
REMARK  Name = 
REMARK  5 active torsions:
REMARK  status: ('A' for Active; 'I' for Inactive)
REMARK    1  A    between atoms: C_1  and  O_2
REMARK    2  A    between atoms: O_2  and  C_3
REMARK    3  A    between atoms: C_10  and  C_11
REMARK    4  A    between atoms: N_21  and  C_22
REMARK    5  A    between atoms: C_22  and  C_23
REMARK                            x       y       z     vdW  Elec       q    Type
REMARK                         _______ _______ _______ _____ _____    ______ ____
ROOT
ATOM      1  C   UNL     1       0.187   9.131  21.373  0.00  0.00    +0.000 C 
ATOM      2  C   UNL     1       0.214  10.298  20.408  0.00  0.00    +0.000 C 
ATOM      3  C   UNL     1       0.465   9.636  19.057  0.00  0.00    +0.000 C 
ATOM      4  N   UNL     1       1.148   8.346  19.345  0.00  0.00    +0.000 N 
ATOM      5  C   UNL     1       2.168   8.021  18.488  0.00  0.00    +0.000 A 
ATOM      6  N   UNL     1       2.586   8.785  17.503  0.00  0.00    +0.000 NA
ATOM      7  N   UNL     1       3.620   8.177  16.884  0.00  0.00    +0.000 NA
ATOM      8  C   UNL     1       3.812   6.974  17.397  0.00  0.00    +0.000 A 
ATOM      9  N   UNL     1       2.880   6.821  18.435  0.00  0.00    +0.000 N 
ATOM     10  C   UNL     1       1.292   8.234  20.802  0.00  0.00    +0.000 C 
ENDROOT
BRANCH   8  11
ATOM     11  C   UNL     1       4.885   6.064  16.865  0.00  0.00    +0.000 A 
ATOM     12  C   UNL     1       4.719   5.417  15.628  0.00  0.00    +0.000 A 
ATOM     13  C   UNL     1       5.683   4.568  15.095  0.00  0.00    +0.000 A 
ATOM     14  C   UNL     1       6.826   4.273  15.818  0.00  0.00    +0.000 A 
ATOM     15  C   UNL     1       7.017   4.814  17.095  0.00  0.00    +0.000 A 
ATOM     16  C   UNL     1       8.149   4.402  17.816  0.00  0.00    +0.000 A 
ATOM     17  C   UNL     1       8.384   4.859  19.108  0.00  0.00    +0.000 A 
ATOM     18  C   UNL     1       7.498   5.751  19.677  0.00  0.00    +0.000 A 
ATOM     19  C   UNL     1       6.375   6.186  18.956  0.00  0.00    +0.000 A 
ATOM     20  C   UNL     1       6.066   5.724  17.643  0.00  0.00    +0.000 A 
ENDBRANCH   8  11
BRANCH   1  22
ATOM     21  C   UNL     1      -0.575  10.217  23.340  0.00  0.00    +0.000 C 
ATOM     22  O   UNL     1       0.474   9.485  22.721  0.00  0.00    +0.000 OA
ENDBRANCH   1  22
BRANCH   9  23
ATOM     23  C   UNL     1       2.709   5.696  19.333  0.00  0.00    +0.000 C 
BRANCH  23  24
ATOM     24  C   UNL     1       1.562   4.716  19.044  0.00  0.00    +0.000 C 
ATOM     25  C   UNL     1       1.512   3.517  19.976  0.00  0.00    +0.000 C 
ATOM     26  C   UNL     1       2.367   2.460  19.303  0.00  0.00    +0.000 C 
ATOM     27  O   UNL     1       2.458   2.798  17.918  0.00  0.00    +0.000 OA
ATOM     28  C   UNL     1       1.782   4.038  17.690  0.00  0.00    +0.000 C 
ENDBRANCH  23  24
ENDBRANCH   9  23
TORSDOF 4
ENDMDL
MODEL 6
REMARK VINA RESULT:      -7.3      3.782      6.496
REMARK  Name = 
REMARK  5 active torsions:
REMARK  status: ('A' for Active; 'I' for Inactive)
REMARK    1  A    between atoms: C_1  and  O_2
REMARK    2  A    between atoms: O_2  and  C_3
REMARK    3  A    between atoms: C_10  and  C_11
REMARK    4  A    between atoms: N_21  and  C_22
REMARK    5  A    between atoms: C_22  and  C_23
REMARK                            x       y       z     vdW  Elec       q    Type
REMARK                         _______ _______ _______ _____ _____    ______ ____
ROOT
ATOM      1  C   UNL     1       2.668   4.103  20.492  0.00  0.00    +0.000 C 
ATOM      2  C   UNL     1       3.567   4.210  19.277  0.00  0.00    +0.000 C 
ATOM      3  C   UNL     1       3.861   5.704  19.184  0.00  0.00    +0.000 C 
ATOM      4  N   UNL     1       2.733   6.395  19.863  0.00  0.00    +0.000 N 
ATOM      5  C   UNL     1       2.288   7.534  19.244  0.00  0.00    +0.000 A 
ATOM      6  N   UNL     1       2.754   7.994  18.104  0.00  0.00    +0.000 NA
ATOM      7  N   UNL     1       2.074   9.111  17.768  0.00  0.00    +0.000 NA
ATOM      8  C   UNL     1       1.235   9.438  18.736  0.00  0.00    +0.000 A 
ATOM      9  N   UNL     1       1.349   8.449  19.726  0.00  0.00    +0.000 N 
ATOM     10  C   UNL     1       1.807   5.364  20.350  0.00  0.00    +0.000 C 
ENDROOT
BRANCH   8  11
ATOM     11  C   UNL     1       0.372  10.667  18.635  0.00  0.00    +0.000 A 
ATOM     12  C   UNL     1      -1.006  10.547  18.384  0.00  0.00    +0.000 A 
ATOM     13  C   UNL     1      -1.844  11.652  18.283  0.00  0.00    +0.000 A 
ATOM     14  C   UNL     1      -1.320  12.932  18.357  0.00  0.00    +0.000 A 
ATOM     15  C   UNL     1       0.057  13.125  18.519  0.00  0.00    +0.000 A 
ATOM     16  C   UNL     1       0.538  14.443  18.491  0.00  0.00    +0.000 A 
ATOM     17  C   UNL     1       1.898  14.715  18.600  0.00  0.00    +0.000 A 
ATOM     18  C   UNL     1       2.781  13.667  18.762  0.00  0.00    +0.000 A 
ATOM     19  C   UNL     1       2.307  12.348  18.815  0.00  0.00    +0.000 A 
ATOM     20  C   UNL     1       0.930  12.009  18.673  0.00  0.00    +0.000 A 
ENDBRANCH   8  11
BRANCH   1  22
ATOM     21  C   UNL     1       1.782   2.288  19.248  0.00  0.00    +0.000 C 
ATOM     22  O   UNL     1       1.853   2.937  20.510  0.00  0.00    +0.000 OA
ENDBRANCH   1  22
BRANCH   9  23
ATOM     23  C   UNL     1       0.613   8.329  20.968  0.00  0.00    +0.000 C 
BRANCH  23  24
ATOM     24  C   UNL     1       1.096   9.154  22.171  0.00  0.00    +0.000 C 
ATOM     25  C   UNL     1       0.106   9.226  23.321  0.00  0.00    +0.000 C 
ATOM     26  C   UNL     1      -0.744  10.449  23.032  0.00  0.00    +0.000 C 
ATOM     27  O   UNL     1      -0.008  11.282  22.135  0.00  0.00    +0.000 OA
ATOM     28  C   UNL     1       1.215  10.628  21.780  0.00  0.00    +0.000 C 
ENDBRANCH  23  24
ENDBRANCH   9  23
TORSDOF 4
ENDMDL
MODEL 7
REMARK VINA RESULT:      -7.2      0.944      1.164
REMARK  Name = 
REMARK  5 active torsions:
REMARK  status: ('A' for Active; 'I' for Inactive)
REMARK    1  A    between atoms: C_1  and  O_2
REMARK    2  A    between atoms: O_2  and  C_3
REMARK    3  A    between atoms: C_10  and  C_11
REMARK    4  A    between atoms: N_21  and  C_22
REMARK    5  A    between atoms: C_22  and  C_23
REMARK                            x       y       z     vdW  Elec       q    Type
REMARK                         _______ _______ _______ _____ _____    ______ ____
ROOT
ATOM      1  C   UNL     1       6.436   3.374  13.298  0.00  0.00    +0.000 C 
ATOM      2  C   UNL     1       7.049   4.726  12.999  0.00  0.00    +0.000 C 
ATOM      3  C   UNL     1       7.200   5.360  14.379  0.00  0.00    +0.000 C 
ATOM      4  N   UNL     1       6.187   4.707  15.251  0.00  0.00    +0.000 N 
ATOM      5  C   UNL     1       5.535   5.545  16.118  0.00  0.00    +0.000 A 
ATOM      6  N   UNL     1       5.715   6.846  16.174  0.00  0.00    +0.000 NA
ATOM      7  N   UNL     1       4.895   7.364  17.113  0.00  0.00    +0.000 NA
ATOM      8  C   UNL     1       4.254   6.392  17.740  0.00  0.00    +0.000 A 
ATOM      9  N   UNL     1       4.650   5.189  17.137  0.00  0.00    +0.000 N 
ATOM     10  C   UNL     1       5.468   3.720  14.437  0.00  0.00    +0.000 C 
ENDROOT
BRANCH   8  11
ATOM     11  C   UNL     1       3.296   6.690  18.861  0.00  0.00    +0.000 A 
ATOM     12  C   UNL     1       3.137   5.778  19.919  0.00  0.00    +0.000 A 
ATOM     13  C   UNL     1       2.264   6.008  20.978  0.00  0.00    +0.000 A 
ATOM     14  C   UNL     1       1.458   7.134  20.982  0.00  0.00    +0.000 A 
ATOM     15  C   UNL     1       1.501   8.041  19.917  0.00  0.00    +0.000 A 
ATOM     16  C   UNL     1       0.592   9.110  19.933  0.00  0.00    +0.000 A 
ATOM     17  C   UNL     1       0.542  10.027  18.889  0.00  0.00    +0.000 A 
ATOM     18  C   UNL     1       1.421   9.892  17.833  0.00  0.00    +0.000 A 
ATOM     19  C   UNL     1       2.349   8.840  17.819  0.00  0.00    +0.000 A 
ATOM     20  C   UNL     1       2.421   7.851  18.844  0.00  0.00    +0.000 A 
ENDBRANCH   8  11
BRANCH   1  22
ATOM     21  C   UNL     1       4.528   3.479  11.893  0.00  0.00    +0.000 C 
ATOM     22  O   UNL     1       5.736   2.798  12.201  0.00  0.00    +0.000 OA
ENDBRANCH   1  22
BRANCH   9  23
ATOM     23  C   UNL     1       4.201   3.842  17.434  0.00  0.00    +0.000 C 
BRANCH  23  24
ATOM     24  C   UNL     1       2.827   3.410  16.899  0.00  0.00    +0.000 C 
ATOM     25  C   UNL     1       1.652   4.140  17.527  0.00  0.00    +0.000 C 
ATOM     26  C   UNL     1       1.266   3.300  18.729  0.00  0.00    +0.000 C 
ATOM     27  O   UNL     1       1.786   1.986  18.521  0.00  0.00    +0.000 OA
ATOM     28  C   UNL     1       2.539   1.964  17.305  0.00  0.00    +0.000 C 
ENDBRANCH  23  24
ENDBRANCH   9  23
TORSDOF 4
ENDMDL
MODEL 8
REMARK VINA RESULT:      -7.1      4.021      7.065
REMARK  Name = 
REMARK  5 active torsions:
REMARK  status: ('A' for Active; 'I' for Inactive)
REMARK    1  A    between atoms: C_1  and  O_2
REMARK    2  A    between atoms: O_2  and  C_3
REMARK    3  A    between atoms: C_10  and  C_11
REMARK    4  A    between atoms: N_21  and  C_22
REMARK    5  A    between atoms: C_22  and  C_23
REMARK                            x       y       z     vdW  Elec       q    Type
REMARK                         _______ _______ _______ _____ _____    ______ ____
ROOT
ATOM      1  C   UNL     1       2.149   4.855  20.421  0.00  0.00    +0.000 C 
ATOM      2  C   UNL     1       2.559   4.700  18.971  0.00  0.00    +0.000 C 
ATOM      3  C   UNL     1       3.102   6.079  18.606  0.00  0.00    +0.000 C 
ATOM      4  N   UNL     1       2.457   7.041  19.538  0.00  0.00    +0.000 N 
ATOM      5  C   UNL     1       2.066   8.228  18.973  0.00  0.00    +0.000 A 
ATOM      6  N   UNL     1       2.181   8.520  17.697  0.00  0.00    +0.000 NA
ATOM      7  N   UNL     1       1.672   9.751  17.479  0.00  0.00    +0.000 NA
ATOM      8  C   UNL     1       1.318  10.304  18.626  0.00  0.00    +0.000 A 
ATOM      9  N   UNL     1       1.570   9.356  19.630  0.00  0.00    +0.000 N 
ATOM     10  C   UNL     1       1.574   6.277  20.427  0.00  0.00    +0.000 C 
ENDROOT
BRANCH   8  11
ATOM     11  C   UNL     1       0.749  11.696  18.676  0.00  0.00    +0.000 A 
ATOM     12  C   UNL     1      -0.643  11.893  18.700  0.00  0.00    +0.000 A 
ATOM     13  C   UNL     1      -1.216  13.159  18.746  0.00  0.00    +0.000 A 
ATOM     14  C   UNL     1      -0.415  14.288  18.696  0.00  0.00    +0.000 A 
ATOM     15  C   UNL     1       0.975  14.165  18.584  0.00  0.00    +0.000 A 
ATOM     16  C   UNL     1       1.723  15.344  18.442  0.00  0.00    +0.000 A 
ATOM     17  C   UNL     1       3.104  15.304  18.280  0.00  0.00    +0.000 A 
ATOM     18  C   UNL     1       3.746  14.082  18.284  0.00  0.00    +0.000 A 
ATOM     19  C   UNL     1       3.008  12.899  18.448  0.00  0.00    +0.000 A 
ATOM     20  C   UNL     1       1.589  12.879  18.583  0.00  0.00    +0.000 A 
ENDBRANCH   8  11
BRANCH   1  22
ATOM     21  C   UNL     1       1.704   2.910  21.703  0.00  0.00    +0.000 C 
ATOM     22  O   UNL     1       1.172   3.915  20.852  0.00  0.00    +0.000 OA
ENDBRANCH   1  22
BRANCH   9  23
ATOM     23  C   UNL     1       1.316   9.462  21.053  0.00  0.00    +0.000 C 
BRANCH  23  24
ATOM     24  C   UNL     1      -0.134   9.297  21.536  0.00  0.00    +0.000 C 
ATOM     25  C   UNL     1      -0.972  10.561  21.448  0.00  0.00    +0.000 C 
ATOM     26  C   UNL     1      -0.779  11.254  22.783  0.00  0.00    +0.000 C 
ATOM     27  O   UNL     1      -0.331  10.272  23.717  0.00  0.00    +0.000 OA
ATOM     28  C   UNL     1      -0.155   9.023  23.041  0.00  0.00    +0.000 C 
ENDBRANCH  23  24
ENDBRANCH   9  23
TORSDOF 4
ENDMDL
MODEL 9
REMARK VINA RESULT:      -7.0      2.626      7.216
REMARK  Name = 
REMARK  5 active torsions:
REMARK  status: ('A' for Active; 'I' for Inactive)
REMARK    1  A    between atoms: C_1  and  O_2
REMARK    2  A    between atoms: O_2  and  C_3
REMARK    3  A    between atoms: C_10  and  C_11
REMARK    4  A    between atoms: N_21  and  C_22
REMARK    5  A    between atoms: C_22  and  C_23
REMARK                            x       y       z     vdW  Elec       q    Type
REMARK                         _______ _______ _______ _____ _____    ______ ____
ROOT
ATOM      1  C   UNL     1      -0.056   9.115  21.166  0.00  0.00    +0.000 C 
ATOM      2  C   UNL     1       0.280  10.398  20.434  0.00  0.00    +0.000 C 
ATOM      3  C   UNL     1       0.639   9.922  19.030  0.00  0.00    +0.000 C 
ATOM      4  N   UNL     1       1.082   8.509  19.169  0.00  0.00    +0.000 N 
ATOM      5  C   UNL     1       2.164   8.158  18.403  0.00  0.00    +0.000 A 
ATOM      6  N   UNL     1       2.830   8.987  17.630  0.00  0.00    +0.000 NA
ATOM      7  N   UNL     1       3.851   8.322  17.048  0.00  0.00    +0.000 NA
ATOM      8  C   UNL     1       3.791   7.039  17.360  0.00  0.00    +0.000 A 
ATOM      9  N   UNL     1       2.700   6.881  18.228  0.00  0.00    +0.000 N 
ATOM     10  C   UNL     1       0.986   8.149  20.589  0.00  0.00    +0.000 C 
ENDROOT
BRANCH   8  11
ATOM     11  C   UNL     1       4.794   6.058  16.815  0.00  0.00    +0.000 A 
ATOM     12  C   UNL     1       4.523   5.349  15.632  0.00  0.00    +0.000 A 
ATOM     13  C   UNL     1       5.419   4.434  15.089  0.00  0.00    +0.000 A 
ATOM     14  C   UNL     1       6.597   4.136  15.753  0.00  0.00    +0.000 A 
ATOM     15  C   UNL     1       6.891   4.742  16.980  0.00  0.00    +0.000 A 
ATOM     16  C   UNL     1       8.054   4.328  17.649  0.00  0.00    +0.000 A 
ATOM     17  C   UNL     1       8.390   4.848  18.894  0.00  0.00    +0.000 A 
ATOM     18  C   UNL     1       7.576   5.806  19.465  0.00  0.00    +0.000 A 
ATOM     19  C   UNL     1       6.424   6.242  18.793  0.00  0.00    +0.000 A 
ATOM     20  C   UNL     1       6.012   5.718  17.533  0.00  0.00    +0.000 A 
ENDBRANCH   8  11
BRANCH   1  22
ATOM     21  C   UNL     1      -0.759  10.205  23.152  0.00  0.00    +0.000 C 
ATOM     22  O   UNL     1       0.070   9.203  22.580  0.00  0.00    +0.000 OA
ENDBRANCH   1  22
BRANCH   9  23
ATOM     23  C   UNL     1       2.238   5.673  18.884  0.00  0.00    +0.000 C 
BRANCH  23  24
ATOM     24  C   UNL     1       3.122   5.075  19.990  0.00  0.00    +0.000 C 
ATOM     25  C   UNL     1       3.819   3.781  19.603  0.00  0.00    +0.000 C 
ATOM     26  C   UNL     1       2.856   2.681  20.004  0.00  0.00    +0.000 C 
ATOM     27  O   UNL     1       1.964   3.224  20.979  0.00  0.00    +0.000 OA
ATOM     28  C   UNL     1       2.254   4.613  21.161  0.00  0.00    +0.000 C 
ENDBRANCH  23  24
ENDBRANCH   9  23
TORSDOF 4
ENDMDL
