MODEL 1
REMARK VINA RESULT:      -8.6      0.000      0.000
REMARK  Name = 
REMARK  1 active torsions:
REMARK  status: ('A' for Active; 'I' for Inactive)
REMARK    1  A    between atoms: C_2  and  C_14
REMARK                            x       y       z     vdW  Elec       q    Type
REMARK                         _______ _______ _______ _____ _____    ______ ____
ROOT
ATOM      1  O   UNL     1       1.443   5.948  20.815  0.00  0.00    +0.000 OA
ATOM      2  C   UNL     1       2.010   6.577  19.926  0.00  0.00    +0.000 C 
ATOM      3  N   UNL     1       1.951   7.942  19.740  0.00  0.00    +0.000 N 
ATOM      4  C   UNL     1       1.221   8.782  20.588  0.00  0.00    +0.000 A 
ATOM      5  C   UNL     1       1.266   8.640  21.968  0.00  0.00    +0.000 A 
ATOM      6  C   UNL     1       0.517   9.510  22.751  0.00  0.00    +0.000 A 
ATOM      7  C   UNL     1      -0.302  10.459  22.135  0.00  0.00    +0.000 A 
ATOM      8  C   UNL     1      -1.126  11.318  22.884  0.00  0.00    +0.000 A 
ATOM      9  C   UNL     1      -1.980  12.210  22.240  0.00  0.00    +0.000 A 
ATOM     10  C   UNL     1      -2.012  12.245  20.850  0.00  0.00    +0.000 A 
ATOM     11  C   UNL     1      -1.168  11.410  20.110  0.00  0.00    +0.000 A 
ATOM     12  C   UNL     1      -0.296  10.520  20.725  0.00  0.00    +0.000 A 
ATOM     13  N   UNL     1       0.498   9.737  19.968  0.00  0.00    +0.000 NA
ATOM     14  H   UNL     1       2.034   8.294  18.796  0.00  0.00    +0.000 HD
ENDROOT
BRANCH   2  15
ATOM     15  C   UNL     1       2.768   5.821  18.905  0.00  0.00    +0.000 A 
ATOM     16  C   UNL     1       2.836   4.431  19.006  0.00  0.00    +0.000 A 
ATOM     17  C   UNL     1       3.643   3.708  18.120  0.00  0.00    +0.000 A 
ATOM     18  C   UNL     1       4.406   4.343  17.148  0.00  0.00    +0.000 A 
ATOM     19  N   UNL     1       5.200   3.603  16.354  0.00  0.00    +0.000 NA
ATOM     20  C   UNL     1       5.963   4.246  15.444  0.00  0.00    +0.000 A 
ATOM     21  C   UNL     1       5.967   5.617  15.275  0.00  0.00    +0.000 A 
ATOM     22  C   UNL     1       5.135   6.380  16.087  0.00  0.00    +0.000 A 
ATOM     23  C   UNL     1       4.331   5.749  17.049  0.00  0.00    +0.000 A 
ATOM     24  C   UNL     1       3.504   6.487  17.919  0.00  0.00    +0.000 A 
ENDBRANCH   2  15
TORSDOF 1
ENDMDL
MODEL 2
REMARK VINA RESULT:      -8.4      1.253      8.460
REMARK  Name = 
REMARK  1 active torsions:
REMARK  status: ('A' for Active; 'I' for Inactive)
REMARK    1  A    between atoms: C_2  and  C_14
REMARK                            x       y       z     vdW  Elec       q    Type
REMARK                         _______ _______ _______ _____ _____    ______ ____
ROOT
ATOM      1  O   UNL     1       1.615   6.330  20.860  0.00  0.00    +0.000 OA
ATOM      2  C   UNL     1       1.631   7.408  20.275  0.00  0.00    +0.000 C 
ATOM      3  N   UNL     1       2.231   7.660  19.059  0.00  0.00    +0.000 N 
ATOM      4  C   UNL     1       2.899   6.665  18.335  0.00  0.00    +0.000 A 
ATOM      5  C   UNL     1       2.363   5.395  18.181  0.00  0.00    +0.000 A 
ATOM      6  C   UNL     1       3.079   4.456  17.448  0.00  0.00    +0.000 A 
ATOM      7  C   UNL     1       4.336   4.792  16.938  0.00  0.00    +0.000 A 
ATOM      8  C   UNL     1       5.124   3.856  16.245  0.00  0.00    +0.000 A 
ATOM      9  C   UNL     1       6.399   4.201  15.805  0.00  0.00    +0.000 A 
ATOM     10  C   UNL     1       6.888   5.478  16.057  0.00  0.00    +0.000 A 
ATOM     11  C   UNL     1       6.087   6.415  16.720  0.00  0.00    +0.000 A 
ATOM     12  C   UNL     1       4.807   6.104  17.159  0.00  0.00    +0.000 A 
ATOM     13  N   UNL     1       4.074   7.042  17.792  0.00  0.00    +0.000 NA
ATOM     14  H   UNL     1       2.590   8.590  18.893  0.00  0.00    +0.000 HD
ENDROOT
BRANCH   2  15
ATOM     15  C   UNL     1       1.025   8.580  20.946  0.00  0.00    +0.000 A 
ATOM     16  C   UNL     1       1.004   8.623  22.341  0.00  0.00    +0.000 A 
ATOM     17  C   UNL     1       0.334   9.662  22.994  0.00  0.00    +0.000 A 
ATOM     18  C   UNL     1      -0.340  10.650  22.288  0.00  0.00    +0.000 A 
ATOM     19  N   UNL     1      -1.008  11.600  22.968  0.00  0.00    +0.000 NA
ATOM     20  C   UNL     1      -1.689  12.526  22.259  0.00  0.00    +0.000 A 
ATOM     21  C   UNL     1      -1.732  12.561  20.879  0.00  0.00    +0.000 A 
ATOM     22  C   UNL     1      -1.029  11.586  20.177  0.00  0.00    +0.000 A 
ATOM     23  C   UNL     1      -0.313  10.603  20.877  0.00  0.00    +0.000 A 
ATOM     24  C   UNL     1       0.379   9.576  20.207  0.00  0.00    +0.000 A 
ENDBRANCH   2  15
TORSDOF 1
ENDMDL
MODEL 3
REMARK VINA RESULT:      -8.3      2.074      8.509
REMARK  Name = 
REMARK  1 active torsions:
REMARK  status: ('A' for Active; 'I' for Inactive)
REMARK    1  A    between atoms: C_2  and  C_14
REMARK                            x       y       z     vdW  Elec       q    Type
REMARK                         _______ _______ _______ _____ _____    ______ ____
ROOT
ATOM      1  O   UNL     1       1.861   9.031  17.319  0.00  0.00    +0.000 OA
ATOM      2  C   UNL     1       1.752   9.007  18.541  0.00  0.00    +0.000 C 
ATOM      3  N   UNL     1       2.082   7.948  19.361  0.00  0.00    +0.000 N 
ATOM      4  C   UNL     1       2.608   6.751  18.861  0.00  0.00    +0.000 A 
ATOM      5  C   UNL     1       3.603   6.742  17.895  0.00  0.00    +0.000 A 
ATOM      6  C   UNL     1       4.081   5.516  17.444  0.00  0.00    +0.000 A 
ATOM      7  C   UNL     1       3.512   4.335  17.928  0.00  0.00    +0.000 A 
ATOM      8  C   UNL     1       3.918   3.075  17.455  0.00  0.00    +0.000 A 
ATOM      9  C   UNL     1       3.288   1.919  17.908  0.00  0.00    +0.000 A 
ATOM     10  C   UNL     1       2.253   2.019  18.832  0.00  0.00    +0.000 A 
ATOM     11  C   UNL     1       1.874   3.274  19.322  0.00  0.00    +0.000 A 
ATOM     12  C   UNL     1       2.493   4.444  18.898  0.00  0.00    +0.000 A 
ATOM     13  N   UNL     1       2.092   5.628  19.401  0.00  0.00    +0.000 NA
ATOM     14  H   UNL     1       1.558   7.833  20.218  0.00  0.00    +0.000 HD
ENDROOT
BRANCH   2  15
ATOM     15  C   UNL     1       1.145  10.176  19.215  0.00  0.00    +0.000 A 
ATOM     16  C   UNL     1       1.456  11.457  18.756  0.00  0.00    +0.000 A 
ATOM     17  C   UNL     1       0.987  12.577  19.450  0.00  0.00    +0.000 A 
ATOM     18  C   UNL     1       0.233  12.451  20.609  0.00  0.00    +0.000 A 
ATOM     19  N   UNL     1      -0.152  13.562  21.262  0.00  0.00    +0.000 NA
ATOM     20  C   UNL     1      -0.850  13.413  22.409  0.00  0.00    +0.000 A 
ATOM     21  C   UNL     1      -1.199  12.188  22.944  0.00  0.00    +0.000 A 
ATOM     22  C   UNL     1      -0.812  11.040  22.260  0.00  0.00    +0.000 A 
ATOM     23  C   UNL     1      -0.081  11.153  21.067  0.00  0.00    +0.000 A 
ATOM     24  C   UNL     1       0.364  10.017  20.364  0.00  0.00    +0.000 A 
ENDBRANCH   2  15
TORSDOF 1
ENDMDL
MODEL 4
REMARK VINA RESULT:      -8.3      2.096      8.595
REMARK  Name = 
REMARK  1 active torsions:
REMARK  status: ('A' for Active; 'I' for Inactive)
REMARK    1  A    between atoms: C_2  and  C_14
REMARK                            x       y       z     vdW  Elec       q    Type
REMARK                         _______ _______ _______ _____ _____    ______ ____
ROOT
ATOM      1  O   UNL     1       1.414   8.930  18.829  0.00  0.00    +0.000 OA
ATOM      2  C   UNL     1       1.351   8.652  20.023  0.00  0.00    +0.000 C 
ATOM      3  N   UNL     1       1.741   7.461  20.596  0.00  0.00    +0.000 N 
ATOM      4  C   UNL     1       2.280   6.410  19.845  0.00  0.00    +0.000 A 
ATOM      5  C   UNL     1       3.238   6.634  18.867  0.00  0.00    +0.000 A 
ATOM      6  C   UNL     1       3.733   5.544  18.159  0.00  0.00    +0.000 A 
ATOM      7  C   UNL     1       3.215   4.270  18.405  0.00  0.00    +0.000 A 
ATOM      8  C   UNL     1       3.638   3.148  17.671  0.00  0.00    +0.000 A 
ATOM      9  C   UNL     1       3.058   1.903  17.895  0.00  0.00    +0.000 A 
ATOM     10  C   UNL     1       2.056   1.776  18.851  0.00  0.00    +0.000 A 
ATOM     11  C   UNL     1       1.661   2.890  19.600  0.00  0.00    +0.000 A 
ATOM     12  C   UNL     1       2.231   4.142  19.409  0.00  0.00    +0.000 A 
ATOM     13  N   UNL     1       1.816   5.183  20.157  0.00  0.00    +0.000 NA
ATOM     14  H   UNL     1       1.253   7.154  21.427  0.00  0.00    +0.000 HD
ENDROOT
BRANCH   2  15
ATOM     15  C   UNL     1       0.738   9.637  20.942  0.00  0.00    +0.000 A 
ATOM     16  C   UNL     1       0.243   9.197  22.170  0.00  0.00    +0.000 A 
ATOM     17  C   UNL     1      -0.444  10.088  23.002  0.00  0.00    +0.000 A 
ATOM     18  C   UNL     1      -0.671  11.406  22.627  0.00  0.00    +0.000 A 
ATOM     19  N   UNL     1      -1.379  12.205  23.445  0.00  0.00    +0.000 NA
ATOM     20  C   UNL     1      -1.622  13.471  23.039  0.00  0.00    +0.000 A 
ATOM     21  C   UNL     1      -1.178  13.993  21.839  0.00  0.00    +0.000 A 
ATOM     22  C   UNL     1      -0.435  13.169  21.001  0.00  0.00    +0.000 A 
ATOM     23  C   UNL     1      -0.166  11.846  21.384  0.00  0.00    +0.000 A 
ATOM     24  C   UNL     1       0.549  10.966  20.548  0.00  0.00    +0.000 A 
ENDBRANCH   2  15
TORSDOF 1
ENDMDL
MODEL 5
REMARK VINA RESULT:      -8.1      1.683      2.188
REMARK  Name = 
REMARK  1 active torsions:
REMARK  status: ('A' for Active; 'I' for Inactive)
REMARK    1  A    between atoms: C_2  and  C_14
REMARK                            x       y       z     vdW  Elec       q    Type
REMARK                         _______ _______ _______ _____ _____    ______ ____
ROOT
ATOM      1  O   UNL     1       1.849   7.307  20.407  0.00  0.00    +0.000 OA
ATOM      2  C   UNL     1       2.270   7.526  19.276  0.00  0.00    +0.000 C 
ATOM      3  N   UNL     1       1.826   8.518  18.426  0.00  0.00    +0.000 N 
ATOM      4  C   UNL     1       0.817   9.418  18.790  0.00  0.00    +0.000 A 
ATOM      5  C   UNL     1       0.798  10.021  20.039  0.00  0.00    +0.000 A 
ATOM      6  C   UNL     1      -0.232  10.907  20.334  0.00  0.00    +0.000 A 
ATOM      7  C   UNL     1      -1.246  11.120  19.397  0.00  0.00    +0.000 A 
ATOM      8  C   UNL     1      -2.341  11.957  19.674  0.00  0.00    +0.000 A 
ATOM      9  C   UNL     1      -3.368  12.101  18.746  0.00  0.00    +0.000 A 
ATOM     10  C   UNL     1      -3.304  11.409  17.541  0.00  0.00    +0.000 A 
ATOM     11  C   UNL     1      -2.197  10.602  17.257  0.00  0.00    +0.000 A 
ATOM     12  C   UNL     1      -1.151  10.450  18.158  0.00  0.00    +0.000 A 
ATOM     13  N   UNL     1      -0.106   9.662  17.838  0.00  0.00    +0.000 NA
ATOM     14  H   UNL     1       1.872   8.343  17.432  0.00  0.00    +0.000 HD
ENDROOT
BRANCH   2  15
ATOM     15  C   UNL     1       3.294   6.614  18.718  0.00  0.00    +0.000 A 
ATOM     16  C   UNL     1       3.908   5.691  19.565  0.00  0.00    +0.000 A 
ATOM     17  C   UNL     1       4.959   4.901  19.086  0.00  0.00    +0.000 A 
ATOM     18  C   UNL     1       5.429   5.027  17.785  0.00  0.00    +0.000 A 
ATOM     19  N   UNL     1       6.473   4.275  17.392  0.00  0.00    +0.000 NA
ATOM     20  C   UNL     1       6.938   4.445  16.136  0.00  0.00    +0.000 A 
ATOM     21  C   UNL     1       6.399   5.337  15.229  0.00  0.00    +0.000 A 
ATOM     22  C   UNL     1       5.311   6.103  15.632  0.00  0.00    +0.000 A 
ATOM     23  C   UNL     1       4.801   5.960  16.932  0.00  0.00    +0.000 A 
ATOM     24  C   UNL     1       3.726   6.744  17.394  0.00  0.00    +0.000 A 
ENDBRANCH   2  15
TORSDOF 1
ENDMDL
MODEL 6
REMARK VINA RESULT:      -8.1      1.654      1.992
REMARK  Name = 
REMARK  1 active torsions:
REMARK  status: ('A' for Active; 'I' for Inactive)
REMARK    1  A    between atoms: C_2  and  C_14
REMARK                            x       y       z     vdW  Elec       q    Type
REMARK                         _______ _______ _______ _____ _____    ______ ____
ROOT
ATOM      1  O   UNL     1       2.134   7.707  20.070  0.00  0.00    +0.000 OA
ATOM      2  C   UNL     1       2.149   7.781  18.846  0.00  0.00    +0.000 C 
ATOM      3  N   UNL     1       1.466   8.705  18.084  0.00  0.00    +0.000 N 
ATOM      4  C   UNL     1       0.662   9.699  18.655  0.00  0.00    +0.000 A 
ATOM      5  C   UNL     1       1.083  10.428  19.757  0.00  0.00    +0.000 A 
ATOM      6  C   UNL     1       0.236  11.402  20.273  0.00  0.00    +0.000 A 
ATOM      7  C   UNL     1      -1.032  11.579  19.712  0.00  0.00    +0.000 A 
ATOM      8  C   UNL     1      -1.947  12.507  20.240  0.00  0.00    +0.000 A 
ATOM      9  C   UNL     1      -3.226  12.616  19.700  0.00  0.00    +0.000 A 
ATOM     10  C   UNL     1      -3.592  11.801  18.635  0.00  0.00    +0.000 A 
ATOM     11  C   UNL     1      -2.666  10.901  18.094  0.00  0.00    +0.000 A 
ATOM     12  C   UNL     1      -1.379  10.779  18.603  0.00  0.00    +0.000 A 
ATOM     13  N   UNL     1      -0.524   9.899  18.046  0.00  0.00    +0.000 NA
ATOM     14  H   UNL     1       1.166   8.425  17.159  0.00  0.00    +0.000 HD
ENDROOT
BRANCH   2  15
ATOM     15  C   UNL     1       2.901   6.755  18.090  0.00  0.00    +0.000 A 
ATOM     16  C   UNL     1       2.455   5.433  18.120  0.00  0.00    +0.000 A 
ATOM     17  C   UNL     1       3.214   4.429  17.509  0.00  0.00    +0.000 A 
ATOM     18  C   UNL     1       4.425   4.709  16.888  0.00  0.00    +0.000 A 
ATOM     19  N   UNL     1       5.137   3.698  16.359  0.00  0.00    +0.000 NA
ATOM     20  C   UNL     1       6.329   3.989  15.797  0.00  0.00    +0.000 A 
ATOM     21  C   UNL     1       6.856   5.265  15.725  0.00  0.00    +0.000 A 
ATOM     22  C   UNL     1       6.112   6.311  16.260  0.00  0.00    +0.000 A 
ATOM     23  C   UNL     1       4.869   6.049  16.859  0.00  0.00    +0.000 A 
ATOM     24  C   UNL     1       4.102   7.072  17.448  0.00  0.00    +0.000 A 
ENDBRANCH   2  15
TORSDOF 1
ENDMDL
MODEL 7
REMARK VINA RESULT:      -8.0      1.863      2.494
REMARK  Name = 
REMARK  1 active torsions:
REMARK  status: ('A' for Active; 'I' for Inactive)
REMARK    1  A    between atoms: C_2  and  C_14
REMARK                            x       y       z     vdW  Elec       q    Type
REMARK                         _______ _______ _______ _____ _____    ______ ____
ROOT
ATOM      1  O   UNL     1       2.023   9.445  17.433  0.00  0.00    +0.000 OA
ATOM      2  C   UNL     1       1.966   8.634  18.352  0.00  0.00    +0.000 C 
ATOM      3  N   UNL     1       1.133   8.712  19.448  0.00  0.00    +0.000 N 
ATOM      4  C   UNL     1       0.222   9.761  19.622  0.00  0.00    +0.000 A 
ATOM      5  C   UNL     1      -0.565  10.220  18.575  0.00  0.00    +0.000 A 
ATOM      6  C   UNL     1      -1.450  11.264  18.818  0.00  0.00    +0.000 A 
ATOM      7  C   UNL     1      -1.483  11.860  20.081  0.00  0.00    +0.000 A 
ATOM      8  C   UNL     1      -2.316  12.959  20.356  0.00  0.00    +0.000 A 
ATOM      9  C   UNL     1      -2.280  13.572  21.606  0.00  0.00    +0.000 A 
ATOM     10  C   UNL     1      -1.414  13.090  22.581  0.00  0.00    +0.000 A 
ATOM     11  C   UNL     1      -0.610  11.976  22.312  0.00  0.00    +0.000 A 
ATOM     12  C   UNL     1      -0.634  11.335  21.080  0.00  0.00    +0.000 A 
ATOM     13  N   UNL     1       0.159  10.266  20.870  0.00  0.00    +0.000 NA
ATOM     14  H   UNL     1       1.456   8.310  20.318  0.00  0.00    +0.000 HD
ENDROOT
BRANCH   2  15
ATOM     15  C   UNL     1       2.918   7.501  18.349  0.00  0.00    +0.000 A 
ATOM     16  C   UNL     1       2.850   6.559  19.376  0.00  0.00    +0.000 A 
ATOM     17  C   UNL     1       3.813   5.547  19.457  0.00  0.00    +0.000 A 
ATOM     18  C   UNL     1       4.860   5.466  18.548  0.00  0.00    +0.000 A 
ATOM     19  N   UNL     1       5.785   4.501  18.700  0.00  0.00    +0.000 NA
ATOM     20  C   UNL     1       6.815   4.467  17.828  0.00  0.00    +0.000 A 
ATOM     21  C   UNL     1       6.970   5.359  16.784  0.00  0.00    +0.000 A 
ATOM     22  C   UNL     1       6.006   6.348  16.620  0.00  0.00    +0.000 A 
ATOM     23  C   UNL     1       4.922   6.420  17.509  0.00  0.00    +0.000 A 
ATOM     24  C   UNL     1       3.945   7.429  17.402  0.00  0.00    +0.000 A 
ENDBRANCH   2  15
TORSDOF 1
ENDMDL
MODEL 8
REMARK VINA RESULT:      -8.0      1.502      8.678
REMARK  Name = 
REMARK  1 active torsions:
REMARK  status: ('A' for Active; 'I' for Inactive)
REMARK    1  A    between atoms: C_2  and  C_14
REMARK                            x       y       z     vdW  Elec       q    Type
REMARK                         _______ _______ _______ _____ _____    ______ ____
ROOT
ATOM      1  O   UNL     1       1.579   7.334  20.732  0.00  0.00    +0.000 OA
ATOM      2  C   UNL     1       1.512   8.219  19.885  0.00  0.00    +0.000 C 
ATOM      3  N   UNL     1       2.035   8.159  18.611  0.00  0.00    +0.000 N 
ATOM      4  C   UNL     1       2.712   7.031  18.132  0.00  0.00    +0.000 A 
ATOM      5  C   UNL     1       2.231   5.749  18.352  0.00  0.00    +0.000 A 
ATOM      6  C   UNL     1       2.953   4.673  17.847  0.00  0.00    +0.000 A 
ATOM      7  C   UNL     1       4.163   4.904  17.188  0.00  0.00    +0.000 A 
ATOM      8  C   UNL     1       4.959   3.845  16.717  0.00  0.00    +0.000 A 
ATOM      9  C   UNL     1       6.191   4.104  16.121  0.00  0.00    +0.000 A 
ATOM     10  C   UNL     1       6.630   5.418  15.998  0.00  0.00    +0.000 A 
ATOM     11  C   UNL     1       5.820   6.469  16.441  0.00  0.00    +0.000 A 
ATOM     12  C   UNL     1       4.580   6.243  17.026  0.00  0.00    +0.000 A 
ATOM     13  N   UNL     1       3.837   7.290  17.436  0.00  0.00    +0.000 NA
ATOM     14  H   UNL     1       2.338   9.024  18.184  0.00  0.00    +0.000 HD
ENDROOT
BRANCH   2  15
ATOM     15  C   UNL     1       0.885   9.505  20.263  0.00  0.00    +0.000 A 
ATOM     16  C   UNL     1       1.218  10.655  19.546  0.00  0.00    +0.000 A 
ATOM     17  C   UNL     1       0.728  11.899  19.959  0.00  0.00    +0.000 A 
ATOM     18  C   UNL     1      -0.071  12.027  21.088  0.00  0.00    +0.000 A 
ATOM     19  N   UNL     1      -0.475  13.253  21.467  0.00  0.00    +0.000 NA
ATOM     20  C   UNL     1      -1.216  13.356  22.591  0.00  0.00    +0.000 A 
ATOM     21  C   UNL     1      -1.591  12.277  23.368  0.00  0.00    +0.000 A 
ATOM     22  C   UNL     1      -1.183  11.009  22.968  0.00  0.00    +0.000 A 
ATOM     23  C   UNL     1      -0.407  10.860  21.808  0.00  0.00    +0.000 A 
ATOM     24  C   UNL     1       0.060   9.599  21.389  0.00  0.00    +0.000 A 
ENDBRANCH   2  15
TORSDOF 1
ENDMDL
MODEL 9
REMARK VINA RESULT:      -8.0      2.376      8.332
REMARK  Name = 
REMARK  1 active torsions:
REMARK  status: ('A' for Active; 'I' for Inactive)
REMARK    1  A    between atoms: C_2  and  C_14
REMARK                            x       y       z     vdW  Elec       q    Type
REMARK                         _______ _______ _______ _____ _____    ______ ____
ROOT
ATOM      1  O   UNL     1       2.097   8.977  17.135  0.00  0.00    +0.000 OA
ATOM      2  C   UNL     1       1.849   8.985  18.337  0.00  0.00    +0.000 C 
ATOM      3  N   UNL     1       2.063   7.943  19.214  0.00  0.00    +0.000 N 
ATOM      4  C   UNL     1       2.619   6.724  18.806  0.00  0.00    +0.000 A 
ATOM      5  C   UNL     1       3.718   6.675  17.961  0.00  0.00    +0.000 A 
ATOM      6  C   UNL     1       4.220   5.431  17.597  0.00  0.00    +0.000 A 
ATOM      7  C   UNL     1       3.577   4.272  18.039  0.00  0.00    +0.000 A 
ATOM      8  C   UNL     1       4.011   2.993  17.646  0.00  0.00    +0.000 A 
ATOM      9  C   UNL     1       3.311   1.860  18.050  0.00  0.00    +0.000 A 
ATOM     10  C   UNL     1       2.179   2.000  18.846  0.00  0.00    +0.000 A 
ATOM     11  C   UNL     1       1.770   3.274  19.259  0.00  0.00    +0.000 A 
ATOM     12  C   UNL     1       2.456   4.421  18.883  0.00  0.00    +0.000 A 
ATOM     13  N   UNL     1       2.023   5.625  19.309  0.00  0.00    +0.000 NA
ATOM     14  H   UNL     1       1.441   7.858  20.007  0.00  0.00    +0.000 HD
ENDROOT
BRANCH   2  15
ATOM     15  C   UNL     1       1.191  10.181  18.909  0.00  0.00    +0.000 A 
ATOM     16  C   UNL     1       0.019  10.019  19.649  0.00  0.00    +0.000 A 
ATOM     17  C   UNL     1      -0.680  11.143  20.099  0.00  0.00    +0.000 A 
ATOM     18  C   UNL     1      -0.251  12.432  19.807  0.00  0.00    +0.000 A 
ATOM     19  N   UNL     1      -0.989  13.477  20.225  0.00  0.00    +0.000 NA
ATOM     20  C   UNL     1      -0.572  14.718  19.894  0.00  0.00    +0.000 A 
ATOM     21  C   UNL     1       0.570  14.978  19.161  0.00  0.00    +0.000 A 
ATOM     22  C   UNL     1       1.339  13.897  18.742  0.00  0.00    +0.000 A 
ATOM     23  C   UNL     1       0.937  12.590  19.061  0.00  0.00    +0.000 A 
ATOM     24  C   UNL     1       1.664  11.466  18.623  0.00  0.00    +0.000 A 
ENDBRANCH   2  15
TORSDOF 1
ENDMDL
