MODEL 1
REMARK VINA RESULT:      -9.2      0.000      0.000
REMARK  Name = 
REMARK  5 active torsions:
REMARK  status: ('A' for Active; 'I' for Inactive)
REMARK    1  A    between atoms: N_1  and  S_2
REMARK    2  A    between atoms: S_2  and  C_5
REMARK    3  A    between atoms: C_9  and  N_10
REMARK    4  A    between atoms: C_11  and  C_13
REMARK    5  A    between atoms: N_15  and  C_16
REMARK                            x       y       z     vdW  Elec       q    Type
REMARK                         _______ _______ _______ _____ _____    ______ ____
ROOT
ATOM      1  C   UNL     1       2.645   6.657  18.631  0.00  0.00    +0.000 A 
ATOM      2  N   UNL     1       3.253   6.739  17.473  0.00  0.00    +0.000 NA
ATOM      3  N   UNL     1       4.241   5.747  17.291  0.00  0.00    +0.000 N 
ATOM      4  C   UNL     1       3.787   4.421  17.482  0.00  0.00    +0.000 A 
ATOM      5  O   UNL     1       4.182   3.436  16.866  0.00  0.00    +0.000 OA
ATOM      6  C   UNL     1       2.888   4.261  18.667  0.00  0.00    +0.000 A 
ATOM      7  C   UNL     1       2.485   3.018  19.147  0.00  0.00    +0.000 A 
ATOM      8  C   UNL     1       2.016   2.918  20.458  0.00  0.00    +0.000 A 
ATOM      9  C   UNL     1       2.040   4.036  21.297  0.00  0.00    +0.000 A 
ATOM     10  C   UNL     1       2.347   5.292  20.777  0.00  0.00    +0.000 A 
ATOM     11  C   UNL     1       2.651   5.409  19.425  0.00  0.00    +0.000 A 
ENDROOT
BRANCH   3  12
ATOM     12  C   UNL     1       5.402   6.208  18.073  0.00  0.00    +0.000 A 
ATOM     13  C   UNL     1       6.234   7.237  17.616  0.00  0.00    +0.000 A 
ATOM     14  C   UNL     1       7.600   7.199  17.925  0.00  0.00    +0.000 A 
ATOM     15  C   UNL     1       8.121   6.179  18.726  0.00  0.00    +0.000 A 
ATOM     16  C   UNL     1       7.265   5.271  19.335  0.00  0.00    +0.000 A 
ATOM     17  C   UNL     1       5.903   5.330  19.061  0.00  0.00    +0.000 A 
ENDBRANCH   3  12
BRANCH   1  19
ATOM     18  N   UNL     1       1.517   8.714  18.071  0.00  0.00    +0.000 N 
ATOM     19  C   UNL     1       1.896   7.892  19.110  0.00  0.00    +0.000 C 
ATOM     20  O   UNL     1       1.679   8.039  20.295  0.00  0.00    +0.000 OA
ATOM     21  H   UNL     1       1.700   8.348  17.142  0.00  0.00    +0.000 HD
BRANCH  18  26
ATOM     22  C   UNL     1      -1.328  11.043  18.096  0.00  0.00    +0.000 A 
ATOM     23  C   UNL     1      -0.760  12.204  18.623  0.00  0.00    +0.000 A 
ATOM     24  C   UNL     1       0.604  12.230  18.896  0.00  0.00    +0.000 A 
ATOM     25  C   UNL     1       1.375  11.088  18.684  0.00  0.00    +0.000 A 
ATOM     26  C   UNL     1       0.795   9.905  18.203  0.00  0.00    +0.000 A 
ATOM     27  C   UNL     1      -0.554   9.898  17.872  0.00  0.00    +0.000 A 
BRANCH  22  28
ATOM     28  S   UNL     1      -3.077  10.981  17.821  0.00  0.00    +0.000 S 
ATOM     29  O   UNL     1      -3.722  11.951  18.670  0.00  0.00    +0.000 OA
ATOM     30  O   UNL     1      -3.494   9.602  17.755  0.00  0.00    +0.000 OA
BRANCH  28  31
ATOM     31  N   UNL     1      -3.198  11.571  16.255  0.00  0.00    +0.000 NA
ATOM     32  H   UNL     1      -3.193  12.590  16.279  0.00  0.00    +0.000 HD
ATOM     33  H   UNL     1      -4.022  11.176  15.800  0.00  0.00    +0.000 HD
ENDBRANCH  28  31
ENDBRANCH  22  28
ENDBRANCH  18  26
ENDBRANCH   1  19
TORSDOF 5
ENDMDL
MODEL 2
REMARK VINA RESULT:      -9.2      3.342      8.316
REMARK  Name = 
REMARK  5 active torsions:
REMARK  status: ('A' for Active; 'I' for Inactive)
REMARK    1  A    between atoms: N_1  and  S_2
REMARK    2  A    between atoms: S_2  and  C_5
REMARK    3  A    between atoms: C_9  and  N_10
REMARK    4  A    between atoms: C_11  and  C_13
REMARK    5  A    between atoms: N_15  and  C_16
REMARK                            x       y       z     vdW  Elec       q    Type
REMARK                         _______ _______ _______ _____ _____    ______ ____
ROOT
ATOM      1  C   UNL     1       0.671   9.896  19.173  0.00  0.00    +0.000 A 
ATOM      2  N   UNL     1       0.527  10.932  18.384  0.00  0.00    +0.000 NA
ATOM      3  N   UNL     1      -0.601  11.720  18.699  0.00  0.00    +0.000 N 
ATOM      4  C   UNL     1      -0.662  12.152  20.045  0.00  0.00    +0.000 A 
ATOM      5  O   UNL     1      -1.116  13.224  20.431  0.00  0.00    +0.000 OA
ATOM      6  C   UNL     1      -0.289  11.091  21.032  0.00  0.00    +0.000 A 
ATOM      7  C   UNL     1      -0.462  11.242  22.404  0.00  0.00    +0.000 A 
ATOM      8  C   UNL     1      -0.497  10.103  23.211  0.00  0.00    +0.000 A 
ATOM      9  C   UNL     1      -0.450   8.832  22.631  0.00  0.00    +0.000 A 
ATOM     10  C   UNL     1      -0.174   8.696  21.272  0.00  0.00    +0.000 A 
ATOM     11  C   UNL     1       0.028   9.838  20.504  0.00  0.00    +0.000 A 
ENDROOT
BRANCH   3  12
ATOM     12  C   UNL     1      -1.754  10.984  18.149  0.00  0.00    +0.000 A 
ATOM     13  C   UNL     1      -1.612  10.083  17.087  0.00  0.00    +0.000 A 
ATOM     14  C   UNL     1      -2.656   9.949  16.162  0.00  0.00    +0.000 A 
ATOM     15  C   UNL     1      -3.848  10.661  16.324  0.00  0.00    +0.000 A 
ATOM     16  C   UNL     1      -4.059  11.404  17.478  0.00  0.00    +0.000 A 
ATOM     17  C   UNL     1      -3.039  11.508  18.417  0.00  0.00    +0.000 A 
ENDBRANCH   3  12
BRANCH   1  19
ATOM     18  N   UNL     1       1.861   7.858  19.672  0.00  0.00    +0.000 N 
ATOM     19  C   UNL     1       1.564   8.767  18.680  0.00  0.00    +0.000 C 
ATOM     20  O   UNL     1       1.906   8.739  17.516  0.00  0.00    +0.000 OA
ATOM     21  H   UNL     1       1.379   8.008  20.554  0.00  0.00    +0.000 HD
BRANCH  18  26
ATOM     22  C   UNL     1       2.904   4.338  19.879  0.00  0.00    +0.000 A 
ATOM     23  C   UNL     1       4.041   4.316  19.070  0.00  0.00    +0.000 A 
ATOM     24  C   UNL     1       4.506   5.504  18.517  0.00  0.00    +0.000 A 
ATOM     25  C   UNL     1       3.810   6.691  18.739  0.00  0.00    +0.000 A 
ATOM     26  C   UNL     1       2.638   6.707  19.509  0.00  0.00    +0.000 A 
ATOM     27  C   UNL     1       2.208   5.531  20.113  0.00  0.00    +0.000 A 
BRANCH  22  28
ATOM     28  S   UNL     1       2.265   2.816  20.520  0.00  0.00    +0.000 S 
ATOM     29  O   UNL     1       2.796   2.601  21.842  0.00  0.00    +0.000 OA
ATOM     30  O   UNL     1       2.316   1.811  19.486  0.00  0.00    +0.000 OA
BRANCH  28  31
ATOM     31  N   UNL     1       0.640   3.184  20.718  0.00  0.00    +0.000 NA
ATOM     32  H   UNL     1       0.476   4.146  20.421  0.00  0.00    +0.000 HD
ATOM     33  H   UNL     1       0.359   2.999  21.682  0.00  0.00    +0.000 HD
ENDBRANCH  28  31
ENDBRANCH  22  28
ENDBRANCH  18  26
ENDBRANCH   1  19
TORSDOF 5
ENDMDL
MODEL 3
REMARK VINA RESULT:      -9.1      3.316      8.535
REMARK  Name = 
REMARK  5 active torsions:
REMARK  status: ('A' for Active; 'I' for Inactive)
REMARK    1  A    between atoms: N_1  and  S_2
REMARK    2  A    between atoms: S_2  and  C_5
REMARK    3  A    between atoms: C_9  and  N_10
REMARK    4  A    between atoms: C_11  and  C_13
REMARK    5  A    between atoms: N_15  and  C_16
REMARK                            x       y       z     vdW  Elec       q    Type
REMARK                         _______ _______ _______ _____ _____    ______ ____
ROOT
ATOM      1  C   UNL     1       0.689   9.720  19.255  0.00  0.00    +0.000 A 
ATOM      2  N   UNL     1       0.617  10.734  18.428  0.00  0.00    +0.000 NA
ATOM      3  N   UNL     1      -0.464  11.600  18.702  0.00  0.00    +0.000 N 
ATOM      4  C   UNL     1      -0.511  12.083  20.031  0.00  0.00    +0.000 A 
ATOM      5  O   UNL     1      -0.903  13.195  20.373  0.00  0.00    +0.000 OA
ATOM      6  C   UNL     1      -0.214  11.037  21.058  0.00  0.00    +0.000 A 
ATOM      7  C   UNL     1      -0.392  11.247  22.423  0.00  0.00    +0.000 A 
ATOM      8  C   UNL     1      -0.505  10.142  23.269  0.00  0.00    +0.000 A 
ATOM      9  C   UNL     1      -0.530   8.851  22.734  0.00  0.00    +0.000 A 
ATOM     10  C   UNL     1      -0.249   8.650  21.384  0.00  0.00    +0.000 A 
ATOM     11  C   UNL     1       0.030   9.750  20.579  0.00  0.00    +0.000 A 
ENDROOT
BRANCH   3  12
ATOM     12  C   UNL     1      -1.654  10.918  18.164  0.00  0.00    +0.000 A 
ATOM     13  C   UNL     1      -1.568  10.033  17.082  0.00  0.00    +0.000 A 
ATOM     14  C   UNL     1      -2.636   9.954  16.178  0.00  0.00    +0.000 A 
ATOM     15  C   UNL     1      -3.797  10.705  16.379  0.00  0.00    +0.000 A 
ATOM     16  C   UNL     1      -3.956  11.433  17.551  0.00  0.00    +0.000 A 
ATOM     17  C   UNL     1      -2.913  11.482  18.470  0.00  0.00    +0.000 A 
ENDBRANCH   3  12
BRANCH   1  19
ATOM     18  N   UNL     1       1.775   7.650  19.847  0.00  0.00    +0.000 N 
ATOM     19  C   UNL     1       1.515   8.522  18.812  0.00  0.00    +0.000 C 
ATOM     20  O   UNL     1       1.842   8.416  17.648  0.00  0.00    +0.000 OA
ATOM     21  H   UNL     1       1.312   7.870  20.724  0.00  0.00    +0.000 HD
BRANCH  18  26
ATOM     22  C   UNL     1       4.569   5.339  19.236  0.00  0.00    +0.000 A 
ATOM     23  C   UNL     1       4.047   4.118  19.666  0.00  0.00    +0.000 A 
ATOM     24  C   UNL     1       2.723   4.056  20.088  0.00  0.00    +0.000 A 
ATOM     25  C   UNL     1       1.950   5.215  20.119  0.00  0.00    +0.000 A 
ATOM     26  C   UNL     1       2.489   6.453  19.737  0.00  0.00    +0.000 A 
ATOM     27  C   UNL     1       3.792   6.505  19.256  0.00  0.00    +0.000 A 
BRANCH  22  28
ATOM     28  S   UNL     1       6.276   5.438  18.773  0.00  0.00    +0.000 S 
ATOM     29  O   UNL     1       7.091   5.383  19.961  0.00  0.00    +0.000 OA
ATOM     30  O   UNL     1       6.433   6.460  17.767  0.00  0.00    +0.000 OA
BRANCH  28  31
ATOM     31  N   UNL     1       6.500   3.978  17.979  0.00  0.00    +0.000 NA
ATOM     32  H   UNL     1       7.088   4.128  17.160  0.00  0.00    +0.000 HD
ATOM     33  H   UNL     1       5.594   3.560  17.762  0.00  0.00    +0.000 HD
ENDBRANCH  28  31
ENDBRANCH  22  28
ENDBRANCH  18  26
ENDBRANCH   1  19
TORSDOF 5
ENDMDL
MODEL 4
REMARK VINA RESULT:      -9.1      3.293      8.402
REMARK  Name = 
REMARK  5 active torsions:
REMARK  status: ('A' for Active; 'I' for Inactive)
REMARK    1  A    between atoms: N_1  and  S_2
REMARK    2  A    between atoms: S_2  and  C_5
REMARK    3  A    between atoms: C_9  and  N_10
REMARK    4  A    between atoms: C_11  and  C_13
REMARK    5  A    between atoms: N_15  and  C_16
REMARK                            x       y       z     vdW  Elec       q    Type
REMARK                         _______ _______ _______ _____ _____    ______ ____
ROOT
ATOM      1  C   UNL     1       0.852   9.538  19.626  0.00  0.00    +0.000 A 
ATOM      2  N   UNL     1       0.910  10.341  18.592  0.00  0.00    +0.000 NA
ATOM      3  N   UNL     1      -0.155  11.266  18.544  0.00  0.00    +0.000 N 
ATOM      4  C   UNL     1      -0.321  12.036  19.719  0.00  0.00    +0.000 A 
ATOM      5  O   UNL     1      -0.699  13.203  19.760  0.00  0.00    +0.000 OA
ATOM      6  C   UNL     1      -0.179  11.243  20.980  0.00  0.00    +0.000 A 
ATOM      7  C   UNL     1      -0.490  11.758  22.235  0.00  0.00    +0.000 A 
ATOM      8  C   UNL     1      -0.739  10.874  23.286  0.00  0.00    +0.000 A 
ATOM      9  C   UNL     1      -0.763   9.496  23.052  0.00  0.00    +0.000 A 
ATOM     10  C   UNL     1      -0.351   8.991  21.820  0.00  0.00    +0.000 A 
ATOM     11  C   UNL     1       0.059   9.876  20.828  0.00  0.00    +0.000 A 
ENDROOT
BRANCH   3  12
ATOM     12  C   UNL     1      -1.311  10.501  18.041  0.00  0.00    +0.000 A 
ATOM     13  C   UNL     1      -1.233   9.737  16.871  0.00  0.00    +0.000 A 
ATOM     14  C   UNL     1      -2.367   9.618  16.056  0.00  0.00    +0.000 A 
ATOM     15  C   UNL     1      -3.578  10.206  16.431  0.00  0.00    +0.000 A 
ATOM     16  C   UNL     1      -3.702  10.798  17.681  0.00  0.00    +0.000 A 
ATOM     17  C   UNL     1      -2.589  10.884  18.509  0.00  0.00    +0.000 A 
ENDBRANCH   3  12
BRANCH   1  19
ATOM     18  N   UNL     1       2.141   8.002  18.286  0.00  0.00    +0.000 N 
ATOM     19  C   UNL     1       1.667   8.256  19.555  0.00  0.00    +0.000 C 
ATOM     20  O   UNL     1       1.850   7.605  20.564  0.00  0.00    +0.000 OA
ATOM     21  H   UNL     1       1.968   8.736  17.606  0.00  0.00    +0.000 HD
BRANCH  18  26
ATOM     22  C   UNL     1       5.129   6.059  17.381  0.00  0.00    +0.000 A 
ATOM     23  C   UNL     1       4.644   4.751  17.374  0.00  0.00    +0.000 A 
ATOM     24  C   UNL     1       3.290   4.526  17.595  0.00  0.00    +0.000 A 
ATOM     25  C   UNL     1       2.444   5.601  17.865  0.00  0.00    +0.000 A 
ATOM     26  C   UNL     1       2.939   6.912  17.923  0.00  0.00    +0.000 A 
ATOM     27  C   UNL     1       4.280   7.143  17.641  0.00  0.00    +0.000 A 
BRANCH  22  28
ATOM     28  S   UNL     1       6.866   6.342  17.177  0.00  0.00    +0.000 S 
ATOM     29  O   UNL     1       7.589   5.532  18.124  0.00  0.00    +0.000 OA
ATOM     30  O   UNL     1       7.098   7.758  17.024  0.00  0.00    +0.000 OA
BRANCH  28  31
ATOM     31  N   UNL     1       7.147   5.668  15.667  0.00  0.00    +0.000 NA
ATOM     32  H   UNL     1       8.151   5.649  15.490  0.00  0.00    +0.000 HD
ATOM     33  H   UNL     1       6.616   6.175  14.958  0.00  0.00    +0.000 HD
ENDBRANCH  28  31
ENDBRANCH  22  28
ENDBRANCH  18  26
ENDBRANCH   1  19
TORSDOF 5
ENDMDL
MODEL 5
REMARK VINA RESULT:      -9.0      1.460      1.462
REMARK  Name = 
REMARK  5 active torsions:
REMARK  status: ('A' for Active; 'I' for Inactive)
REMARK    1  A    between atoms: N_1  and  S_2
REMARK    2  A    between atoms: S_2  and  C_5
REMARK    3  A    between atoms: C_9  and  N_10
REMARK    4  A    between atoms: C_11  and  C_13
REMARK    5  A    between atoms: N_15  and  C_16
REMARK                            x       y       z     vdW  Elec       q    Type
REMARK                         _______ _______ _______ _____ _____    ______ ____
ROOT
ATOM      1  C   UNL     1       2.829   7.033  18.007  0.00  0.00    +0.000 A 
ATOM      2  N   UNL     1       3.613   6.981  16.958  0.00  0.00    +0.000 NA
ATOM      3  N   UNL     1       4.526   5.905  16.997  0.00  0.00    +0.000 N 
ATOM      4  C   UNL     1       3.935   4.635  17.195  0.00  0.00    +0.000 A 
ATOM      5  O   UNL     1       4.332   3.580  16.712  0.00  0.00    +0.000 OA
ATOM      6  C   UNL     1       2.853   4.634  18.229  0.00  0.00    +0.000 A 
ATOM      7  C   UNL     1       2.274   3.465  18.714  0.00  0.00    +0.000 A 
ATOM      8  C   UNL     1       1.602   3.500  19.938  0.00  0.00    +0.000 A 
ATOM      9  C   UNL     1       1.595   4.672  20.699  0.00  0.00    +0.000 A 
ATOM     10  C   UNL     1       2.087   5.858  20.158  0.00  0.00    +0.000 A 
ATOM     11  C   UNL     1       2.604   5.850  18.867  0.00  0.00    +0.000 A 
ENDROOT
BRANCH   3  12
ATOM     12  C   UNL     1       5.590   6.333  17.924  0.00  0.00    +0.000 A 
ATOM     13  C   UNL     1       6.535   7.301  17.562  0.00  0.00    +0.000 A 
ATOM     14  C   UNL     1       7.839   7.202  18.065  0.00  0.00    +0.000 A 
ATOM     15  C   UNL     1       8.183   6.187  18.961  0.00  0.00    +0.000 A 
ATOM     16  C   UNL     1       7.199   5.346  19.465  0.00  0.00    +0.000 A 
ATOM     17  C   UNL     1       5.895   5.466  18.998  0.00  0.00    +0.000 A 
ENDBRANCH   3  12
BRANCH   1  19
ATOM     18  N   UNL     1       1.465   8.355  19.492  0.00  0.00    +0.000 N 
ATOM     19  C   UNL     1       2.126   8.353  18.283  0.00  0.00    +0.000 C 
ATOM     20  O   UNL     1       2.215   9.259  17.480  0.00  0.00    +0.000 OA
ATOM     21  H   UNL     1       1.611   7.530  20.066  0.00  0.00    +0.000 HD
BRANCH  18  26
ATOM     22  C   UNL     1      -1.000  11.071  19.756  0.00  0.00    +0.000 A 
ATOM     23  C   UNL     1      -0.849  11.484  21.081  0.00  0.00    +0.000 A 
ATOM     24  C   UNL     1       0.141  10.902  21.866  0.00  0.00    +0.000 A 
ATOM     25  C   UNL     1       0.937   9.887  21.338  0.00  0.00    +0.000 A 
ATOM     26  C   UNL     1       0.752   9.435  20.023  0.00  0.00    +0.000 A 
ATOM     27  C   UNL     1      -0.194  10.059  19.219  0.00  0.00    +0.000 A 
BRANCH  22  28
ATOM     28  S   UNL     1      -2.310  11.753  18.778  0.00  0.00    +0.000 S 
ATOM     29  O   UNL     1      -2.995  12.761  19.546  0.00  0.00    +0.000 OA
ATOM     30  O   UNL     1      -3.001  10.682  18.103  0.00  0.00    +0.000 OA
BRANCH  28  31
ATOM     31  N   UNL     1      -1.457  12.568  17.586  0.00  0.00    +0.000 NA
ATOM     32  H   UNL     1      -0.493  12.234  17.575  0.00  0.00    +0.000 HD
ATOM     33  H   UNL     1      -1.539  13.576  17.729  0.00  0.00    +0.000 HD
ENDBRANCH  28  31
ENDBRANCH  22  28
ENDBRANCH  18  26
ENDBRANCH   1  19
TORSDOF 5
ENDMDL
MODEL 6
REMARK VINA RESULT:      -9.0      1.674      3.949
REMARK  Name = 
REMARK  5 active torsions:
REMARK  status: ('A' for Active; 'I' for Inactive)
REMARK    1  A    between atoms: N_1  and  S_2
REMARK    2  A    between atoms: S_2  and  C_5
REMARK    3  A    between atoms: C_9  and  N_10
REMARK    4  A    between atoms: C_11  and  C_13
REMARK    5  A    between atoms: N_15  and  C_16
REMARK                            x       y       z     vdW  Elec       q    Type
REMARK                         _______ _______ _______ _____ _____    ______ ____
ROOT
ATOM      1  C   UNL     1       3.390   7.036  18.387  0.00  0.00    +0.000 A 
ATOM      2  N   UNL     1       3.190   6.546  19.585  0.00  0.00    +0.000 NA
ATOM      3  N   UNL     1       3.649   5.219  19.728  0.00  0.00    +0.000 N 
ATOM      4  C   UNL     1       5.002   5.019  19.366  0.00  0.00    +0.000 A 
ATOM      5  O   UNL     1       5.774   4.229  19.899  0.00  0.00    +0.000 OA
ATOM      6  C   UNL     1       5.398   5.734  18.113  0.00  0.00    +0.000 A 
ATOM      7  C   UNL     1       6.618   5.523  17.478  0.00  0.00    +0.000 A 
ATOM      8  C   UNL     1       6.753   5.880  16.134  0.00  0.00    +0.000 A 
ATOM      9  C   UNL     1       5.647   6.354  15.422  0.00  0.00    +0.000 A 
ATOM     10  C   UNL     1       4.463   6.656  16.092  0.00  0.00    +0.000 A 
ATOM     11  C   UNL     1       4.393   6.455  17.467  0.00  0.00    +0.000 A 
ENDROOT
BRANCH   3  12
ATOM     12  C   UNL     1       2.622   4.382  19.080  0.00  0.00    +0.000 A 
ATOM     13  C   UNL     1       1.336   4.250  19.616  0.00  0.00    +0.000 A 
ATOM     14  C   UNL     1       0.656   3.033  19.468  0.00  0.00    +0.000 A 
ATOM     15  C   UNL     1       1.226   1.982  18.747  0.00  0.00    +0.000 A 
ATOM     16  C   UNL     1       2.414   2.181  18.055  0.00  0.00    +0.000 A 
ATOM     17  C   UNL     1       3.073   3.400  18.168  0.00  0.00    +0.000 A 
ENDBRANCH   3  12
BRANCH   1  19
ATOM     18  N   UNL     1       1.671   8.626  18.966  0.00  0.00    +0.000 N 
ATOM     19  C   UNL     1       2.573   8.258  17.991  0.00  0.00    +0.000 C 
ATOM     20  O   UNL     1       2.781   8.798  16.925  0.00  0.00    +0.000 OA
ATOM     21  H   UNL     1       1.737   8.104  19.835  0.00  0.00    +0.000 HD
BRANCH  18  26
ATOM     22  C   UNL     1      -1.249  10.663  18.050  0.00  0.00    +0.000 A 
ATOM     23  C   UNL     1      -1.081  11.800  18.842  0.00  0.00    +0.000 A 
ATOM     24  C   UNL     1       0.060  11.918  19.628  0.00  0.00    +0.000 A 
ATOM     25  C   UNL     1       0.996  10.886  19.650  0.00  0.00    +0.000 A 
ATOM     26  C   UNL     1       0.804   9.721  18.894  0.00  0.00    +0.000 A 
ATOM     27  C   UNL     1      -0.305   9.629  18.061  0.00  0.00    +0.000 A 
BRANCH  22  28
ATOM     28  S   UNL     1      -2.738  10.474  17.108  0.00  0.00    +0.000 S 
ATOM     29  O   UNL     1      -3.541   9.435  17.701  0.00  0.00    +0.000 OA
ATOM     30  O   UNL     1      -2.413  10.503  15.703  0.00  0.00    +0.000 OA
BRANCH  28  31
ATOM     31  N   UNL     1      -3.528  11.920  17.424  0.00  0.00    +0.000 NA
ATOM     32  H   UNL     1      -3.807  12.349  16.542  0.00  0.00    +0.000 HD
ATOM     33  H   UNL     1      -2.935  12.518  18.001  0.00  0.00    +0.000 HD
ENDBRANCH  28  31
ENDBRANCH  22  28
ENDBRANCH  18  26
ENDBRANCH   1  19
TORSDOF 5
ENDMDL
MODEL 7
REMARK VINA RESULT:      -9.0      2.174      2.639
REMARK  Name = 
REMARK  5 active torsions:
REMARK  status: ('A' for Active; 'I' for Inactive)
REMARK    1  A    between atoms: N_1  and  S_2
REMARK    2  A    between atoms: S_2  and  C_5
REMARK    3  A    between atoms: C_9  and  N_10
REMARK    4  A    between atoms: C_11  and  C_13
REMARK    5  A    between atoms: N_15  and  C_16
REMARK                            x       y       z     vdW  Elec       q    Type
REMARK                         _______ _______ _______ _____ _____    ______ ____
ROOT
ATOM      1  C   UNL     1       2.567   6.832  18.601  0.00  0.00    +0.000 A 
ATOM      2  N   UNL     1       3.192   6.952  17.457  0.00  0.00    +0.000 NA
ATOM      3  N   UNL     1       4.116   5.913  17.215  0.00  0.00    +0.000 N 
ATOM      4  C   UNL     1       3.577   4.608  17.312  0.00  0.00    +0.000 A 
ATOM      5  O   UNL     1       3.915   3.644  16.634  0.00  0.00    +0.000 OA
ATOM      6  C   UNL     1       2.655   4.428  18.477  0.00  0.00    +0.000 A 
ATOM      7  C   UNL     1       2.167   3.185  18.868  0.00  0.00    +0.000 A 
ATOM      8  C   UNL     1       1.677   3.027  20.166  0.00  0.00    +0.000 A 
ATOM      9  C   UNL     1       1.763   4.082  21.079  0.00  0.00    +0.000 A 
ATOM     10  C   UNL     1       2.156   5.348  20.648  0.00  0.00    +0.000 A 
ATOM     11  C   UNL     1       2.483   5.535  19.309  0.00  0.00    +0.000 A 
ENDROOT
BRANCH   3  12
ATOM     12  C   UNL     1       5.296   6.244  18.035  0.00  0.00    +0.000 A 
ATOM     13  C   UNL     1       6.246   7.181  17.612  0.00  0.00    +0.000 A 
ATOM     14  C   UNL     1       7.590   6.995  17.962  0.00  0.00    +0.000 A 
ATOM     15  C   UNL     1       7.975   5.923  18.770  0.00  0.00    +0.000 A 
ATOM     16  C   UNL     1       7.008   5.108  19.345  0.00  0.00    +0.000 A 
ATOM     17  C   UNL     1       5.669   5.312  19.031  0.00  0.00    +0.000 A 
ENDBRANCH   3  12
BRANCH   1  19
ATOM     18  N   UNL     1       1.503   8.953  18.166  0.00  0.00    +0.000 N 
ATOM     19  C   UNL     1       1.892   8.078  19.157  0.00  0.00    +0.000 C 
ATOM     20  O   UNL     1       1.735   8.190  20.356  0.00  0.00    +0.000 OA
ATOM     21  H   UNL     1       1.629   8.614  17.217  0.00  0.00    +0.000 HD
BRANCH  18  26
ATOM     22  C   UNL     1       0.977  12.544  18.757  0.00  0.00    +0.000 A 
ATOM     23  C   UNL     1      -0.405  12.671  18.613  0.00  0.00    +0.000 A 
ATOM     24  C   UNL     1      -1.174  11.533  18.395  0.00  0.00    +0.000 A 
ATOM     25  C   UNL     1      -0.554  10.290  18.280  0.00  0.00    +0.000 A 
ATOM     26  C   UNL     1       0.840  10.166  18.374  0.00  0.00    +0.000 A 
ATOM     27  C   UNL     1       1.602  11.294  18.653  0.00  0.00    +0.000 A 
BRANCH  22  28
ATOM     28  S   UNL     1       1.967  13.999  18.955  0.00  0.00    +0.000 S 
ATOM     29  O   UNL     1       2.756  13.873  20.155  0.00  0.00    +0.000 OA
ATOM     30  O   UNL     1       1.159  15.160  18.671  0.00  0.00    +0.000 OA
BRANCH  28  31
ATOM     31  N   UNL     1       3.037  13.862  17.670  0.00  0.00    +0.000 NA
ATOM     32  H   UNL     1       3.763  13.187  17.909  0.00  0.00    +0.000 HD
ATOM     33  H   UNL     1       3.401  14.784  17.424  0.00  0.00    +0.000 HD
ENDBRANCH  28  31
ENDBRANCH  22  28
ENDBRANCH  18  26
ENDBRANCH   1  19
TORSDOF 5
ENDMDL
MODEL 8
REMARK VINA RESULT:      -8.9      2.210      2.574
REMARK  Name = 
REMARK  5 active torsions:
REMARK  status: ('A' for Active; 'I' for Inactive)
REMARK    1  A    between atoms: N_1  and  S_2
REMARK    2  A    between atoms: S_2  and  C_5
REMARK    3  A    between atoms: C_9  and  N_10
REMARK    4  A    between atoms: C_11  and  C_13
REMARK    5  A    between atoms: N_15  and  C_16
REMARK                            x       y       z     vdW  Elec       q    Type
REMARK                         _______ _______ _______ _____ _____    ______ ____
ROOT
ATOM      1  C   UNL     1       2.814   7.214  17.925  0.00  0.00    +0.000 A 
ATOM      2  N   UNL     1       3.595   7.045  16.887  0.00  0.00    +0.000 NA
ATOM      3  N   UNL     1       4.452   5.929  17.011  0.00  0.00    +0.000 N 
ATOM      4  C   UNL     1       3.796   4.710  17.300  0.00  0.00    +0.000 A 
ATOM      5  O   UNL     1       4.139   3.602  16.899  0.00  0.00    +0.000 OA
ATOM      6  C   UNL     1       2.714   4.841  18.326  0.00  0.00    +0.000 A 
ATOM      7  C   UNL     1       2.076   3.742  18.893  0.00  0.00    +0.000 A 
ATOM      8  C   UNL     1       1.405   3.902  20.107  0.00  0.00    +0.000 A 
ATOM      9  C   UNL     1       1.456   5.127  20.780  0.00  0.00    +0.000 A 
ATOM     10  C   UNL     1       2.009   6.243  20.154  0.00  0.00    +0.000 A 
ATOM     11  C   UNL     1       2.527   6.112  18.870  0.00  0.00    +0.000 A 
ENDROOT
BRANCH   3  12
ATOM     12  C   UNL     1       5.535   6.370  17.909  0.00  0.00    +0.000 A 
ATOM     13  C   UNL     1       6.456   7.351  17.524  0.00  0.00    +0.000 A 
ATOM     14  C   UNL     1       7.775   7.270  17.990  0.00  0.00    +0.000 A 
ATOM     15  C   UNL     1       8.157   6.257  18.874  0.00  0.00    +0.000 A 
ATOM     16  C   UNL     1       7.199   5.403  19.404  0.00  0.00    +0.000 A 
ATOM     17  C   UNL     1       5.881   5.505  18.972  0.00  0.00    +0.000 A 
ENDBRANCH   3  12
BRANCH   1  19
ATOM     18  N   UNL     1       1.024   8.540  18.850  0.00  0.00    +0.000 N 
ATOM     19  C   UNL     1       2.179   8.586  18.099  0.00  0.00    +0.000 C 
ATOM     20  O   UNL     1       2.717   9.560  17.615  0.00  0.00    +0.000 OA
ATOM     21  H   UNL     1       0.809   7.635  19.256  0.00  0.00    +0.000 HD
BRANCH  18  26
ATOM     22  C   UNL     1      -0.716  11.027  20.925  0.00  0.00    +0.000 A 
ATOM     23  C   UNL     1      -1.167  11.946  19.976  0.00  0.00    +0.000 A 
ATOM     24  C   UNL     1      -0.955  11.688  18.626  0.00  0.00    +0.000 A 
ATOM     25  C   UNL     1      -0.260  10.543  18.240  0.00  0.00    +0.000 A 
ATOM     26  C   UNL     1       0.239   9.645  19.195  0.00  0.00    +0.000 A 
ATOM     27  C   UNL     1      -0.026   9.871  20.540  0.00  0.00    +0.000 A 
BRANCH  22  28
ATOM     28  S   UNL     1      -0.914  11.391  22.647  0.00  0.00    +0.000 S 
ATOM     29  O   UNL     1      -0.170  10.430  23.421  0.00  0.00    +0.000 OA
ATOM     30  O   UNL     1      -2.299  11.698  22.907  0.00  0.00    +0.000 OA
BRANCH  28  31
ATOM     31  N   UNL     1      -0.091  12.846  22.786  0.00  0.00    +0.000 NA
ATOM     32  H   UNL     1      -0.749  13.580  23.049  0.00  0.00    +0.000 HD
ATOM     33  H   UNL     1       0.415  13.041  21.921  0.00  0.00    +0.000 HD
ENDBRANCH  28  31
ENDBRANCH  22  28
ENDBRANCH  18  26
ENDBRANCH   1  19
TORSDOF 5
ENDMDL
MODEL 9
REMARK VINA RESULT:      -8.8      3.044      8.321
REMARK  Name = 
REMARK  5 active torsions:
REMARK  status: ('A' for Active; 'I' for Inactive)
REMARK    1  A    between atoms: N_1  and  S_2
REMARK    2  A    between atoms: S_2  and  C_5
REMARK    3  A    between atoms: C_9  and  N_10
REMARK    4  A    between atoms: C_11  and  C_13
REMARK    5  A    between atoms: N_15  and  C_16
REMARK                            x       y       z     vdW  Elec       q    Type
REMARK                         _______ _______ _______ _____ _____    ______ ____
ROOT
ATOM      1  C   UNL     1       0.542  10.139  19.662  0.00  0.00    +0.000 A 
ATOM      2  N   UNL     1       0.576  10.864  18.571  0.00  0.00    +0.000 NA
ATOM      3  N   UNL     1      -0.498  11.776  18.474  0.00  0.00    +0.000 N 
ATOM      4  C   UNL     1      -0.651  12.629  19.592  0.00  0.00    +0.000 A 
ATOM      5  O   UNL     1      -1.037  13.793  19.553  0.00  0.00    +0.000 OA
ATOM      6  C   UNL     1      -0.479  11.932  20.904  0.00  0.00    +0.000 A 
ATOM      7  C   UNL     1      -0.773  12.536  22.123  0.00  0.00    +0.000 A 
ATOM      8  C   UNL     1      -0.996  11.731  23.242  0.00  0.00    +0.000 A 
ATOM      9  C   UNL     1      -1.013  10.339  23.110  0.00  0.00    +0.000 A 
ATOM     10  C   UNL     1      -0.617   9.748  21.911  0.00  0.00    +0.000 A 
ATOM     11  C   UNL     1      -0.233  10.560  20.850  0.00  0.00    +0.000 A 
ENDROOT
BRANCH   3  12
ATOM     12  C   UNL     1      -1.656  10.967  18.049  0.00  0.00    +0.000 A 
ATOM     13  C   UNL     1      -1.547   9.998  17.045  0.00  0.00    +0.000 A 
ATOM     14  C   UNL     1      -2.639   9.767  16.198  0.00  0.00    +0.000 A 
ATOM     15  C   UNL     1      -3.843  10.451  16.385  0.00  0.00    +0.000 A 
ATOM     16  C   UNL     1      -4.010  11.267  17.496  0.00  0.00    +0.000 A 
ATOM     17  C   UNL     1      -2.940  11.469  18.361  0.00  0.00    +0.000 A 
ENDBRANCH   3  12
BRANCH   1  19
ATOM     18  N   UNL     1       1.815   8.514  18.415  0.00  0.00    +0.000 N 
ATOM     19  C   UNL     1       1.367   8.861  19.671  0.00  0.00    +0.000 C 
ATOM     20  O   UNL     1       1.578   8.292  20.722  0.00  0.00    +0.000 OA
ATOM     21  H   UNL     1       1.620   9.192  17.684  0.00  0.00    +0.000 HD
BRANCH  18  26
ATOM     22  C   UNL     1       2.873   5.008  18.094  0.00  0.00    +0.000 A 
ATOM     23  C   UNL     1       4.072   5.120  17.387  0.00  0.00    +0.000 A 
ATOM     24  C   UNL     1       4.568   6.384  17.087  0.00  0.00    +0.000 A 
ATOM     25  C   UNL     1       3.844   7.518  17.454  0.00  0.00    +0.000 A 
ATOM     26  C   UNL     1       2.614   7.405  18.118  0.00  0.00    +0.000 A 
ATOM     27  C   UNL     1       2.149   6.145  18.474  0.00  0.00    +0.000 A 
BRANCH  22  28
ATOM     28  S   UNL     1       2.200   3.400  18.409  0.00  0.00    +0.000 S 
ATOM     29  O   UNL     1       2.207   2.638  17.186  0.00  0.00    +0.000 OA
ATOM     30  O   UNL     1       1.026   3.535  19.237  0.00  0.00    +0.000 OA
BRANCH  28  31
ATOM     31  N   UNL     1       3.377   2.723  19.394  0.00  0.00    +0.000 NA
ATOM     32  H   UNL     1       2.962   1.973  19.946  0.00  0.00    +0.000 HD
ATOM     33  H   UNL     1       3.816   3.452  19.958  0.00  0.00    +0.000 HD
ENDBRANCH  28  31
ENDBRANCH  22  28
ENDBRANCH  18  26
ENDBRANCH   1  19
TORSDOF 5
ENDMDL
