MODEL 1
REMARK VINA RESULT:      -9.2      0.000      0.000
REMARK  Name = 
REMARK  6 active torsions:
REMARK  status: ('A' for Active; 'I' for Inactive)
REMARK    1  A    between atoms: C_1  and  O_2
REMARK    2  A    between atoms: O_2  and  C_3
REMARK    3  A    between atoms: C_3  and  C_5
REMARK    4  A    between atoms: C_9  and  N_10
REMARK    5  A    between atoms: C_11  and  C_13
REMARK    6  A    between atoms: C_15  and  C_16
REMARK                            x       y       z     vdW  Elec       q    Type
REMARK                         _______ _______ _______ _____ _____    ______ ____
ROOT
ATOM      1  C   UNL     1       2.854   6.237  19.039  0.00  0.00    +0.000 A 
ATOM      2  C   UNL     1       3.738   6.284  17.941  0.00  0.00    +0.000 A 
ATOM      3  C   UNL     1       4.356   5.122  17.483  0.00  0.00    +0.000 A 
ATOM      4  N   UNL     1       4.008   3.926  18.006  0.00  0.00    +0.000 NA
ATOM      5  C   UNL     1       3.058   3.850  18.947  0.00  0.00    +0.000 A 
ATOM      6  C   UNL     1       2.592   2.584  19.265  0.00  0.00    +0.000 A 
ATOM      7  C   UNL     1       1.559   2.392  20.180  0.00  0.00    +0.000 A 
ATOM      8  C   UNL     1       1.032   3.482  20.856  0.00  0.00    +0.000 A 
ATOM      9  C   UNL     1       1.488   4.766  20.559  0.00  0.00    +0.000 A 
ATOM     10  C   UNL     1       2.469   4.980  19.559  0.00  0.00    +0.000 A 
ENDROOT
BRANCH   3  11
ATOM     11  C   UNL     1       5.406   5.063  16.427  0.00  0.00    +0.000 A 
ATOM     12  C   UNL     1       5.242   4.373  15.217  0.00  0.00    +0.000 A 
ATOM     13  C   UNL     1       6.255   4.398  14.263  0.00  0.00    +0.000 A 
ATOM     14  N   UNL     1       7.425   5.049  14.415  0.00  0.00    +0.000 NA
ATOM     15  C   UNL     1       7.593   5.703  15.579  0.00  0.00    +0.000 A 
ATOM     16  C   UNL     1       6.638   5.732  16.589  0.00  0.00    +0.000 A 
ENDBRANCH   3  11
BRANCH   1  18
ATOM     17  N   UNL     1       1.777   7.775  20.695  0.00  0.00    +0.000 N 
ATOM     18  C   UNL     1       2.136   7.509  19.372  0.00  0.00    +0.000 C 
ATOM     19  O   UNL     1       1.965   8.279  18.429  0.00  0.00    +0.000 OA
ATOM     20  H   UNL     1       2.185   7.202  21.427  0.00  0.00    +0.000 HD
BRANCH  17  25
ATOM     21  C   UNL     1      -0.490  10.805  20.592  0.00  0.00    +0.000 A 
ATOM     22  C   UNL     1      -0.770  10.974  21.953  0.00  0.00    +0.000 A 
ATOM     23  C   UNL     1      -0.212  10.112  22.886  0.00  0.00    +0.000 A 
ATOM     24  C   UNL     1       0.621   9.067  22.472  0.00  0.00    +0.000 A 
ATOM     25  C   UNL     1       0.924   8.853  21.119  0.00  0.00    +0.000 A 
ATOM     26  C   UNL     1       0.376   9.755  20.181  0.00  0.00    +0.000 A 
BRANCH  21  27
ATOM     27  C   UNL     1      -1.125  11.709  19.578  0.00  0.00    +0.000 C 
ATOM     28  O   UNL     1      -1.564  12.817  19.840  0.00  0.00    +0.000 OA
BRANCH  27  30
ATOM     29  C   UNL     1      -2.209  11.427  17.481  0.00  0.00    +0.000 C 
ATOM     30  O   UNL     1      -1.107  11.130  18.347  0.00  0.00    +0.000 OA
ENDBRANCH  27  30
ENDBRANCH  21  27
ENDBRANCH  17  25
ENDBRANCH   1  18
TORSDOF 5
ENDMDL
MODEL 2
REMARK VINA RESULT:      -9.1      0.587      1.096
REMARK  Name = 
REMARK  6 active torsions:
REMARK  status: ('A' for Active; 'I' for Inactive)
REMARK    1  A    between atoms: C_1  and  O_2
REMARK    2  A    between atoms: O_2  and  C_3
REMARK    3  A    between atoms: C_3  and  C_5
REMARK    4  A    between atoms: C_9  and  N_10
REMARK    5  A    between atoms: C_11  and  C_13
REMARK    6  A    between atoms: C_15  and  C_16
REMARK                            x       y       z     vdW  Elec       q    Type
REMARK                         _______ _______ _______ _____ _____    ______ ____
ROOT
ATOM      1  C   UNL     1       2.836   6.263  19.058  0.00  0.00    +0.000 A 
ATOM      2  C   UNL     1       3.723   6.338  17.963  0.00  0.00    +0.000 A 
ATOM      3  C   UNL     1       4.356   5.190  17.489  0.00  0.00    +0.000 A 
ATOM      4  N   UNL     1       4.019   3.982  17.991  0.00  0.00    +0.000 NA
ATOM      5  C   UNL     1       3.067   3.880  18.927  0.00  0.00    +0.000 A 
ATOM      6  C   UNL     1       2.615   2.604  19.223  0.00  0.00    +0.000 A 
ATOM      7  C   UNL     1       1.581   2.385  20.131  0.00  0.00    +0.000 A 
ATOM      8  C   UNL     1       1.039   3.458  20.822  0.00  0.00    +0.000 A 
ATOM      9  C   UNL     1       1.482   4.752  20.549  0.00  0.00    +0.000 A 
ATOM     10  C   UNL     1       2.463   4.993  19.556  0.00  0.00    +0.000 A 
ENDROOT
BRANCH   3  11
ATOM     11  C   UNL     1       5.410   5.160  16.436  0.00  0.00    +0.000 A 
ATOM     12  C   UNL     1       6.649   5.805  16.568  0.00  0.00    +0.000 A 
ATOM     13  C   UNL     1       7.598   5.697  15.556  0.00  0.00    +0.000 A 
ATOM     14  N   UNL     1       7.414   5.005  14.415  0.00  0.00    +0.000 NA
ATOM     15  C   UNL     1       6.222   4.394  14.276  0.00  0.00    +0.000 A 
ATOM     16  C   UNL     1       5.215   4.447  15.234  0.00  0.00    +0.000 A 
ENDBRANCH   3  11
BRANCH   1  18
ATOM     17  N   UNL     1       1.787   7.789  20.743  0.00  0.00    +0.000 N 
ATOM     18  C   UNL     1       2.102   7.521  19.409  0.00  0.00    +0.000 C 
ATOM     19  O   UNL     1       1.879   8.280  18.468  0.00  0.00    +0.000 OA
ATOM     20  H   UNL     1       2.234   7.231  21.462  0.00  0.00    +0.000 HD
BRANCH  17  25
ATOM     21  C   UNL     1      -0.480  10.820  20.711  0.00  0.00    +0.000 A 
ATOM     22  C   UNL     1      -0.783  10.940  22.072  0.00  0.00    +0.000 A 
ATOM     23  C   UNL     1      -0.240  10.044  22.983  0.00  0.00    +0.000 A 
ATOM     24  C   UNL     1       0.600   9.015  22.545  0.00  0.00    +0.000 A 
ATOM     25  C   UNL     1       0.926   8.851  21.191  0.00  0.00    +0.000 A 
ATOM     26  C   UNL     1       0.394   9.786  20.277  0.00  0.00    +0.000 A 
BRANCH  21  27
ATOM     27  C   UNL     1      -1.098  11.761  19.720  0.00  0.00    +0.000 C 
ATOM     28  O   UNL     1      -2.280  12.065  19.722  0.00  0.00    +0.000 OA
BRANCH  27  30
ATOM     29  C   UNL     1      -0.283  13.602  18.457  0.00  0.00    +0.000 C 
ATOM     30  O   UNL     1      -0.155  12.234  18.861  0.00  0.00    +0.000 OA
ENDBRANCH  27  30
ENDBRANCH  21  27
ENDBRANCH  17  25
ENDBRANCH   1  18
TORSDOF 5
ENDMDL
MODEL 3
REMARK VINA RESULT:      -9.0      1.146      1.791
REMARK  Name = 
REMARK  6 active torsions:
REMARK  status: ('A' for Active; 'I' for Inactive)
REMARK    1  A    between atoms: C_1  and  O_2
REMARK    2  A    between atoms: O_2  and  C_3
REMARK    3  A    between atoms: C_3  and  C_5
REMARK    4  A    between atoms: C_9  and  N_10
REMARK    5  A    between atoms: C_11  and  C_13
REMARK    6  A    between atoms: C_15  and  C_16
REMARK                            x       y       z     vdW  Elec       q    Type
REMARK                         _______ _______ _______ _____ _____    ______ ____
ROOT
ATOM      1  C   UNL     1       2.782   6.258  19.099  0.00  0.00    +0.000 A 
ATOM      2  C   UNL     1       3.691   6.364  18.024  0.00  0.00    +0.000 A 
ATOM      3  C   UNL     1       4.305   5.225  17.507  0.00  0.00    +0.000 A 
ATOM      4  N   UNL     1       3.932   4.003  17.944  0.00  0.00    +0.000 NA
ATOM      5  C   UNL     1       2.960   3.879  18.857  0.00  0.00    +0.000 A 
ATOM      6  C   UNL     1       2.473   2.602  19.084  0.00  0.00    +0.000 A 
ATOM      7  C   UNL     1       1.417   2.365  19.962  0.00  0.00    +0.000 A 
ATOM      8  C   UNL     1       0.888   3.417  20.695  0.00  0.00    +0.000 A 
ATOM      9  C   UNL     1       1.366   4.711  20.491  0.00  0.00    +0.000 A 
ATOM     10  C   UNL     1       2.370   4.975  19.528  0.00  0.00    +0.000 A 
ENDROOT
BRANCH   3  11
ATOM     11  C   UNL     1       5.378   5.220  16.472  0.00  0.00    +0.000 A 
ATOM     12  C   UNL     1       6.574   5.942  16.600  0.00  0.00    +0.000 A 
ATOM     13  C   UNL     1       7.545   5.855  15.607  0.00  0.00    +0.000 A 
ATOM     14  N   UNL     1       7.423   5.111  14.490  0.00  0.00    +0.000 NA
ATOM     15  C   UNL     1       6.273   4.426  14.355  0.00  0.00    +0.000 A 
ATOM     16  C   UNL     1       5.248   4.453  15.295  0.00  0.00    +0.000 A 
ENDBRANCH   3  11
BRANCH   1  18
ATOM     17  N   UNL     1       1.910   7.820  20.850  0.00  0.00    +0.000 N 
ATOM     18  C   UNL     1       2.071   7.515  19.497  0.00  0.00    +0.000 C 
ATOM     19  O   UNL     1       1.725   8.241  18.567  0.00  0.00    +0.000 OA
ATOM     20  H   UNL     1       2.448   7.291  21.528  0.00  0.00    +0.000 HD
BRANCH  17  25
ATOM     21  C   UNL     1       0.383  11.247  21.357  0.00  0.00    +0.000 A 
ATOM     22  C   UNL     1      -0.542  10.978  22.373  0.00  0.00    +0.000 A 
ATOM     23  C   UNL     1      -0.652   9.693  22.886  0.00  0.00    +0.000 A 
ATOM     24  C   UNL     1       0.152   8.663  22.386  0.00  0.00    +0.000 A 
ATOM     25  C   UNL     1       1.088   8.882  21.365  0.00  0.00    +0.000 A 
ATOM     26  C   UNL     1       1.213  10.199  20.871  0.00  0.00    +0.000 A 
BRANCH  21  27
ATOM     27  C   UNL     1       0.474  12.624  20.771  0.00  0.00    +0.000 C 
ATOM     28  O   UNL     1      -0.075  12.956  19.733  0.00  0.00    +0.000 OA
BRANCH  27  30
ATOM     29  C   UNL     1       0.649  14.705  21.908  0.00  0.00    +0.000 C 
ATOM     30  O   UNL     1       1.218  13.433  21.572  0.00  0.00    +0.000 OA
ENDBRANCH  27  30
ENDBRANCH  21  27
ENDBRANCH  17  25
ENDBRANCH   1  18
TORSDOF 5
ENDMDL
MODEL 4
REMARK VINA RESULT:      -9.0      1.760      1.903
REMARK  Name = 
REMARK  6 active torsions:
REMARK  status: ('A' for Active; 'I' for Inactive)
REMARK    1  A    between atoms: C_1  and  O_2
REMARK    2  A    between atoms: O_2  and  C_3
REMARK    3  A    between atoms: C_3  and  C_5
REMARK    4  A    between atoms: C_9  and  N_10
REMARK    5  A    between atoms: C_11  and  C_13
REMARK    6  A    between atoms: C_15  and  C_16
REMARK                            x       y       z     vdW  Elec       q    Type
REMARK                         _______ _______ _______ _____ _____    ______ ____
ROOT
ATOM      1  C   UNL     1       2.816   6.349  18.924  0.00  0.00    +0.000 A 
ATOM      2  C   UNL     1       3.713   6.384  17.836  0.00  0.00    +0.000 A 
ATOM      3  C   UNL     1       4.357   5.221  17.415  0.00  0.00    +0.000 A 
ATOM      4  N   UNL     1       4.022   4.033  17.964  0.00  0.00    +0.000 NA
ATOM      5  C   UNL     1       3.061   3.964  18.894  0.00  0.00    +0.000 A 
ATOM      6  C   UNL     1       2.614   2.699  19.238  0.00  0.00    +0.000 A 
ATOM      7  C   UNL     1       1.572   2.511  20.146  0.00  0.00    +0.000 A 
ATOM      8  C   UNL     1       1.019   3.609  20.787  0.00  0.00    +0.000 A 
ATOM      9  C   UNL     1       1.456   4.893  20.464  0.00  0.00    +0.000 A 
ATOM     10  C   UNL     1       2.446   5.098  19.471  0.00  0.00    +0.000 A 
ENDROOT
BRANCH   3  11
ATOM     11  C   UNL     1       5.421   5.154  16.374  0.00  0.00    +0.000 A 
ATOM     12  C   UNL     1       5.316   4.369  15.216  0.00  0.00    +0.000 A 
ATOM     13  C   UNL     1       6.336   4.390  14.270  0.00  0.00    +0.000 A 
ATOM     14  N   UNL     1       7.460   5.125  14.383  0.00  0.00    +0.000 NA
ATOM     15  C   UNL     1       7.572   5.872  15.497  0.00  0.00    +0.000 A 
ATOM     16  C   UNL     1       6.605   5.913  16.495  0.00  0.00    +0.000 A 
ENDBRANCH   3  11
BRANCH   1  18
ATOM     17  N   UNL     1       1.568   8.381  18.162  0.00  0.00    +0.000 N 
ATOM     18  C   UNL     1       2.072   7.616  19.216  0.00  0.00    +0.000 C 
ATOM     19  O   UNL     1       1.901   7.863  20.408  0.00  0.00    +0.000 OA
ATOM     20  H   UNL     1       1.541   7.964  17.238  0.00  0.00    +0.000 HD
BRANCH  17  25
ATOM     21  C   UNL     1      -0.934  11.219  18.275  0.00  0.00    +0.000 A 
ATOM     22  C   UNL     1      -0.094  12.303  18.560  0.00  0.00    +0.000 A 
ATOM     23  C   UNL     1       1.272  12.101  18.700  0.00  0.00    +0.000 A 
ATOM     24  C   UNL     1       1.812  10.817  18.569  0.00  0.00    +0.000 A 
ATOM     25  C   UNL     1       1.010   9.701  18.292  0.00  0.00    +0.000 A 
ATOM     26  C   UNL     1      -0.374   9.922  18.120  0.00  0.00    +0.000 A 
BRANCH  21  27
ATOM     27  C   UNL     1      -2.415  11.428  18.165  0.00  0.00    +0.000 C 
ATOM     28  O   UNL     1      -3.085  11.986  19.018  0.00  0.00    +0.000 OA
BRANCH  27  30
ATOM     29  C   UNL     1      -4.266  11.149  16.699  0.00  0.00    +0.000 C 
ATOM     30  O   UNL     1      -2.877  10.939  16.983  0.00  0.00    +0.000 OA
ENDBRANCH  27  30
ENDBRANCH  21  27
ENDBRANCH  17  25
ENDBRANCH   1  18
TORSDOF 5
ENDMDL
MODEL 5
REMARK VINA RESULT:      -9.0      0.972      1.102
REMARK  Name = 
REMARK  6 active torsions:
REMARK  status: ('A' for Active; 'I' for Inactive)
REMARK    1  A    between atoms: C_1  and  O_2
REMARK    2  A    between atoms: O_2  and  C_3
REMARK    3  A    between atoms: C_3  and  C_5
REMARK    4  A    between atoms: C_9  and  N_10
REMARK    5  A    between atoms: C_11  and  C_13
REMARK    6  A    between atoms: C_15  and  C_16
REMARK                            x       y       z     vdW  Elec       q    Type
REMARK                         _______ _______ _______ _____ _____    ______ ____
ROOT
ATOM      1  C   UNL     1       2.820   6.197  19.073  0.00  0.00    +0.000 A 
ATOM      2  C   UNL     1       3.726   6.285  17.996  0.00  0.00    +0.000 A 
ATOM      3  C   UNL     1       4.316   5.135  17.475  0.00  0.00    +0.000 A 
ATOM      4  N   UNL     1       3.919   3.920  17.912  0.00  0.00    +0.000 NA
ATOM      5  C   UNL     1       2.948   3.815  18.828  0.00  0.00    +0.000 A 
ATOM      6  C   UNL     1       2.436   2.547  19.054  0.00  0.00    +0.000 A 
ATOM      7  C   UNL     1       1.379   2.331  19.937  0.00  0.00    +0.000 A 
ATOM      8  C   UNL     1       0.874   3.392  20.672  0.00  0.00    +0.000 A 
ATOM      9  C   UNL     1       1.377   4.677  20.469  0.00  0.00    +0.000 A 
ATOM     10  C   UNL     1       2.384   4.922  19.502  0.00  0.00    +0.000 A 
ENDROOT
BRANCH   3  11
ATOM     11  C   UNL     1       5.385   5.109  16.435  0.00  0.00    +0.000 A 
ATOM     12  C   UNL     1       5.297   4.348  15.261  0.00  0.00    +0.000 A 
ATOM     13  C   UNL     1       6.320   4.407  14.319  0.00  0.00    +0.000 A 
ATOM     14  N   UNL     1       7.430   5.160  14.451  0.00  0.00    +0.000 NA
ATOM     15  C   UNL     1       7.525   5.884  15.582  0.00  0.00    +0.000 A 
ATOM     16  C   UNL     1       6.554   5.886  16.577  0.00  0.00    +0.000 A 
ENDBRANCH   3  11
BRANCH   1  18
ATOM     17  N   UNL     1       1.917   7.737  20.828  0.00  0.00    +0.000 N 
ATOM     18  C   UNL     1       2.136   7.467  19.475  0.00  0.00    +0.000 C 
ATOM     19  O   UNL     1       1.865   8.234  18.553  0.00  0.00    +0.000 OA
ATOM     20  H   UNL     1       2.400   7.167  21.514  0.00  0.00    +0.000 HD
BRANCH  17  25
ATOM     21  C   UNL     1       0.511  11.207  21.388  0.00  0.00    +0.000 A 
ATOM     22  C   UNL     1      -0.492  10.939  22.327  0.00  0.00    +0.000 A 
ATOM     23  C   UNL     1      -0.692   9.640  22.774  0.00  0.00    +0.000 A 
ATOM     24  C   UNL     1       0.097   8.596  22.282  0.00  0.00    +0.000 A 
ATOM     25  C   UNL     1       1.109   8.814  21.335  0.00  0.00    +0.000 A 
ATOM     26  C   UNL     1       1.325  10.143  20.910  0.00  0.00    +0.000 A 
BRANCH  21  27
ATOM     27  C   UNL     1       0.702  12.602  20.872  0.00  0.00    +0.000 C 
ATOM     28  O   UNL     1       0.933  13.563  21.588  0.00  0.00    +0.000 OA
BRANCH  27  30
ATOM     29  C   UNL     1      -0.593  13.166  18.960  0.00  0.00    +0.000 C 
ATOM     30  O   UNL     1       0.611  12.624  19.515  0.00  0.00    +0.000 OA
ENDBRANCH  27  30
ENDBRANCH  21  27
ENDBRANCH  17  25
ENDBRANCH   1  18
TORSDOF 5
ENDMDL
MODEL 6
REMARK VINA RESULT:      -8.9      1.657      2.031
REMARK  Name = 
REMARK  6 active torsions:
REMARK  status: ('A' for Active; 'I' for Inactive)
REMARK    1  A    between atoms: C_1  and  O_2
REMARK    2  A    between atoms: O_2  and  C_3
REMARK    3  A    between atoms: C_3  and  C_5
REMARK    4  A    between atoms: C_9  and  N_10
REMARK    5  A    between atoms: C_11  and  C_13
REMARK    6  A    between atoms: C_15  and  C_16
REMARK                            x       y       z     vdW  Elec       q    Type
REMARK                         _______ _______ _______ _____ _____    ______ ____
ROOT
ATOM      1  C   UNL     1       2.844   6.372  18.854  0.00  0.00    +0.000 A 
ATOM      2  C   UNL     1       3.741   6.392  17.765  0.00  0.00    +0.000 A 
ATOM      3  C   UNL     1       4.337   5.213  17.321  0.00  0.00    +0.000 A 
ATOM      4  N   UNL     1       3.955   4.029  17.846  0.00  0.00    +0.000 NA
ATOM      5  C   UNL     1       2.993   3.980  18.776  0.00  0.00    +0.000 A 
ATOM      6  C   UNL     1       2.494   2.728  19.096  0.00  0.00    +0.000 A 
ATOM      7  C   UNL     1       1.447   2.565  20.001  0.00  0.00    +0.000 A 
ATOM      8  C   UNL     1       0.938   3.671  20.664  0.00  0.00    +0.000 A 
ATOM      9  C   UNL     1       1.427   4.942  20.366  0.00  0.00    +0.000 A 
ATOM     10  C   UNL     1       2.423   5.127  19.376  0.00  0.00    +0.000 A 
ENDROOT
BRANCH   3  11
ATOM     11  C   UNL     1       5.397   5.124  16.277  0.00  0.00    +0.000 A 
ATOM     12  C   UNL     1       5.226   4.443  15.063  0.00  0.00    +0.000 A 
ATOM     13  C   UNL     1       6.250   4.438  14.121  0.00  0.00    +0.000 A 
ATOM     14  N   UNL     1       7.438   5.051  14.289  0.00  0.00    +0.000 NA
ATOM     15  C   UNL     1       7.613   5.696  15.457  0.00  0.00    +0.000 A 
ATOM     16  C   UNL     1       6.647   5.754  16.455  0.00  0.00    +0.000 A 
ENDBRANCH   3  11
BRANCH   1  18
ATOM     17  N   UNL     1       1.763   8.513  18.134  0.00  0.00    +0.000 N 
ATOM     18  C   UNL     1       2.152   7.662  19.171  0.00  0.00    +0.000 C 
ATOM     19  O   UNL     1       1.914   7.852  20.362  0.00  0.00    +0.000 OA
ATOM     20  H   UNL     1       1.777   8.150  17.187  0.00  0.00    +0.000 HD
BRANCH  17  25
ATOM     21  C   UNL     1      -0.603  11.427  18.627  0.00  0.00    +0.000 A 
ATOM     22  C   UNL     1       0.298  12.498  18.657  0.00  0.00    +0.000 A 
ATOM     23  C   UNL     1       1.658  12.263  18.507  0.00  0.00    +0.000 A 
ATOM     24  C   UNL     1       2.134  10.959  18.336  0.00  0.00    +0.000 A 
ATOM     25  C   UNL     1       1.271   9.854  18.306  0.00  0.00    +0.000 A 
ATOM     26  C   UNL     1      -0.113  10.106  18.429  0.00  0.00    +0.000 A 
BRANCH  21  27
ATOM     27  C   UNL     1      -2.068  11.673  18.831  0.00  0.00    +0.000 C 
ATOM     28  O   UNL     1      -2.945  10.995  18.321  0.00  0.00    +0.000 OA
BRANCH  27  30
ATOM     29  C   UNL     1      -3.501  12.753  20.389  0.00  0.00    +0.000 C 
ATOM     30  O   UNL     1      -2.260  12.723  19.673  0.00  0.00    +0.000 OA
ENDBRANCH  27  30
ENDBRANCH  21  27
ENDBRANCH  17  25
ENDBRANCH   1  18
TORSDOF 5
ENDMDL
MODEL 7
REMARK VINA RESULT:      -8.8      1.496      2.216
REMARK  Name = 
REMARK  6 active torsions:
REMARK  status: ('A' for Active; 'I' for Inactive)
REMARK    1  A    between atoms: C_1  and  O_2
REMARK    2  A    between atoms: O_2  and  C_3
REMARK    3  A    between atoms: C_3  and  C_5
REMARK    4  A    between atoms: C_9  and  N_10
REMARK    5  A    between atoms: C_11  and  C_13
REMARK    6  A    between atoms: C_15  and  C_16
REMARK                            x       y       z     vdW  Elec       q    Type
REMARK                         _______ _______ _______ _____ _____    ______ ____
ROOT
ATOM      1  C   UNL     1       2.758   5.865  18.912  0.00  0.00    +0.000 A 
ATOM      2  C   UNL     1       3.736   6.058  17.914  0.00  0.00    +0.000 A 
ATOM      3  C   UNL     1       4.252   4.970  17.213  0.00  0.00    +0.000 A 
ATOM      4  N   UNL     1       3.722   3.741  17.395  0.00  0.00    +0.000 NA
ATOM      5  C   UNL     1       2.689   3.567  18.230  0.00  0.00    +0.000 A 
ATOM      6  C   UNL     1       2.052   2.337  18.190  0.00  0.00    +0.000 A 
ATOM      7  C   UNL     1       0.927   2.069  18.966  0.00  0.00    +0.000 A 
ATOM      8  C   UNL     1       0.472   3.023  19.864  0.00  0.00    +0.000 A 
ATOM      9  C   UNL     1       1.100   4.266  19.929  0.00  0.00    +0.000 A 
ATOM     10  C   UNL     1       2.183   4.583  19.074  0.00  0.00    +0.000 A 
ENDROOT
BRANCH   3  11
ATOM     11  C   UNL     1       5.379   5.029  16.238  0.00  0.00    +0.000 A 
ATOM     12  C   UNL     1       5.362   4.364  15.003  0.00  0.00    +0.000 A 
ATOM     13  C   UNL     1       6.436   4.500  14.129  0.00  0.00    +0.000 A 
ATOM     14  N   UNL     1       7.533   5.240  14.385  0.00  0.00    +0.000 NA
ATOM     15  C   UNL     1       7.560   5.871  15.574  0.00  0.00    +0.000 A 
ATOM     16  C   UNL     1       6.534   5.792  16.508  0.00  0.00    +0.000 A 
ENDBRANCH   3  11
BRANCH   1  18
ATOM     17  N   UNL     1       1.726   8.134  18.683  0.00  0.00    +0.000 N 
ATOM     18  C   UNL     1       2.166   7.102  19.514  0.00  0.00    +0.000 C 
ATOM     19  O   UNL     1       2.051   7.089  20.738  0.00  0.00    +0.000 OA
ATOM     20  H   UNL     1       1.631   7.943  17.691  0.00  0.00    +0.000 HD
BRANCH  17  25
ATOM     21  C   UNL     1       0.197  10.890  20.779  0.00  0.00    +0.000 A 
ATOM     22  C   UNL     1       0.532  12.019  20.021  0.00  0.00    +0.000 A 
ATOM     23  C   UNL     1       1.240  11.870  18.836  0.00  0.00    +0.000 A 
ATOM     24  C   UNL     1       1.628  10.599  18.401  0.00  0.00    +0.000 A 
ATOM     25  C   UNL     1       1.321   9.440  19.130  0.00  0.00    +0.000 A 
ATOM     26  C   UNL     1       0.575   9.600  20.318  0.00  0.00    +0.000 A 
BRANCH  21  27
ATOM     27  C   UNL     1      -0.530  11.051  22.081  0.00  0.00    +0.000 C 
ATOM     28  O   UNL     1      -0.122  10.611  23.143  0.00  0.00    +0.000 OA
BRANCH  27  30
ATOM     29  C   UNL     1      -2.411  12.106  23.083  0.00  0.00    +0.000 C 
ATOM     30  O   UNL     1      -1.670  11.772  21.903  0.00  0.00    +0.000 OA
ENDBRANCH  27  30
ENDBRANCH  21  27
ENDBRANCH  17  25
ENDBRANCH   1  18
TORSDOF 5
ENDMDL
MODEL 8
REMARK VINA RESULT:      -8.8      2.913      8.648
REMARK  Name = 
REMARK  6 active torsions:
REMARK  status: ('A' for Active; 'I' for Inactive)
REMARK    1  A    between atoms: C_1  and  O_2
REMARK    2  A    between atoms: O_2  and  C_3
REMARK    3  A    between atoms: C_3  and  C_5
REMARK    4  A    between atoms: C_9  and  N_10
REMARK    5  A    between atoms: C_11  and  C_13
REMARK    6  A    between atoms: C_15  and  C_16
REMARK                            x       y       z     vdW  Elec       q    Type
REMARK                         _______ _______ _______ _____ _____    ______ ____
ROOT
ATOM      1  C   UNL     1       2.991   6.008  18.592  0.00  0.00    +0.000 A 
ATOM      2  C   UNL     1       2.529   7.250  19.074  0.00  0.00    +0.000 A 
ATOM      3  C   UNL     1       1.748   7.312  20.227  0.00  0.00    +0.000 A 
ATOM      4  N   UNL     1       1.544   6.196  20.960  0.00  0.00    +0.000 NA
ATOM      5  C   UNL     1       2.104   5.036  20.597  0.00  0.00    +0.000 A 
ATOM      6  C   UNL     1       2.044   3.998  21.513  0.00  0.00    +0.000 A 
ATOM      7  C   UNL     1       2.651   2.768  21.267  0.00  0.00    +0.000 A 
ATOM      8  C   UNL     1       3.263   2.540  20.044  0.00  0.00    +0.000 A 
ATOM      9  C   UNL     1       3.331   3.565  19.101  0.00  0.00    +0.000 A 
ATOM     10  C   UNL     1       2.803   4.850  19.382  0.00  0.00    +0.000 A 
ENDROOT
BRANCH   3  11
ATOM     11  C   UNL     1       1.090   8.541  20.757  0.00  0.00    +0.000 A 
ATOM     12  C   UNL     1       0.736   9.633  19.951  0.00  0.00    +0.000 A 
ATOM     13  C   UNL     1       0.088  10.728  20.514  0.00  0.00    +0.000 A 
ATOM     14  N   UNL     1      -0.233  10.831  21.818  0.00  0.00    +0.000 NA
ATOM     15  C   UNL     1       0.115   9.791  22.600  0.00  0.00    +0.000 A 
ATOM     16  C   UNL     1       0.764   8.657  22.125  0.00  0.00    +0.000 A 
ENDBRANCH   3  11
BRANCH   1  18
ATOM     17  N   UNL     1       4.204   4.885  16.711  0.00  0.00    +0.000 N 
ATOM     18  C   UNL     1       3.933   6.053  17.428  0.00  0.00    +0.000 C 
ATOM     19  O   UNL     1       4.365   7.168  17.143  0.00  0.00    +0.000 OA
ATOM     20  H   UNL     1       3.608   4.079  16.866  0.00  0.00    +0.000 HD
BRANCH  17  25
ATOM     21  C   UNL     1       5.972   3.926  13.504  0.00  0.00    +0.000 A 
ATOM     22  C   UNL     1       7.234   4.494  13.717  0.00  0.00    +0.000 A 
ATOM     23  C   UNL     1       7.498   5.169  14.900  0.00  0.00    +0.000 A 
ATOM     24  C   UNL     1       6.506   5.295  15.877  0.00  0.00    +0.000 A 
ATOM     25  C   UNL     1       5.225   4.750  15.707  0.00  0.00    +0.000 A 
ATOM     26  C   UNL     1       4.976   4.038  14.513  0.00  0.00    +0.000 A 
BRANCH  21  27
ATOM     27  C   UNL     1       5.671   3.232  12.210  0.00  0.00    +0.000 C 
ATOM     28  O   UNL     1       4.597   3.309  11.635  0.00  0.00    +0.000 OA
BRANCH  27  30
ATOM     29  C   UNL     1       6.512   1.320  11.075  0.00  0.00    +0.000 C 
ATOM     30  O   UNL     1       6.761   2.547  11.773  0.00  0.00    +0.000 OA
ENDBRANCH  27  30
ENDBRANCH  21  27
ENDBRANCH  17  25
ENDBRANCH   1  18
TORSDOF 5
ENDMDL
MODEL 9
REMARK VINA RESULT:      -8.8      2.094      2.748
REMARK  Name = 
REMARK  6 active torsions:
REMARK  status: ('A' for Active; 'I' for Inactive)
REMARK    1  A    between atoms: C_1  and  O_2
REMARK    2  A    between atoms: O_2  and  C_3
REMARK    3  A    between atoms: C_3  and  C_5
REMARK    4  A    between atoms: C_9  and  N_10
REMARK    5  A    between atoms: C_11  and  C_13
REMARK    6  A    between atoms: C_15  and  C_16
REMARK                            x       y       z     vdW  Elec       q    Type
REMARK                         _______ _______ _______ _____ _____    ______ ____
ROOT
ATOM      1  C   UNL     1       2.815   6.443  18.915  0.00  0.00    +0.000 A 
ATOM      2  C   UNL     1       3.718   6.483  17.832  0.00  0.00    +0.000 A 
ATOM      3  C   UNL     1       4.345   5.317  17.394  0.00  0.00    +0.000 A 
ATOM      4  N   UNL     1       3.987   4.125  17.919  0.00  0.00    +0.000 NA
ATOM      5  C   UNL     1       3.021   4.055  18.843  0.00  0.00    +0.000 A 
ATOM      6  C   UNL     1       2.550   2.791  19.161  0.00  0.00    +0.000 A 
ATOM      7  C   UNL     1       1.501   2.605  20.060  0.00  0.00    +0.000 A 
ATOM      8  C   UNL     1       0.962   3.700  20.718  0.00  0.00    +0.000 A 
ATOM      9  C   UNL     1       1.423   4.982  20.421  0.00  0.00    +0.000 A 
ATOM     10  C   UNL     1       2.420   5.189  19.437  0.00  0.00    +0.000 A 
ENDROOT
BRANCH   3  11
ATOM     11  C   UNL     1       5.414   5.252  16.357  0.00  0.00    +0.000 A 
ATOM     12  C   UNL     1       6.652   5.898  16.486  0.00  0.00    +0.000 A 
ATOM     13  C   UNL     1       7.614   5.756  15.491  0.00  0.00    +0.000 A 
ATOM     14  N   UNL     1       7.445   5.027  14.371  0.00  0.00    +0.000 NA
ATOM     15  C   UNL     1       6.255   4.414  14.236  0.00  0.00    +0.000 A 
ATOM     16  C   UNL     1       5.235   4.500  15.177  0.00  0.00    +0.000 A 
ENDBRANCH   3  11
BRANCH   1  18
ATOM     17  N   UNL     1       1.647   8.533  18.184  0.00  0.00    +0.000 N 
ATOM     18  C   UNL     1       2.090   7.716  19.226  0.00  0.00    +0.000 C 
ATOM     19  O   UNL     1       1.878   7.923  20.419  0.00  0.00    +0.000 OA
ATOM     20  H   UNL     1       1.648   8.152  17.244  0.00  0.00    +0.000 HD
BRANCH  17  25
ATOM     21  C   UNL     1       1.453  12.299  18.518  0.00  0.00    +0.000 A 
ATOM     22  C   UNL     1       0.071  12.484  18.643  0.00  0.00    +0.000 A 
ATOM     23  C   UNL     1      -0.778  11.385  18.628  0.00  0.00    +0.000 A 
ATOM     24  C   UNL     1      -0.259  10.095  18.478  0.00  0.00    +0.000 A 
ATOM     25  C   UNL     1       1.117   9.861  18.342  0.00  0.00    +0.000 A 
ATOM     26  C   UNL     1       1.974  10.982  18.389  0.00  0.00    +0.000 A 
BRANCH  21  27
ATOM     27  C   UNL     1       2.368  13.486  18.491  0.00  0.00    +0.000 C 
ATOM     28  O   UNL     1       3.544  13.427  18.171  0.00  0.00    +0.000 OA
BRANCH  27  30
ATOM     29  C   UNL     1       2.324  15.863  18.529  0.00  0.00    +0.000 C 
ATOM     30  O   UNL     1       1.694  14.615  18.840  0.00  0.00    +0.000 OA
ENDBRANCH  27  30
ENDBRANCH  21  27
ENDBRANCH  17  25
ENDBRANCH   1  18
TORSDOF 5
ENDMDL
