MODEL 1
REMARK VINA RESULT:      -8.2      0.000      0.000
REMARK  Name = 
REMARK  5 active torsions:
REMARK  status: ('A' for Active; 'I' for Inactive)
REMARK    1  A    between atoms: C_2  and  C_17
REMARK    2  A    between atoms: N_3  and  C_4
REMARK    3  A    between atoms: C_7  and  N_8
REMARK    4  A    between atoms: C_20  and  C_21
REMARK    5  A    between atoms: C_21  and  C_22
REMARK                            x       y       z     vdW  Elec       q    Type
REMARK                         _______ _______ _______ _____ _____    ______ ____
ROOT
ATOM      1  O   UNL     1       7.718   9.862  17.388  0.00  0.00    +0.000 OA
ATOM      2  C   UNL     1       8.498   9.516  18.273  0.00  0.00    +0.000 C 
ATOM      3  N   UNL     1       8.561   8.235  18.795  0.00  0.00    +0.000 N 
ATOM      4  H   UNL     1       9.136   8.112  19.618  0.00  0.00    +0.000 HD
ENDROOT
BRANCH   3   5
ATOM      5  C   UNL     1       7.791   7.133  18.376  0.00  0.00    +0.000 A 
ATOM      6  C   UNL     1       6.818   7.203  17.375  0.00  0.00    +0.000 A 
ATOM      7  C   UNL     1       6.043   6.087  17.047  0.00  0.00    +0.000 A 
ATOM      8  C   UNL     1       6.241   4.868  17.693  0.00  0.00    +0.000 A 
ATOM      9  C   UNL     1       7.238   4.798  18.677  0.00  0.00    +0.000 A 
ATOM     10  C   UNL     1       8.013   5.913  19.010  0.00  0.00    +0.000 A 
BRANCH   8  11
ATOM     11  N   UNL     1       5.426   3.772  17.395  0.00  0.00    +0.000 N 
ATOM     12  C   UNL     1       4.297   3.334  18.084  0.00  0.00    +0.000 A 
ATOM     13  N   UNL     1       3.402   2.607  17.398  0.00  0.00    +0.000 NA
ATOM     14  C   UNL     1       2.300   2.213  18.064  0.00  0.00    +0.000 A 
ATOM     15  C   UNL     1       2.099   2.441  19.402  0.00  0.00    +0.000 A 
ATOM     16  C   UNL     1       3.094   3.141  20.030  0.00  0.00    +0.000 A 
ATOM     17  N   UNL     1       4.174   3.616  19.392  0.00  0.00    +0.000 NA
ATOM     18  H   UNL     1       5.848   2.993  16.913  0.00  0.00    +0.000 HD
ENDBRANCH   8  11
ENDBRANCH   3   5
BRANCH   2  19
ATOM     19  C   UNL     1       9.392  10.491  18.877  0.00  0.00    +0.000 A 
ATOM     20  C   UNL     1       9.598  10.661  20.234  0.00  0.00    +0.000 A 
ATOM     21  N   UNL     1      10.445  11.686  20.595  0.00  0.00    +0.000 NA
ATOM     22  C   UNL     1      10.890  12.287  19.511  0.00  0.00    +0.000 A 
ATOM     23  S   UNL     1      10.324  11.639  18.019  0.00  0.00    +0.000 S 
BRANCH  22  24
ATOM     24  C   UNL     1      11.808  13.476  19.540  0.00  0.00    +0.000 C 
BRANCH  24  25
ATOM     25  C   UNL     1      11.296  14.652  18.741  0.00  0.00    +0.000 A 
ATOM     26  C   UNL     1      10.132  15.326  19.135  0.00  0.00    +0.000 A 
ATOM     27  C   UNL     1       9.675  16.429  18.411  0.00  0.00    +0.000 A 
ATOM     28  C   UNL     1      10.374  16.868  17.289  0.00  0.00    +0.000 A 
ATOM     29  C   UNL     1      11.533  16.207  16.887  0.00  0.00    +0.000 A 
ATOM     30  C   UNL     1      11.995  15.107  17.611  0.00  0.00    +0.000 A 
ENDBRANCH  24  25
ENDBRANCH  22  24
ENDBRANCH   2  19
TORSDOF 5
ENDMDL
MODEL 2
REMARK VINA RESULT:      -8.2      1.493      1.822
REMARK  Name = 
REMARK  5 active torsions:
REMARK  status: ('A' for Active; 'I' for Inactive)
REMARK    1  A    between atoms: C_2  and  C_17
REMARK    2  A    between atoms: N_3  and  C_4
REMARK    3  A    between atoms: C_7  and  N_8
REMARK    4  A    between atoms: C_20  and  C_21
REMARK    5  A    between atoms: C_21  and  C_22
REMARK                            x       y       z     vdW  Elec       q    Type
REMARK                         _______ _______ _______ _____ _____    ______ ____
ROOT
ATOM      1  O   UNL     1       9.127   9.386  19.656  0.00  0.00    +0.000 OA
ATOM      2  C   UNL     1       8.838   9.807  18.537  0.00  0.00    +0.000 C 
ATOM      3  N   UNL     1       8.106   9.093  17.604  0.00  0.00    +0.000 N 
ATOM      4  H   UNL     1       8.062   9.482  16.672  0.00  0.00    +0.000 HD
ENDROOT
BRANCH   3   5
ATOM      5  C   UNL     1       7.549   7.814  17.795  0.00  0.00    +0.000 A 
ATOM      6  C   UNL     1       6.397   7.366  17.143  0.00  0.00    +0.000 A 
ATOM      7  C   UNL     1       5.856   6.107  17.421  0.00  0.00    +0.000 A 
ATOM      8  C   UNL     1       6.471   5.256  18.339  0.00  0.00    +0.000 A 
ATOM      9  C   UNL     1       7.641   5.701  18.970  0.00  0.00    +0.000 A 
ATOM     10  C   UNL     1       8.183   6.961  18.695  0.00  0.00    +0.000 A 
BRANCH   8  11
ATOM     11  N   UNL     1       5.894   4.020  18.650  0.00  0.00    +0.000 N 
ATOM     12  C   UNL     1       4.598   3.770  19.095  0.00  0.00    +0.000 A 
ATOM     13  N   UNL     1       4.097   2.546  18.870  0.00  0.00    +0.000 NA
ATOM     14  C   UNL     1       2.833   2.322  19.278  0.00  0.00    +0.000 A 
ATOM     15  C   UNL     1       2.086   3.238  19.974  0.00  0.00    +0.000 A 
ATOM     16  C   UNL     1       2.704   4.438  20.206  0.00  0.00    +0.000 A 
ATOM     17  N   UNL     1       3.933   4.732  19.756  0.00  0.00    +0.000 NA
ATOM     18  H   UNL     1       6.507   3.286  18.970  0.00  0.00    +0.000 HD
ENDBRANCH   8  11
ENDBRANCH   3   5
BRANCH   2  19
ATOM     19  C   UNL     1       9.317  11.110  18.104  0.00  0.00    +0.000 A 
ATOM     20  C   UNL     1       8.520  12.173  17.718  0.00  0.00    +0.000 A 
ATOM     21  N   UNL     1       9.181  13.300  17.284  0.00  0.00    +0.000 NA
ATOM     22  C   UNL     1      10.481  13.098  17.351  0.00  0.00    +0.000 A 
ATOM     23  S   UNL     1      10.960  11.555  17.949  0.00  0.00    +0.000 S 
BRANCH  22  24
ATOM     24  C   UNL     1      11.502  14.110  16.917  0.00  0.00    +0.000 C 
BRANCH  24  25
ATOM     25  C   UNL     1      11.376  15.437  17.630  0.00  0.00    +0.000 A 
ATOM     26  C   UNL     1      10.986  16.587  16.928  0.00  0.00    +0.000 A 
ATOM     27  C   UNL     1      10.845  17.806  17.594  0.00  0.00    +0.000 A 
ATOM     28  C   UNL     1      11.092  17.889  18.962  0.00  0.00    +0.000 A 
ATOM     29  C   UNL     1      11.480  16.755  19.670  0.00  0.00    +0.000 A 
ATOM     30  C   UNL     1      11.617  15.533  19.010  0.00  0.00    +0.000 A 
ENDBRANCH  24  25
ENDBRANCH  22  24
ENDBRANCH   2  19
TORSDOF 5
ENDMDL
MODEL 3
REMARK VINA RESULT:      -8.1      2.121     11.139
REMARK  Name = 
REMARK  5 active torsions:
REMARK  status: ('A' for Active; 'I' for Inactive)
REMARK    1  A    between atoms: C_2  and  C_17
REMARK    2  A    between atoms: N_3  and  C_4
REMARK    3  A    between atoms: C_7  and  N_8
REMARK    4  A    between atoms: C_20  and  C_21
REMARK    5  A    between atoms: C_21  and  C_22
REMARK                            x       y       z     vdW  Elec       q    Type
REMARK                         _______ _______ _______ _____ _____    ______ ____
ROOT
ATOM      1  O   UNL     1       7.535   9.312  17.063  0.00  0.00    +0.000 OA
ATOM      2  C   UNL     1       7.857   8.539  17.964  0.00  0.00    +0.000 C 
ATOM      3  N   UNL     1       8.776   8.841  18.954  0.00  0.00    +0.000 N 
ATOM      4  H   UNL     1       9.069   8.074  19.546  0.00  0.00    +0.000 HD
ENDROOT
BRANCH   3   5
ATOM      5  C   UNL     1       9.443  10.070  19.115  0.00  0.00    +0.000 A 
ATOM      6  C   UNL     1      10.087  10.745  18.074  0.00  0.00    +0.000 A 
ATOM      7  C   UNL     1      10.786  11.933  18.310  0.00  0.00    +0.000 A 
ATOM      8  C   UNL     1      10.834  12.487  19.589  0.00  0.00    +0.000 A 
ATOM      9  C   UNL     1      10.164  11.819  20.623  0.00  0.00    +0.000 A 
ATOM     10  C   UNL     1       9.466  10.630  20.391  0.00  0.00    +0.000 A 
BRANCH   8  11
ATOM     11  N   UNL     1      11.579  13.647  19.826  0.00  0.00    +0.000 N 
ATOM     12  C   UNL     1      11.209  14.966  19.578  0.00  0.00    +0.000 A 
ATOM     13  N   UNL     1      11.818  15.922  20.297  0.00  0.00    +0.000 NA
ATOM     14  C   UNL     1      11.432  17.191  20.071  0.00  0.00    +0.000 A 
ATOM     15  C   UNL     1      10.531  17.551  19.100  0.00  0.00    +0.000 A 
ATOM     16  C   UNL     1      10.007  16.512  18.378  0.00  0.00    +0.000 A 
ATOM     17  N   UNL     1      10.306  15.226  18.616  0.00  0.00    +0.000 NA
ATOM     18  H   UNL     1      12.585  13.569  19.800  0.00  0.00    +0.000 HD
ENDBRANCH   8  11
ENDBRANCH   3   5
BRANCH   2  19
ATOM     19  C   UNL     1       7.305   7.194  18.000  0.00  0.00    +0.000 A 
ATOM     20  C   UNL     1       7.865   6.112  18.655  0.00  0.00    +0.000 A 
ATOM     21  N   UNL     1       7.209   4.910  18.511  0.00  0.00    +0.000 NA
ATOM     22  C   UNL     1       6.143   5.081  17.756  0.00  0.00    +0.000 A 
ATOM     23  S   UNL     1       5.879   6.691  17.203  0.00  0.00    +0.000 S 
BRANCH  22  24
ATOM     24  C   UNL     1       5.216   3.967  17.365  0.00  0.00    +0.000 C 
BRANCH  24  25
ATOM     25  C   UNL     1       3.888   4.005  18.086  0.00  0.00    +0.000 A 
ATOM     26  C   UNL     1       3.822   4.383  19.434  0.00  0.00    +0.000 A 
ATOM     27  C   UNL     1       2.592   4.443  20.092  0.00  0.00    +0.000 A 
ATOM     28  C   UNL     1       1.419   4.124  19.411  0.00  0.00    +0.000 A 
ATOM     29  C   UNL     1       1.471   3.747  18.072  0.00  0.00    +0.000 A 
ATOM     30  C   UNL     1       2.698   3.691  17.410  0.00  0.00    +0.000 A 
ENDBRANCH  24  25
ENDBRANCH  22  24
ENDBRANCH   2  19
TORSDOF 5
ENDMDL
MODEL 4
REMARK VINA RESULT:      -8.1      2.112     11.085
REMARK  Name = 
REMARK  5 active torsions:
REMARK  status: ('A' for Active; 'I' for Inactive)
REMARK    1  A    between atoms: C_2  and  C_17
REMARK    2  A    between atoms: N_3  and  C_4
REMARK    3  A    between atoms: C_7  and  N_8
REMARK    4  A    between atoms: C_20  and  C_21
REMARK    5  A    between atoms: C_21  and  C_22
REMARK                            x       y       z     vdW  Elec       q    Type
REMARK                         _______ _______ _______ _____ _____    ______ ____
ROOT
ATOM      1  O   UNL     1       7.484   9.372  17.114  0.00  0.00    +0.000 OA
ATOM      2  C   UNL     1       7.862   8.550  17.946  0.00  0.00    +0.000 C 
ATOM      3  N   UNL     1       8.789   8.820  18.938  0.00  0.00    +0.000 N 
ATOM      4  H   UNL     1       9.130   8.027  19.465  0.00  0.00    +0.000 HD
ENDROOT
BRANCH   3   5
ATOM      5  C   UNL     1       9.402  10.065  19.179  0.00  0.00    +0.000 A 
ATOM      6  C   UNL     1       9.367  10.720  20.413  0.00  0.00    +0.000 A 
ATOM      7  C   UNL     1       9.943  11.984  20.573  0.00  0.00    +0.000 A 
ATOM      8  C   UNL     1      10.591  12.610  19.508  0.00  0.00    +0.000 A 
ATOM      9  C   UNL     1      10.645  11.935  18.280  0.00  0.00    +0.000 A 
ATOM     10  C   UNL     1      10.069  10.672  18.117  0.00  0.00    +0.000 A 
BRANCH   8  11
ATOM     11  N   UNL     1      11.118  13.896  19.662  0.00  0.00    +0.000 N 
ATOM     12  C   UNL     1      10.523  15.110  19.322  0.00  0.00    +0.000 A 
ATOM     13  N   UNL     1      10.947  16.205  19.972  0.00  0.00    +0.000 NA
ATOM     14  C   UNL     1      10.347  17.368  19.658  0.00  0.00    +0.000 A 
ATOM     15  C   UNL     1       9.408  17.495  18.665  0.00  0.00    +0.000 A 
ATOM     16  C   UNL     1       9.083  16.332  18.019  0.00  0.00    +0.000 A 
ATOM     17  N   UNL     1       9.600  15.139  18.347  0.00  0.00    +0.000 NA
ATOM     18  H   UNL     1      12.121  13.996  19.641  0.00  0.00    +0.000 HD
ENDBRANCH   8  11
ENDBRANCH   3   5
BRANCH   2  19
ATOM     19  C   UNL     1       7.373   7.181  17.892  0.00  0.00    +0.000 A 
ATOM     20  C   UNL     1       7.800   6.142  18.699  0.00  0.00    +0.000 A 
ATOM     21  N   UNL     1       7.249   4.907  18.440  0.00  0.00    +0.000 NA
ATOM     22  C   UNL     1       6.395   5.010  17.442  0.00  0.00    +0.000 A 
ATOM     23  S   UNL     1       6.209   6.592  16.787  0.00  0.00    +0.000 S 
BRANCH  22  24
ATOM     24  C   UNL     1       5.639   3.844  16.873  0.00  0.00    +0.000 C 
BRANCH  24  25
ATOM     25  C   UNL     1       4.209   3.758  17.355  0.00  0.00    +0.000 A 
ATOM     26  C   UNL     1       3.650   2.522  17.706  0.00  0.00    +0.000 A 
ATOM     27  C   UNL     1       2.337   2.448  18.175  0.00  0.00    +0.000 A 
ATOM     28  C   UNL     1       1.571   3.606  18.297  0.00  0.00    +0.000 A 
ATOM     29  C   UNL     1       2.116   4.841  17.952  0.00  0.00    +0.000 A 
ATOM     30  C   UNL     1       3.429   4.919  17.487  0.00  0.00    +0.000 A 
ENDBRANCH  24  25
ENDBRANCH  22  24
ENDBRANCH   2  19
TORSDOF 5
ENDMDL
MODEL 5
REMARK VINA RESULT:      -8.0      7.932     11.090
REMARK  Name = 
REMARK  5 active torsions:
REMARK  status: ('A' for Active; 'I' for Inactive)
REMARK    1  A    between atoms: C_2  and  C_17
REMARK    2  A    between atoms: N_3  and  C_4
REMARK    3  A    between atoms: C_7  and  N_8
REMARK    4  A    between atoms: C_20  and  C_21
REMARK    5  A    between atoms: C_21  and  C_22
REMARK                            x       y       z     vdW  Elec       q    Type
REMARK                         _______ _______ _______ _____ _____    ______ ____
ROOT
ATOM      1  O   UNL     1       1.596   8.606  18.918  0.00  0.00    +0.000 OA
ATOM      2  C   UNL     1       1.780   7.862  19.879  0.00  0.00    +0.000 C 
ATOM      3  N   UNL     1       1.383   8.153  21.173  0.00  0.00    +0.000 N 
ATOM      4  H   UNL     1       1.723   7.534  21.898  0.00  0.00    +0.000 HD
ENDROOT
BRANCH   3   5
ATOM      5  C   UNL     1       0.680   9.302  21.583  0.00  0.00    +0.000 A 
ATOM      6  C   UNL     1       0.824  10.555  20.981  0.00  0.00    +0.000 A 
ATOM      7  C   UNL     1       0.144  11.672  21.474  0.00  0.00    +0.000 A 
ATOM      8  C   UNL     1      -0.718  11.556  22.564  0.00  0.00    +0.000 A 
ATOM      9  C   UNL     1      -0.879  10.291  23.146  0.00  0.00    +0.000 A 
ATOM     10  C   UNL     1      -0.198   9.172  22.657  0.00  0.00    +0.000 A 
BRANCH   8  11
ATOM     11  N   UNL     1      -1.354  12.689  23.083  0.00  0.00    +0.000 N 
ATOM     12  C   UNL     1      -2.708  13.010  23.026  0.00  0.00    +0.000 A 
ATOM     13  N   UNL     1      -3.182  13.843  23.966  0.00  0.00    +0.000 NA
ATOM     14  C   UNL     1      -4.498  14.125  23.919  0.00  0.00    +0.000 A 
ATOM     15  C   UNL     1      -5.336  13.681  22.927  0.00  0.00    +0.000 A 
ATOM     16  C   UNL     1      -4.748  12.885  21.981  0.00  0.00    +0.000 A 
ATOM     17  N   UNL     1      -3.459  12.518  22.026  0.00  0.00    +0.000 NA
ATOM     18  H   UNL     1      -0.810  13.535  23.161  0.00  0.00    +0.000 HD
ENDBRANCH   8  11
ENDBRANCH   3   5
BRANCH   2  19
ATOM     19  C   UNL     1       2.502   6.612  19.703  0.00  0.00    +0.000 A 
ATOM     20  C   UNL     1       2.200   5.414  20.325  0.00  0.00    +0.000 A 
ATOM     21  N   UNL     1       3.052   4.364  20.065  0.00  0.00    +0.000 NA
ATOM     22  C   UNL     1       3.996   4.761  19.236  0.00  0.00    +0.000 A 
ATOM     23  S   UNL     1       3.890   6.404  18.727  0.00  0.00    +0.000 S 
BRANCH  22  24
ATOM     24  C   UNL     1       5.116   3.878  18.770  0.00  0.00    +0.000 C 
BRANCH  24  25
ATOM     25  C   UNL     1       5.627   4.228  17.392  0.00  0.00    +0.000 A 
ATOM     26  C   UNL     1       6.933   4.707  17.218  0.00  0.00    +0.000 A 
ATOM     27  C   UNL     1       7.412   5.005  15.941  0.00  0.00    +0.000 A 
ATOM     28  C   UNL     1       6.593   4.829  14.827  0.00  0.00    +0.000 A 
ATOM     29  C   UNL     1       5.294   4.354  14.987  0.00  0.00    +0.000 A 
ATOM     30  C   UNL     1       4.813   4.050  16.261  0.00  0.00    +0.000 A 
ENDBRANCH  24  25
ENDBRANCH  22  24
ENDBRANCH   2  19
TORSDOF 5
ENDMDL
MODEL 6
REMARK VINA RESULT:      -7.9      7.194     11.393
REMARK  Name = 
REMARK  5 active torsions:
REMARK  status: ('A' for Active; 'I' for Inactive)
REMARK    1  A    between atoms: C_2  and  C_17
REMARK    2  A    between atoms: N_3  and  C_4
REMARK    3  A    between atoms: C_7  and  N_8
REMARK    4  A    between atoms: C_20  and  C_21
REMARK    5  A    between atoms: C_21  and  C_22
REMARK                            x       y       z     vdW  Elec       q    Type
REMARK                         _______ _______ _______ _____ _____    ______ ____
ROOT
ATOM      1  O   UNL     1       2.029   9.493  17.469  0.00  0.00    +0.000 OA
ATOM      2  C   UNL     1       1.775   9.007  18.570  0.00  0.00    +0.000 C 
ATOM      3  N   UNL     1       1.096   9.675  19.575  0.00  0.00    +0.000 N 
ATOM      4  H   UNL     1       1.081   9.228  20.482  0.00  0.00    +0.000 HD
ENDROOT
BRANCH   3   5
ATOM      5  C   UNL     1       0.558  10.973  19.487  0.00  0.00    +0.000 A 
ATOM      6  C   UNL     1      -0.415  11.348  18.557  0.00  0.00    +0.000 A 
ATOM      7  C   UNL     1      -0.866  12.669  18.480  0.00  0.00    +0.000 A 
ATOM      8  C   UNL     1      -0.371  13.641  19.349  0.00  0.00    +0.000 A 
ATOM      9  C   UNL     1       0.586  13.253  20.297  0.00  0.00    +0.000 A 
ATOM     10  C   UNL     1       1.040  11.933  20.376  0.00  0.00    +0.000 A 
BRANCH   8  11
ATOM     11  N   UNL     1      -0.788  14.971  19.229  0.00  0.00    +0.000 N 
ATOM     12  C   UNL     1      -0.116  16.025  18.613  0.00  0.00    +0.000 A 
ATOM     13  N   UNL     1      -0.858  17.056  18.179  0.00  0.00    +0.000 NA
ATOM     14  C   UNL     1      -0.204  18.056  17.559  0.00  0.00    +0.000 A 
ATOM     15  C   UNL     1       1.162  18.108  17.433  0.00  0.00    +0.000 A 
ATOM     16  C   UNL     1       1.837  17.038  17.958  0.00  0.00    +0.000 A 
ATOM     17  N   UNL     1       1.224  15.985  18.519  0.00  0.00    +0.000 NA
ATOM     18  H   UNL     1      -1.401  15.334  19.942  0.00  0.00    +0.000 HD
ENDBRANCH   8  11
ENDBRANCH   3   5
BRANCH   2  19
ATOM     19  C   UNL     1       2.244   7.671  18.901  0.00  0.00    +0.000 A 
ATOM     20  C   UNL     1       1.915   6.964  20.044  0.00  0.00    +0.000 A 
ATOM     21  N   UNL     1       2.519   5.735  20.190  0.00  0.00    +0.000 NA
ATOM     22  C   UNL     1       3.297   5.503  19.153  0.00  0.00    +0.000 A 
ATOM     23  S   UNL     1       3.325   6.743  17.957  0.00  0.00    +0.000 S 
BRANCH  22  24
ATOM     24  C   UNL     1       4.137   4.267  19.006  0.00  0.00    +0.000 C 
BRANCH  24  25
ATOM     25  C   UNL     1       5.138   4.349  17.877  0.00  0.00    +0.000 A 
ATOM     26  C   UNL     1       6.453   4.769  18.122  0.00  0.00    +0.000 A 
ATOM     27  C   UNL     1       7.384   4.819  17.082  0.00  0.00    +0.000 A 
ATOM     28  C   UNL     1       7.011   4.453  15.791  0.00  0.00    +0.000 A 
ATOM     29  C   UNL     1       5.708   4.034  15.534  0.00  0.00    +0.000 A 
ATOM     30  C   UNL     1       4.776   3.978  16.572  0.00  0.00    +0.000 A 
ENDBRANCH  24  25
ENDBRANCH  22  24
ENDBRANCH   2  19
TORSDOF 5
ENDMDL
MODEL 7
REMARK VINA RESULT:      -7.9      1.485      1.939
REMARK  Name = 
REMARK  5 active torsions:
REMARK  status: ('A' for Active; 'I' for Inactive)
REMARK    1  A    between atoms: C_2  and  C_17
REMARK    2  A    between atoms: N_3  and  C_4
REMARK    3  A    between atoms: C_7  and  N_8
REMARK    4  A    between atoms: C_20  and  C_21
REMARK    5  A    between atoms: C_21  and  C_22
REMARK                            x       y       z     vdW  Elec       q    Type
REMARK                         _______ _______ _______ _____ _____    ______ ____
ROOT
ATOM      1  O   UNL     1       9.113   9.248  19.539  0.00  0.00    +0.000 OA
ATOM      2  C   UNL     1       8.774   9.725  18.457  0.00  0.00    +0.000 C 
ATOM      3  N   UNL     1       7.983   9.065  17.532  0.00  0.00    +0.000 N 
ATOM      4  H   UNL     1       7.898   9.498  16.622  0.00  0.00    +0.000 HD
ENDROOT
BRANCH   3   5
ATOM      5  C   UNL     1       7.412   7.788  17.694  0.00  0.00    +0.000 A 
ATOM      6  C   UNL     1       7.979   6.780  18.479  0.00  0.00    +0.000 A 
ATOM      7  C   UNL     1       7.397   5.511  18.550  0.00  0.00    +0.000 A 
ATOM      8  C   UNL     1       6.219   5.229  17.859  0.00  0.00    +0.000 A 
ATOM      9  C   UNL     1       5.642   6.253  17.095  0.00  0.00    +0.000 A 
ATOM     10  C   UNL     1       6.223   7.522  17.020  0.00  0.00    +0.000 A 
BRANCH   8  11
ATOM     11  N   UNL     1       5.673   3.942  17.894  0.00  0.00    +0.000 N 
ATOM     12  C   UNL     1       4.474   3.538  18.478  0.00  0.00    +0.000 A 
ATOM     13  N   UNL     1       3.903   2.421  18.000  0.00  0.00    +0.000 NA
ATOM     14  C   UNL     1       2.731   2.055  18.551  0.00  0.00    +0.000 A 
ATOM     15  C   UNL     1       2.153   2.706  19.612  0.00  0.00    +0.000 A 
ATOM     16  C   UNL     1       2.839   3.800  20.068  0.00  0.00    +0.000 A 
ATOM     17  N   UNL     1       3.972   4.245  19.505  0.00  0.00    +0.000 NA
ATOM     18  H   UNL     1       6.312   3.162  17.865  0.00  0.00    +0.000 HD
ENDBRANCH   8  11
ENDBRANCH   3   5
BRANCH   2  19
ATOM     19  C   UNL     1       9.253  11.038  18.058  0.00  0.00    +0.000 A 
ATOM     20  C   UNL     1       8.456  12.114  17.711  0.00  0.00    +0.000 A 
ATOM     21  N   UNL     1       9.118  13.252  17.305  0.00  0.00    +0.000 NA
ATOM     22  C   UNL     1      10.417  13.044  17.355  0.00  0.00    +0.000 A 
ATOM     23  S   UNL     1      10.897  11.483  17.903  0.00  0.00    +0.000 S 
BRANCH  22  24
ATOM     24  C   UNL     1      11.437  14.066  16.943  0.00  0.00    +0.000 C 
BRANCH  24  25
ATOM     25  C   UNL     1      11.678  15.133  17.986  0.00  0.00    +0.000 A 
ATOM     26  C   UNL     1      11.551  14.835  19.350  0.00  0.00    +0.000 A 
ATOM     27  C   UNL     1      11.799  15.815  20.314  0.00  0.00    +0.000 A 
ATOM     28  C   UNL     1      12.174  17.099  19.925  0.00  0.00    +0.000 A 
ATOM     29  C   UNL     1      12.304  17.408  18.573  0.00  0.00    +0.000 A 
ATOM     30  C   UNL     1      12.061  16.430  17.607  0.00  0.00    +0.000 A 
ENDBRANCH  24  25
ENDBRANCH  22  24
ENDBRANCH   2  19
TORSDOF 5
ENDMDL
MODEL 8
REMARK VINA RESULT:      -7.8      9.355     12.680
REMARK  Name = 
REMARK  5 active torsions:
REMARK  status: ('A' for Active; 'I' for Inactive)
REMARK    1  A    between atoms: C_2  and  C_17
REMARK    2  A    between atoms: N_3  and  C_4
REMARK    3  A    between atoms: C_7  and  N_8
REMARK    4  A    between atoms: C_20  and  C_21
REMARK    5  A    between atoms: C_21  and  C_22
REMARK                            x       y       z     vdW  Elec       q    Type
REMARK                         _______ _______ _______ _____ _____    ______ ____
ROOT
ATOM      1  O   UNL     1       0.590  11.308  18.791  0.00  0.00    +0.000 OA
ATOM      2  C   UNL     1       0.608  10.267  19.444  0.00  0.00    +0.000 C 
ATOM      3  N   UNL     1      -0.122  10.065  20.603  0.00  0.00    +0.000 N 
ATOM      4  H   UNL     1       0.091   9.228  21.130  0.00  0.00    +0.000 HD
ENDROOT
BRANCH   3   5
ATOM      5  C   UNL     1      -1.019  10.982  21.185  0.00  0.00    +0.000 A 
ATOM      6  C   UNL     1      -1.193  11.126  22.564  0.00  0.00    +0.000 A 
ATOM      7  C   UNL     1      -2.144  12.012  23.080  0.00  0.00    +0.000 A 
ATOM      8  C   UNL     1      -2.925  12.793  22.228  0.00  0.00    +0.000 A 
ATOM      9  C   UNL     1      -2.726  12.662  20.847  0.00  0.00    +0.000 A 
ATOM     10  C   UNL     1      -1.777  11.776  20.327  0.00  0.00    +0.000 A 
BRANCH   8  11
ATOM     11  N   UNL     1      -3.910  13.636  22.751  0.00  0.00    +0.000 N 
ATOM     12  C   UNL     1      -5.266  13.365  22.920  0.00  0.00    +0.000 A 
ATOM     13  N   UNL     1      -5.924  14.072  23.851  0.00  0.00    +0.000 NA
ATOM     14  C   UNL     1      -7.227  13.783  24.027  0.00  0.00    +0.000 A 
ATOM     15  C   UNL     1      -7.916  12.882  23.255  0.00  0.00    +0.000 A 
ATOM     16  C   UNL     1      -7.174  12.252  22.292  0.00  0.00    +0.000 A 
ATOM     17  N   UNL     1      -5.858  12.454  22.128  0.00  0.00    +0.000 NA
ATOM     18  H   UNL     1      -3.777  14.630  22.648  0.00  0.00    +0.000 HD
ENDBRANCH   8  11
ENDBRANCH   3   5
BRANCH   2  19
ATOM     19  C   UNL     1       1.476   9.171  19.044  0.00  0.00    +0.000 A 
ATOM     20  C   UNL     1       2.094   9.043  17.813  0.00  0.00    +0.000 A 
ATOM     21  N   UNL     1       2.827   7.893  17.620  0.00  0.00    +0.000 NA
ATOM     22  C   UNL     1       2.775   7.153  18.707  0.00  0.00    +0.000 A 
ATOM     23  S   UNL     1       1.858   7.812  20.008  0.00  0.00    +0.000 S 
BRANCH  22  24
ATOM     24  C   UNL     1       3.435   5.810  18.829  0.00  0.00    +0.000 C 
BRANCH  24  25
ATOM     25  C   UNL     1       2.562   4.766  19.487  0.00  0.00    +0.000 A 
ATOM     26  C   UNL     1       1.569   4.105  18.752  0.00  0.00    +0.000 A 
ATOM     27  C   UNL     1       0.781   3.122  19.354  0.00  0.00    +0.000 A 
ATOM     28  C   UNL     1       0.977   2.791  20.694  0.00  0.00    +0.000 A 
ATOM     29  C   UNL     1       1.961   3.441  21.435  0.00  0.00    +0.000 A 
ATOM     30  C   UNL     1       2.754   4.420  20.835  0.00  0.00    +0.000 A 
ENDBRANCH  24  25
ENDBRANCH  22  24
ENDBRANCH   2  19
TORSDOF 5
ENDMDL
MODEL 9
REMARK VINA RESULT:      -7.8      8.258     11.066
REMARK  Name = 
REMARK  5 active torsions:
REMARK  status: ('A' for Active; 'I' for Inactive)
REMARK    1  A    between atoms: C_2  and  C_17
REMARK    2  A    between atoms: N_3  and  C_4
REMARK    3  A    between atoms: C_7  and  N_8
REMARK    4  A    between atoms: C_20  and  C_21
REMARK    5  A    between atoms: C_21  and  C_22
REMARK                            x       y       z     vdW  Elec       q    Type
REMARK                         _______ _______ _______ _____ _____    ______ ____
ROOT
ATOM      1  O   UNL     1       2.020   9.330  17.423  0.00  0.00    +0.000 OA
ATOM      2  C   UNL     1       1.904   8.684  18.463  0.00  0.00    +0.000 C 
ATOM      3  N   UNL     1       1.124   9.077  19.537  0.00  0.00    +0.000 N 
ATOM      4  H   UNL     1       1.228   8.541  20.389  0.00  0.00    +0.000 HD
ENDROOT
BRANCH   3   5
ATOM      5  C   UNL     1       0.318  10.230  19.595  0.00  0.00    +0.000 A 
ATOM      6  C   UNL     1       0.637  11.361  20.351  0.00  0.00    +0.000 A 
ATOM      7  C   UNL     1      -0.235  12.452  20.417  0.00  0.00    +0.000 A 
ATOM      8  C   UNL     1      -1.436  12.447  19.708  0.00  0.00    +0.000 A 
ATOM      9  C   UNL     1      -1.737  11.320  18.930  0.00  0.00    +0.000 A 
ATOM     10  C   UNL     1      -0.868  10.226  18.864  0.00  0.00    +0.000 A 
BRANCH   8  11
ATOM     11  N   UNL     1      -2.326  13.519  19.822  0.00  0.00    +0.000 N 
ATOM     12  C   UNL     1      -3.255  13.754  20.832  0.00  0.00    +0.000 A 
ATOM     13  N   UNL     1      -3.647  15.024  21.023  0.00  0.00    +0.000 NA
ATOM     14  C   UNL     1      -4.523  15.246  22.021  0.00  0.00    +0.000 A 
ATOM     15  C   UNL     1      -5.086  14.246  22.774  0.00  0.00    +0.000 A 
ATOM     16  C   UNL     1      -4.668  12.979  22.467  0.00  0.00    +0.000 A 
ATOM     17  N   UNL     1      -3.743  12.716  21.531  0.00  0.00    +0.000 NA
ATOM     18  H   UNL     1      -2.636  13.961  18.970  0.00  0.00    +0.000 HD
ENDBRANCH   8  11
ENDBRANCH   3   5
BRANCH   2  19
ATOM     19  C   UNL     1       2.656   7.453  18.643  0.00  0.00    +0.000 A 
ATOM     20  C   UNL     1       2.472   6.540  19.665  0.00  0.00    +0.000 A 
ATOM     21  N   UNL     1       3.336   5.468  19.683  0.00  0.00    +0.000 NA
ATOM     22  C   UNL     1       4.169   5.560  18.667  0.00  0.00    +0.000 A 
ATOM     23  S   UNL     1       3.941   6.927  17.644  0.00  0.00    +0.000 S 
BRANCH  22  24
ATOM     24  C   UNL     1       5.271   4.574  18.405  0.00  0.00    +0.000 C 
BRANCH  24  25
ATOM     25  C   UNL     1       5.748   4.569  16.971  0.00  0.00    +0.000 A 
ATOM     26  C   UNL     1       7.034   5.025  16.649  0.00  0.00    +0.000 A 
ATOM     27  C   UNL     1       7.483   4.995  15.327  0.00  0.00    +0.000 A 
ATOM     28  C   UNL     1       6.653   4.513  14.317  0.00  0.00    +0.000 A 
ATOM     29  C   UNL     1       5.374   4.057  14.624  0.00  0.00    +0.000 A 
ATOM     30  C   UNL     1       4.923   4.080  15.945  0.00  0.00    +0.000 A 
ENDBRANCH  24  25
ENDBRANCH  22  24
ENDBRANCH   2  19
TORSDOF 5
ENDMDL
