MODEL 1
REMARK VINA RESULT:      -8.9      0.000      0.000
REMARK  Name = 
REMARK  3 active torsions:
REMARK  status: ('A' for Active; 'I' for Inactive)
REMARK    1  A    between atoms: C_2  and  C_19
REMARK    2  A    between atoms: N_3  and  C_4
REMARK    3  A    between atoms: C_5  and  C_6
REMARK                            x       y       z     vdW  Elec       q    Type
REMARK                         _______ _______ _______ _____ _____    ______ ____
ROOT
ATOM      1  C   UNL     1       5.718   4.419  15.454  0.00  0.00    +0.000 A 
ATOM      2  C   UNL     1       6.893   5.082  15.788  0.00  0.00    +0.000 A 
ATOM      3  N   UNL     1       7.629   5.140  14.619  0.00  0.00    +0.000 N 
ATOM      4  C   UNL     1       6.972   4.543  13.572  0.00  0.00    +0.000 A 
ATOM      5  C   UNL     1       7.367   4.356  12.243  0.00  0.00    +0.000 A 
ATOM      6  C   UNL     1       6.475   3.703  11.386  0.00  0.00    +0.000 A 
ATOM      7  C   UNL     1       5.239   3.251  11.846  0.00  0.00    +0.000 A 
ATOM      8  C   UNL     1       4.865   3.443  13.177  0.00  0.00    +0.000 A 
ATOM      9  C   UNL     1       5.746   4.106  14.062  0.00  0.00    +0.000 A 
ATOM     10  H   UNL     1       8.521   5.605  14.528  0.00  0.00    +0.000 HD
ENDROOT
BRANCH   2  11
ATOM     11  C   UNL     1       7.325   5.796  17.008  0.00  0.00    +0.000 A 
ATOM     12  C   UNL     1       7.589   5.113  18.200  0.00  0.00    +0.000 A 
ATOM     13  C   UNL     1       8.080   5.792  19.323  0.00  0.00    +0.000 A 
ATOM     14  C   UNL     1       8.293   7.168  19.273  0.00  0.00    +0.000 A 
ATOM     15  C   UNL     1       8.032   7.865  18.099  0.00  0.00    +0.000 A 
ATOM     16  C   UNL     1       7.564   7.179  16.973  0.00  0.00    +0.000 A 
ENDBRANCH   2  11
BRANCH   1  19
ATOM     17  O   UNL     1       4.116   6.226  16.976  0.00  0.00    +0.000 OA
ATOM     18  C   UNL     1       3.969   5.008  17.032  0.00  0.00    +0.000 C 
ATOM     19  N   UNL     1       4.728   4.072  16.357  0.00  0.00    +0.000 N 
ATOM     20  H   UNL     1       4.699   3.105  16.662  0.00  0.00    +0.000 HD
BRANCH  18  21
ATOM     21  C   UNL     1       2.914   4.416  17.957  0.00  0.00    +0.000 C 
ATOM     22  C   UNL     1       3.244   4.577  19.448  0.00  0.00    +0.000 C 
ATOM     23  C   UNL     1       3.382   3.121  19.900  0.00  0.00    +0.000 C 
ATOM     24  C   UNL     1       2.016   2.442  19.975  0.00  0.00    +0.000 C 
ATOM     25  C   UNL     1       1.645   2.316  18.492  0.00  0.00    +0.000 C 
ATOM     26  C   UNL     1       2.877   2.898  17.801  0.00  0.00    +0.000 C 
ATOM     27  O   UNL     1       3.933   2.498  18.718  0.00  0.00    +0.000 OA
ENDBRANCH  18  21
ENDBRANCH   1  19
TORSDOF 3
ENDMDL
MODEL 2
REMARK VINA RESULT:      -8.7      0.463      1.070
REMARK  Name = 
REMARK  3 active torsions:
REMARK  status: ('A' for Active; 'I' for Inactive)
REMARK    1  A    between atoms: C_2  and  C_19
REMARK    2  A    between atoms: N_3  and  C_4
REMARK    3  A    between atoms: C_5  and  C_6
REMARK                            x       y       z     vdW  Elec       q    Type
REMARK                         _______ _______ _______ _____ _____    ______ ____
ROOT
ATOM      1  C   UNL     1       5.757   4.401  15.516  0.00  0.00    +0.000 A 
ATOM      2  C   UNL     1       6.943   5.082  15.761  0.00  0.00    +0.000 A 
ATOM      3  N   UNL     1       7.602   5.125  14.547  0.00  0.00    +0.000 N 
ATOM      4  C   UNL     1       6.886   4.500  13.555  0.00  0.00    +0.000 A 
ATOM      5  C   UNL     1       7.198   4.291  12.208  0.00  0.00    +0.000 A 
ATOM      6  C   UNL     1       6.260   3.612  11.423  0.00  0.00    +0.000 A 
ATOM      7  C   UNL     1       5.062   3.156  11.970  0.00  0.00    +0.000 A 
ATOM      8  C   UNL     1       4.772   3.370  13.318  0.00  0.00    +0.000 A 
ATOM      9  C   UNL     1       5.699   4.060  14.131  0.00  0.00    +0.000 A 
ATOM     10  H   UNL     1       8.480   5.598  14.390  0.00  0.00    +0.000 HD
ENDROOT
BRANCH   2  11
ATOM     11  C   UNL     1       7.443   5.826  16.937  0.00  0.00    +0.000 A 
ATOM     12  C   UNL     1       7.605   7.215  16.909  0.00  0.00    +0.000 A 
ATOM     13  C   UNL     1       7.997   7.917  18.056  0.00  0.00    +0.000 A 
ATOM     14  C   UNL     1       8.252   7.232  19.244  0.00  0.00    +0.000 A 
ATOM     15  C   UNL     1       8.101   5.851  19.291  0.00  0.00    +0.000 A 
ATOM     16  C   UNL     1       7.686   5.158  18.148  0.00  0.00    +0.000 A 
ENDBRANCH   2  11
BRANCH   1  19
ATOM     17  O   UNL     1       4.101   6.213  16.973  0.00  0.00    +0.000 OA
ATOM     18  C   UNL     1       4.038   4.996  17.126  0.00  0.00    +0.000 C 
ATOM     19  N   UNL     1       4.830   4.062  16.488  0.00  0.00    +0.000 N 
ATOM     20  H   UNL     1       4.879   3.121  16.865  0.00  0.00    +0.000 HD
BRANCH  18  21
ATOM     21  C   UNL     1       3.065   4.410  18.140  0.00  0.00    +0.000 C 
ATOM     22  C   UNL     1       3.754   3.738  19.337  0.00  0.00    +0.000 C 
ATOM     23  C   UNL     1       3.304   2.284  19.184  0.00  0.00    +0.000 C 
ATOM     24  C   UNL     1       1.834   2.125  19.566  0.00  0.00    +0.000 C 
ATOM     25  C   UNL     1       1.127   2.835  18.405  0.00  0.00    +0.000 C 
ATOM     26  C   UNL     1       2.301   3.246  17.516  0.00  0.00    +0.000 C 
ATOM     27  O   UNL     1       3.229   2.150  17.747  0.00  0.00    +0.000 OA
ENDBRANCH  18  21
ENDBRANCH   1  19
TORSDOF 3
ENDMDL
MODEL 3
REMARK VINA RESULT:      -8.6      0.845      1.089
REMARK  Name = 
REMARK  3 active torsions:
REMARK  status: ('A' for Active; 'I' for Inactive)
REMARK    1  A    between atoms: C_2  and  C_19
REMARK    2  A    between atoms: N_3  and  C_4
REMARK    3  A    between atoms: C_5  and  C_6
REMARK                            x       y       z     vdW  Elec       q    Type
REMARK                         _______ _______ _______ _____ _____    ______ ____
ROOT
ATOM      1  C   UNL     1       5.870   4.217  15.484  0.00  0.00    +0.000 A 
ATOM      2  C   UNL     1       6.964   5.018  15.790  0.00  0.00    +0.000 A 
ATOM      3  N   UNL     1       7.619   5.223  14.590  0.00  0.00    +0.000 N 
ATOM      4  C   UNL     1       6.988   4.587  13.549  0.00  0.00    +0.000 A 
ATOM      5  C   UNL     1       7.329   4.510  12.195  0.00  0.00    +0.000 A 
ATOM      6  C   UNL     1       6.485   3.779  11.353  0.00  0.00    +0.000 A 
ATOM      7  C   UNL     1       5.348   3.145  11.853  0.00  0.00    +0.000 A 
ATOM      8  C   UNL     1       5.028   3.229  13.208  0.00  0.00    +0.000 A 
ATOM      9  C   UNL     1       5.861   3.968  14.079  0.00  0.00    +0.000 A 
ATOM     10  H   UNL     1       8.434   5.809  14.477  0.00  0.00    +0.000 HD
ENDROOT
BRANCH   2  11
ATOM     11  C   UNL     1       7.365   5.733  17.021  0.00  0.00    +0.000 A 
ATOM     12  C   UNL     1       7.645   5.047  18.207  0.00  0.00    +0.000 A 
ATOM     13  C   UNL     1       8.107   5.728  19.340  0.00  0.00    +0.000 A 
ATOM     14  C   UNL     1       8.274   7.112  19.306  0.00  0.00    +0.000 A 
ATOM     15  C   UNL     1       7.997   7.813  18.138  0.00  0.00    +0.000 A 
ATOM     16  C   UNL     1       7.558   7.123  17.002  0.00  0.00    +0.000 A 
ENDBRANCH   2  11
BRANCH   1  19
ATOM     17  O   UNL     1       3.977   5.707  17.015  0.00  0.00    +0.000 OA
ATOM     18  C   UNL     1       4.073   4.484  17.096  0.00  0.00    +0.000 C 
ATOM     19  N   UNL     1       4.987   3.702  16.418  0.00  0.00    +0.000 N 
ATOM     20  H   UNL     1       5.156   2.754  16.741  0.00  0.00    +0.000 HD
BRANCH  18  21
ATOM     21  C   UNL     1       3.176   3.717  18.058  0.00  0.00    +0.000 C 
ATOM     22  C   UNL     1       1.811   4.381  18.288  0.00  0.00    +0.000 C 
ATOM     23  C   UNL     1       1.867   4.710  19.781  0.00  0.00    +0.000 C 
ATOM     24  C   UNL     1       1.722   3.445  20.623  0.00  0.00    +0.000 C 
ATOM     25  C   UNL     1       3.061   2.741  20.368  0.00  0.00    +0.000 C 
ATOM     26  C   UNL     1       3.781   3.736  19.459  0.00  0.00    +0.000 C 
ATOM     27  O   UNL     1       3.271   5.002  19.964  0.00  0.00    +0.000 OA
ENDBRANCH  18  21
ENDBRANCH   1  19
TORSDOF 3
ENDMDL
MODEL 4
REMARK VINA RESULT:      -8.5      1.013      1.166
REMARK  Name = 
REMARK  3 active torsions:
REMARK  status: ('A' for Active; 'I' for Inactive)
REMARK    1  A    between atoms: C_2  and  C_19
REMARK    2  A    between atoms: N_3  and  C_4
REMARK    3  A    between atoms: C_5  and  C_6
REMARK                            x       y       z     vdW  Elec       q    Type
REMARK                         _______ _______ _______ _____ _____    ______ ____
ROOT
ATOM      1  C   UNL     1       5.431   4.739  15.381  0.00  0.00    +0.000 A 
ATOM      2  C   UNL     1       6.709   5.101  15.788  0.00  0.00    +0.000 A 
ATOM      3  N   UNL     1       7.538   4.791  14.725  0.00  0.00    +0.000 N 
ATOM      4  C   UNL     1       6.838   4.249  13.675  0.00  0.00    +0.000 A 
ATOM      5  C   UNL     1       7.286   3.774  12.438  0.00  0.00    +0.000 A 
ATOM      6  C   UNL     1       6.330   3.270  11.551  0.00  0.00    +0.000 A 
ATOM      7  C   UNL     1       4.979   3.238  11.895  0.00  0.00    +0.000 A 
ATOM      8  C   UNL     1       4.553   3.712  13.137  0.00  0.00    +0.000 A 
ATOM      9  C   UNL     1       5.499   4.233  14.048  0.00  0.00    +0.000 A 
ATOM     10  H   UNL     1       8.529   4.982  14.699  0.00  0.00    +0.000 HD
ENDROOT
BRANCH   2  11
ATOM     11  C   UNL     1       7.210   5.841  16.967  0.00  0.00    +0.000 A 
ATOM     12  C   UNL     1       7.538   5.183  18.157  0.00  0.00    +0.000 A 
ATOM     13  C   UNL     1       8.093   5.884  19.236  0.00  0.00    +0.000 A 
ATOM     14  C   UNL     1       8.307   7.258  19.143  0.00  0.00    +0.000 A 
ATOM     15  C   UNL     1       7.983   7.930  17.971  0.00  0.00    +0.000 A 
ATOM     16  C   UNL     1       7.451   7.222  16.887  0.00  0.00    +0.000 A 
ENDBRANCH   2  11
BRANCH   1  19
ATOM     17  O   UNL     1       4.575   2.762  17.254  0.00  0.00    +0.000 OA
ATOM     18  C   UNL     1       3.973   3.821  17.092  0.00  0.00    +0.000 C 
ATOM     19  N   UNL     1       4.303   4.804  16.182  0.00  0.00    +0.000 N 
ATOM     20  H   UNL     1       3.611   5.509  15.948  0.00  0.00    +0.000 HD
BRANCH  18  21
ATOM     21  C   UNL     1       2.708   4.101  17.893  0.00  0.00    +0.000 C 
ATOM     22  C   UNL     1       2.747   5.429  18.660  0.00  0.00    +0.000 C 
ATOM     23  C   UNL     1       2.666   4.957  20.113  0.00  0.00    +0.000 C 
ATOM     24  C   UNL     1       1.259   4.468  20.449  0.00  0.00    +0.000 C 
ATOM     25  C   UNL     1       1.180   3.161  19.650  0.00  0.00    +0.000 C 
ATOM     26  C   UNL     1       2.572   3.083  19.022  0.00  0.00    +0.000 C 
ATOM     27  O   UNL     1       3.384   3.705  20.056  0.00  0.00    +0.000 OA
ENDBRANCH  18  21
ENDBRANCH   1  19
TORSDOF 3
ENDMDL
MODEL 5
REMARK VINA RESULT:      -8.4      3.242      7.140
REMARK  Name = 
REMARK  3 active torsions:
REMARK  status: ('A' for Active; 'I' for Inactive)
REMARK    1  A    between atoms: C_2  and  C_19
REMARK    2  A    between atoms: N_3  and  C_4
REMARK    3  A    between atoms: C_5  and  C_6
REMARK                            x       y       z     vdW  Elec       q    Type
REMARK                         _______ _______ _______ _____ _____    ______ ____
ROOT
ATOM      1  C   UNL     1       2.515   6.799  18.731  0.00  0.00    +0.000 A 
ATOM      2  C   UNL     1       1.927   6.256  19.868  0.00  0.00    +0.000 A 
ATOM      3  N   UNL     1       1.275   7.307  20.485  0.00  0.00    +0.000 N 
ATOM      4  C   UNL     1       1.429   8.482  19.790  0.00  0.00    +0.000 A 
ATOM      5  C   UNL     1       0.966   9.771  20.076  0.00  0.00    +0.000 A 
ATOM      6  C   UNL     1       1.282  10.789  19.171  0.00  0.00    +0.000 A 
ATOM      7  C   UNL     1       2.036  10.526  18.029  0.00  0.00    +0.000 A 
ATOM      8  C   UNL     1       2.493   9.234  17.764  0.00  0.00    +0.000 A 
ATOM      9  C   UNL     1       2.182   8.185  18.659  0.00  0.00    +0.000 A 
ATOM     10  H   UNL     1       0.712   7.220  21.318  0.00  0.00    +0.000 HD
ENDROOT
BRANCH   2  11
ATOM     11  C   UNL     1       1.771   4.865  20.344  0.00  0.00    +0.000 A 
ATOM     12  C   UNL     1       1.056   3.916  19.606  0.00  0.00    +0.000 A 
ATOM     13  C   UNL     1       0.989   2.581  20.025  0.00  0.00    +0.000 A 
ATOM     14  C   UNL     1       1.622   2.183  21.202  0.00  0.00    +0.000 A 
ATOM     15  C   UNL     1       2.333   3.112  21.951  0.00  0.00    +0.000 A 
ATOM     16  C   UNL     1       2.417   4.440  21.516  0.00  0.00    +0.000 A 
ENDBRANCH   2  11
BRANCH   1  19
ATOM     17  O   UNL     1       4.984   5.535  19.402  0.00  0.00    +0.000 OA
ATOM     18  C   UNL     1       4.505   5.487  18.272  0.00  0.00    +0.000 C 
ATOM     19  N   UNL     1       3.339   6.103  17.864  0.00  0.00    +0.000 N 
ATOM     20  H   UNL     1       3.166   6.217  16.870  0.00  0.00    +0.000 HD
BRANCH  18  21
ATOM     21  C   UNL     1       5.249   4.750  17.166  0.00  0.00    +0.000 C 
ATOM     22  C   UNL     1       6.776   4.773  17.331  0.00  0.00    +0.000 C 
ATOM     23  C   UNL     1       7.216   5.547  16.087  0.00  0.00    +0.000 C 
ATOM     24  C   UNL     1       7.071   4.689  14.832  0.00  0.00    +0.000 C 
ATOM     25  C   UNL     1       5.547   4.613  14.676  0.00  0.00    +0.000 C 
ATOM     26  C   UNL     1       5.061   5.479  15.838  0.00  0.00    +0.000 C 
ATOM     27  O   UNL     1       6.120   6.473  15.914  0.00  0.00    +0.000 OA
ENDBRANCH  18  21
ENDBRANCH   1  19
TORSDOF 3
ENDMDL
MODEL 6
REMARK VINA RESULT:      -8.2      3.175      6.923
REMARK  Name = 
REMARK  3 active torsions:
REMARK  status: ('A' for Active; 'I' for Inactive)
REMARK    1  A    between atoms: C_2  and  C_19
REMARK    2  A    between atoms: N_3  and  C_4
REMARK    3  A    between atoms: C_5  and  C_6
REMARK                            x       y       z     vdW  Elec       q    Type
REMARK                         _______ _______ _______ _____ _____    ______ ____
ROOT
ATOM      1  C   UNL     1       2.622   6.843  18.604  0.00  0.00    +0.000 A 
ATOM      2  C   UNL     1       2.512   6.166  19.812  0.00  0.00    +0.000 A 
ATOM      3  N   UNL     1       1.906   7.055  20.680  0.00  0.00    +0.000 N 
ATOM      4  C   UNL     1       1.634   8.256  20.073  0.00  0.00    +0.000 A 
ATOM      5  C   UNL     1       1.063   9.424  20.590  0.00  0.00    +0.000 A 
ATOM      6  C   UNL     1       0.906  10.509  19.721  0.00  0.00    +0.000 A 
ATOM      7  C   UNL     1       1.311  10.427  18.390  0.00  0.00    +0.000 A 
ATOM      8  C   UNL     1       1.883   9.255  17.894  0.00  0.00    +0.000 A 
ATOM      9  C   UNL     1       2.047   8.141  18.750  0.00  0.00    +0.000 A 
ATOM     10  H   UNL     1       1.647   6.838  21.632  0.00  0.00    +0.000 HD
ENDROOT
BRANCH   2  11
ATOM     11  C   UNL     1       2.754   4.758  20.194  0.00  0.00    +0.000 A 
ATOM     12  C   UNL     1       3.810   4.023  19.646  0.00  0.00    +0.000 A 
ATOM     13  C   UNL     1       4.080   2.719  20.080  0.00  0.00    +0.000 A 
ATOM     14  C   UNL     1       3.280   2.125  21.056  0.00  0.00    +0.000 A 
ATOM     15  C   UNL     1       2.223   2.838  21.609  0.00  0.00    +0.000 A 
ATOM     16  C   UNL     1       1.972   4.149  21.189  0.00  0.00    +0.000 A 
ENDBRANCH   2  11
BRANCH   1  19
ATOM     17  O   UNL     1       5.342   7.281  17.857  0.00  0.00    +0.000 OA
ATOM     18  C   UNL     1       4.585   6.570  17.201  0.00  0.00    +0.000 C 
ATOM     19  N   UNL     1       3.251   6.342  17.477  0.00  0.00    +0.000 N 
ATOM     20  H   UNL     1       2.658   5.958  16.749  0.00  0.00    +0.000 HD
BRANCH  18  21
ATOM     21  C   UNL     1       5.087   5.905  15.926  0.00  0.00    +0.000 C 
ATOM     22  C   UNL     1       4.537   4.488  15.712  0.00  0.00    +0.000 C 
ATOM     23  C   UNL     1       5.811   3.643  15.765  0.00  0.00    +0.000 C 
ATOM     24  C   UNL     1       6.641   3.828  14.497  0.00  0.00    +0.000 C 
ATOM     25  C   UNL     1       7.162   5.260  14.667  0.00  0.00    +0.000 C 
ATOM     26  C   UNL     1       6.589   5.652  16.028  0.00  0.00    +0.000 C 
ATOM     27  O   UNL     1       6.608   4.375  16.723  0.00  0.00    +0.000 OA
ENDBRANCH  18  21
ENDBRANCH   1  19
TORSDOF 3
ENDMDL
MODEL 7
REMARK VINA RESULT:      -8.0      2.894      6.909
REMARK  Name = 
REMARK  3 active torsions:
REMARK  status: ('A' for Active; 'I' for Inactive)
REMARK    1  A    between atoms: C_2  and  C_19
REMARK    2  A    between atoms: N_3  and  C_4
REMARK    3  A    between atoms: C_5  and  C_6
REMARK                            x       y       z     vdW  Elec       q    Type
REMARK                         _______ _______ _______ _____ _____    ______ ____
ROOT
ATOM      1  C   UNL     1       2.739   6.273  18.621  0.00  0.00    +0.000 A 
ATOM      2  C   UNL     1       2.397   5.769  19.869  0.00  0.00    +0.000 A 
ATOM      3  N   UNL     1       1.815   6.824  20.548  0.00  0.00    +0.000 N 
ATOM      4  C   UNL     1       1.779   7.964  19.783  0.00  0.00    +0.000 A 
ATOM      5  C   UNL     1       1.311   9.246  20.090  0.00  0.00    +0.000 A 
ATOM      6  C   UNL     1       1.403  10.226  19.097  0.00  0.00    +0.000 A 
ATOM      7  C   UNL     1       1.949   9.933  17.849  0.00  0.00    +0.000 A 
ATOM      8  C   UNL     1       2.416   8.649  17.563  0.00  0.00    +0.000 A 
ATOM      9  C   UNL     1       2.327   7.638  18.547  0.00  0.00    +0.000 A 
ATOM     10  H   UNL     1       1.418   6.758  21.474  0.00  0.00    +0.000 HD
ENDROOT
BRANCH   2  11
ATOM     11  C   UNL     1       2.402   4.400  20.429  0.00  0.00    +0.000 A 
ATOM     12  C   UNL     1       3.551   3.601  20.396  0.00  0.00    +0.000 A 
ATOM     13  C   UNL     1       3.567   2.341  21.006  0.00  0.00    +0.000 A 
ATOM     14  C   UNL     1       2.425   1.855  21.642  0.00  0.00    +0.000 A 
ATOM     15  C   UNL     1       1.273   2.632  21.682  0.00  0.00    +0.000 A 
ATOM     16  C   UNL     1       1.270   3.900  21.091  0.00  0.00    +0.000 A 
ENDBRANCH   2  11
BRANCH   1  19
ATOM     17  O   UNL     1       5.549   5.773  18.570  0.00  0.00    +0.000 OA
ATOM     18  C   UNL     1       4.786   5.335  17.711  0.00  0.00    +0.000 C 
ATOM     19  N   UNL     1       3.426   5.566  17.649  0.00  0.00    +0.000 N 
ATOM     20  H   UNL     1       2.937   5.382  16.779  0.00  0.00    +0.000 HD
BRANCH  18  21
ATOM     21  C   UNL     1       5.340   4.512  16.556  0.00  0.00    +0.000 C 
ATOM     22  C   UNL     1       6.872   4.413  16.550  0.00  0.00    +0.000 C 
ATOM     23  C   UNL     1       7.228   5.116  15.239  0.00  0.00    +0.000 C 
ATOM     24  C   UNL     1       6.875   4.241  14.038  0.00  0.00    +0.000 C 
ATOM     25  C   UNL     1       5.342   4.287  14.055  0.00  0.00    +0.000 C 
ATOM     26  C   UNL     1       5.060   5.219  15.233  0.00  0.00    +0.000 C 
ATOM     27  O   UNL     1       6.196   6.124  15.156  0.00  0.00    +0.000 OA
ENDBRANCH  18  21
ENDBRANCH   1  19
TORSDOF 3
ENDMDL
MODEL 8
REMARK VINA RESULT:      -8.0      3.552      5.906
REMARK  Name = 
REMARK  3 active torsions:
REMARK  status: ('A' for Active; 'I' for Inactive)
REMARK    1  A    between atoms: C_2  and  C_19
REMARK    2  A    between atoms: N_3  and  C_4
REMARK    3  A    between atoms: C_5  and  C_6
REMARK                            x       y       z     vdW  Elec       q    Type
REMARK                         _______ _______ _______ _____ _____    ______ ____
ROOT
ATOM      1  C   UNL     1       3.178   5.290  19.417  0.00  0.00    +0.000 A 
ATOM      2  C   UNL     1       4.422   4.997  18.872  0.00  0.00    +0.000 A 
ATOM      3  N   UNL     1       4.338   3.685  18.442  0.00  0.00    +0.000 N 
ATOM      4  C   UNL     1       3.101   3.145  18.694  0.00  0.00    +0.000 A 
ATOM      5  C   UNL     1       2.609   1.857  18.453  0.00  0.00    +0.000 A 
ATOM      6  C   UNL     1       1.287   1.588  18.821  0.00  0.00    +0.000 A 
ATOM      7  C   UNL     1       0.493   2.569  19.413  0.00  0.00    +0.000 A 
ATOM      8  C   UNL     1       1.004   3.846  19.650  0.00  0.00    +0.000 A 
ATOM      9  C   UNL     1       2.335   4.146  19.281  0.00  0.00    +0.000 A 
ATOM     10  H   UNL     1       5.075   3.195  17.958  0.00  0.00    +0.000 HD
ENDROOT
BRANCH   2  11
ATOM     11  C   UNL     1       5.601   5.835  18.566  0.00  0.00    +0.000 A 
ATOM     12  C   UNL     1       6.822   5.648  19.223  0.00  0.00    +0.000 A 
ATOM     13  C   UNL     1       7.954   6.391  18.862  0.00  0.00    +0.000 A 
ATOM     14  C   UNL     1       7.872   7.346  17.851  0.00  0.00    +0.000 A 
ATOM     15  C   UNL     1       6.666   7.550  17.189  0.00  0.00    +0.000 A 
ATOM     16  C   UNL     1       5.545   6.789  17.537  0.00  0.00    +0.000 A 
ENDBRANCH   2  11
BRANCH   1  19
ATOM     17  O   UNL     1       1.963   7.563  18.190  0.00  0.00    +0.000 OA
ATOM     18  C   UNL     1       2.234   7.527  19.388  0.00  0.00    +0.000 C 
ATOM     19  N   UNL     1       2.855   6.482  20.042  0.00  0.00    +0.000 N 
ATOM     20  H   UNL     1       3.261   6.649  20.958  0.00  0.00    +0.000 HD
BRANCH  18  21
ATOM     21  C   UNL     1       1.942   8.737  20.266  0.00  0.00    +0.000 C 
ATOM     22  C   UNL     1       1.134   8.402  21.527  0.00  0.00    +0.000 C 
ATOM     23  C   UNL     1      -0.154   9.195  21.297  0.00  0.00    +0.000 C 
ATOM     24  C   UNL     1       0.084  10.690  21.493  0.00  0.00    +0.000 C 
ATOM     25  C   UNL     1       0.935  11.038  20.264  0.00  0.00    +0.000 C 
ATOM     26  C   UNL     1       1.008   9.697  19.534  0.00  0.00    +0.000 C 
ATOM     27  O   UNL     1      -0.289   9.125  19.860  0.00  0.00    +0.000 OA
ENDBRANCH  18  21
ENDBRANCH   1  19
TORSDOF 3
ENDMDL
MODEL 9
REMARK VINA RESULT:      -7.8      2.575      4.035
REMARK  Name = 
REMARK  3 active torsions:
REMARK  status: ('A' for Active; 'I' for Inactive)
REMARK    1  A    between atoms: C_2  and  C_19
REMARK    2  A    between atoms: N_3  and  C_4
REMARK    3  A    between atoms: C_5  and  C_6
REMARK                            x       y       z     vdW  Elec       q    Type
REMARK                         _______ _______ _______ _____ _____    ______ ____
ROOT
ATOM      1  C   UNL     1       4.075   5.271  17.459  0.00  0.00    +0.000 A 
ATOM      2  C   UNL     1       3.859   6.644  17.419  0.00  0.00    +0.000 A 
ATOM      3  N   UNL     1       4.641   7.111  16.379  0.00  0.00    +0.000 N 
ATOM      4  C   UNL     1       5.337   6.097  15.769  0.00  0.00    +0.000 A 
ATOM      5  C   UNL     1       6.254   6.135  14.712  0.00  0.00    +0.000 A 
ATOM      6  C   UNL     1       6.814   4.924  14.295  0.00  0.00    +0.000 A 
ATOM      7  C   UNL     1       6.474   3.724  14.917  0.00  0.00    +0.000 A 
ATOM      8  C   UNL     1       5.561   3.707  15.973  0.00  0.00    +0.000 A 
ATOM      9  C   UNL     1       4.975   4.917  16.410  0.00  0.00    +0.000 A 
ATOM     10  H   UNL     1       4.665   8.071  16.069  0.00  0.00    +0.000 HD
ENDROOT
BRANCH   2  11
ATOM     11  C   UNL     1       2.899   7.524  18.119  0.00  0.00    +0.000 A 
ATOM     12  C   UNL     1       2.467   7.246  19.421  0.00  0.00    +0.000 A 
ATOM     13  C   UNL     1       1.626   8.134  20.104  0.00  0.00    +0.000 A 
ATOM     14  C   UNL     1       1.190   9.304  19.484  0.00  0.00    +0.000 A 
ATOM     15  C   UNL     1       1.605   9.596  18.190  0.00  0.00    +0.000 A 
ATOM     16  C   UNL     1       2.464   8.717  17.520  0.00  0.00    +0.000 A 
ENDBRANCH   2  11
BRANCH   1  19
ATOM     17  O   UNL     1       2.107   3.253  17.008  0.00  0.00    +0.000 OA
ATOM     18  C   UNL     1       2.617   3.441  18.110  0.00  0.00    +0.000 C 
ATOM     19  N   UNL     1       3.543   4.420  18.412  0.00  0.00    +0.000 N 
ATOM     20  H   UNL     1       3.707   4.656  19.386  0.00  0.00    +0.000 HD
BRANCH  18  21
ATOM     21  C   UNL     1       2.183   2.594  19.298  0.00  0.00    +0.000 C 
ATOM     22  C   UNL     1       0.760   2.902  19.786  0.00  0.00    +0.000 C 
ATOM     23  C   UNL     1       1.017   3.420  21.203  0.00  0.00    +0.000 C 
ATOM     24  C   UNL     1       1.405   2.277  22.138  0.00  0.00    +0.000 C 
ATOM     25  C   UNL     1       2.809   1.920  21.635  0.00  0.00    +0.000 C 
ATOM     26  C   UNL     1       3.023   2.947  20.523  0.00  0.00    +0.000 C 
ATOM     27  O   UNL     1       2.288   4.088  21.045  0.00  0.00    +0.000 OA
ENDBRANCH  18  21
ENDBRANCH   1  19
TORSDOF 3
ENDMDL
