MODEL 1
REMARK VINA RESULT:      -8.7      0.000      0.000
REMARK  Name = 
REMARK  3 active torsions:
REMARK  status: ('A' for Active; 'I' for Inactive)
REMARK    1  A    between atoms: C_1  and  C_2
REMARK    2  A    between atoms: C_4  and  C_5
REMARK    3  A    between atoms: C_10  and  C_11
REMARK                            x       y       z     vdW  Elec       q    Type
REMARK                         _______ _______ _______ _____ _____    ______ ____
ROOT
ATOM      1  C   UNL     1       2.474   7.425  18.678  0.00  0.00    +0.000 C 
ATOM      2  O   UNL     1       2.311   7.464  19.893  0.00  0.00    +0.000 OA
ATOM      3  N   UNL     1       1.869   8.285  17.779  0.00  0.00    +0.000 N 
ATOM      4  C   UNL     1       0.976   9.232  18.227  0.00  0.00    +0.000 A 
ATOM      5  N   UNL     1      -0.052   9.696  17.558  0.00  0.00    +0.000 NA
ATOM      6  C   UNL     1      -0.711  10.490  18.483  0.00  0.00    +0.000 A 
ATOM      7  N   UNL     1      -0.028  10.663  19.628  0.00  0.00    +0.000 NA
ATOM      8  N   UNL     1       1.011   9.829  19.456  0.00  0.00    +0.000 N 
ATOM      9  H   UNL     1       1.807   8.051  16.796  0.00  0.00    +0.000 HD
ATOM     10  H   UNL     1       1.698   9.704  20.193  0.00  0.00    +0.000 HD
ENDROOT
BRANCH   1  14
ATOM     11  C   UNL     1       6.953   6.269  16.865  0.00  0.00    +0.000 C 
ATOM     12  C   UNL     1       5.560   5.891  17.256  0.00  0.00    +0.000 A 
ATOM     13  C   UNL     1       4.652   6.833  17.699  0.00  0.00    +0.000 A 
ATOM     14  C   UNL     1       3.377   6.406  18.084  0.00  0.00    +0.000 A 
ATOM     15  C   UNL     1       3.034   5.029  18.014  0.00  0.00    +0.000 A 
ATOM     16  C   UNL     1       1.772   4.470  18.345  0.00  0.00    +0.000 A 
ATOM     17  C   UNL     1       1.535   3.098  18.245  0.00  0.00    +0.000 A 
ATOM     18  C   UNL     1       2.549   2.256  17.811  0.00  0.00    +0.000 A 
ATOM     19  C   UNL     1       3.786   2.796  17.466  0.00  0.00    +0.000 A 
ATOM     20  C   UNL     1       4.041   4.158  17.547  0.00  0.00    +0.000 A 
ATOM     21  N   UNL     1       5.261   4.578  17.180  0.00  0.00    +0.000 NA
ENDBRANCH   1  14
BRANCH   6  22
ATOM     22  C   UNL     1      -2.060  11.007  18.261  0.00  0.00    +0.000 A 
ATOM     23  C   UNL     1      -2.734  10.739  17.059  0.00  0.00    +0.000 A 
ATOM     24  C   UNL     1      -4.047  11.178  16.864  0.00  0.00    +0.000 A 
ATOM     25  C   UNL     1      -4.701  11.895  17.865  0.00  0.00    +0.000 A 
ATOM     26  C   UNL     1      -4.045  12.168  19.064  0.00  0.00    +0.000 A 
ATOM     27  C   UNL     1      -2.734  11.723  19.262  0.00  0.00    +0.000 A 
ENDBRANCH   6  22
TORSDOF 2
ENDMDL
MODEL 2
REMARK VINA RESULT:      -8.6      2.199      2.698
REMARK  Name = 
REMARK  3 active torsions:
REMARK  status: ('A' for Active; 'I' for Inactive)
REMARK    1  A    between atoms: C_1  and  C_2
REMARK    2  A    between atoms: C_4  and  C_5
REMARK    3  A    between atoms: C_10  and  C_11
REMARK                            x       y       z     vdW  Elec       q    Type
REMARK                         _______ _______ _______ _____ _____    ______ ____
ROOT
ATOM      1  C   UNL     1       2.101   6.790  20.008  0.00  0.00    +0.000 C 
ATOM      2  O   UNL     1       1.908   6.281  21.107  0.00  0.00    +0.000 OA
ATOM      3  N   UNL     1       1.843   8.115  19.702  0.00  0.00    +0.000 N 
ATOM      4  C   UNL     1       1.283   8.943  20.648  0.00  0.00    +0.000 A 
ATOM      5  N   UNL     1       0.487   9.957  20.407  0.00  0.00    +0.000 NA
ATOM      6  C   UNL     1       0.080  10.358  21.669  0.00  0.00    +0.000 A 
ATOM      7  N   UNL     1       0.732   9.739  22.669  0.00  0.00    +0.000 NA
ATOM      8  N   UNL     1       1.455   8.825  21.999  0.00  0.00    +0.000 N 
ATOM      9  H   UNL     1       1.752   8.417  18.741  0.00  0.00    +0.000 HD
ATOM     10  H   UNL     1       2.033   8.159  22.501  0.00  0.00    +0.000 HD
ENDROOT
BRANCH   1  14
ATOM     11  C   UNL     1       5.335   6.354  16.261  0.00  0.00    +0.000 C 
ATOM     12  C   UNL     1       4.254   5.796  17.132  0.00  0.00    +0.000 A 
ATOM     13  C   UNL     1       3.631   6.566  18.094  0.00  0.00    +0.000 A 
ATOM     14  C   UNL     1       2.654   5.970  18.899  0.00  0.00    +0.000 A 
ATOM     15  C   UNL     1       2.317   4.602  18.719  0.00  0.00    +0.000 A 
ATOM     16  C   UNL     1       1.329   3.888  19.445  0.00  0.00    +0.000 A 
ATOM     17  C   UNL     1       1.074   2.538  19.194  0.00  0.00    +0.000 A 
ATOM     18  C   UNL     1       1.797   1.875  18.214  0.00  0.00    +0.000 A 
ATOM     19  C   UNL     1       2.757   2.570  17.481  0.00  0.00    +0.000 A 
ATOM     20  C   UNL     1       3.020   3.914  17.707  0.00  0.00    +0.000 A 
ATOM     21  N   UNL     1       3.954   4.495  16.940  0.00  0.00    +0.000 NA
ENDBRANCH   1  14
BRANCH   6  22
ATOM     22  C   UNL     1      -1.022  11.295  21.882  0.00  0.00    +0.000 A 
ATOM     23  C   UNL     1      -1.511  12.068  20.818  0.00  0.00    +0.000 A 
ATOM     24  C   UNL     1      -2.604  12.923  21.000  0.00  0.00    +0.000 A 
ATOM     25  C   UNL     1      -3.217  13.018  22.248  0.00  0.00    +0.000 A 
ATOM     26  C   UNL     1      -2.743  12.256  23.314  0.00  0.00    +0.000 A 
ATOM     27  C   UNL     1      -1.654  11.397  23.131  0.00  0.00    +0.000 A 
ENDBRANCH   6  22
TORSDOF 2
ENDMDL
MODEL 3
REMARK VINA RESULT:      -8.3      1.883      8.481
REMARK  Name = 
REMARK  3 active torsions:
REMARK  status: ('A' for Active; 'I' for Inactive)
REMARK    1  A    between atoms: C_1  and  C_2
REMARK    2  A    between atoms: C_4  and  C_5
REMARK    3  A    between atoms: C_10  and  C_11
REMARK                            x       y       z     vdW  Elec       q    Type
REMARK                         _______ _______ _______ _____ _____    ______ ____
ROOT
ATOM      1  C   UNL     1       1.163   9.650  18.568  0.00  0.00    +0.000 C 
ATOM      2  O   UNL     1       1.555   9.749  17.409  0.00  0.00    +0.000 OA
ATOM      3  N   UNL     1       1.534   8.638  19.435  0.00  0.00    +0.000 N 
ATOM      4  C   UNL     1       2.355   7.623  18.999  0.00  0.00    +0.000 A 
ATOM      5  N   UNL     1       2.341   6.385  19.430  0.00  0.00    +0.000 NA
ATOM      6  C   UNL     1       3.226   5.736  18.584  0.00  0.00    +0.000 A 
ATOM      7  N   UNL     1       3.904   6.566  17.772  0.00  0.00    +0.000 NA
ATOM      8  N   UNL     1       3.308   7.743  18.026  0.00  0.00    +0.000 N 
ATOM      9  H   UNL     1       0.988   8.438  20.264  0.00  0.00    +0.000 HD
ATOM     10  H   UNL     1       3.581   8.578  17.517  0.00  0.00    +0.000 HD
ENDROOT
BRANCH   1  14
ATOM     11  C   UNL     1       0.487  13.726  21.326  0.00  0.00    +0.000 C 
ATOM     12  C   UNL     1      -0.035  12.648  20.431  0.00  0.00    +0.000 A 
ATOM     13  C   UNL     1       0.774  11.619  19.990  0.00  0.00    +0.000 A 
ATOM     14  C   UNL     1       0.231  10.664  19.124  0.00  0.00    +0.000 A 
ATOM     15  C   UNL     1      -1.126  10.761  18.714  0.00  0.00    +0.000 A 
ATOM     16  C   UNL     1      -1.804   9.847  17.867  0.00  0.00    +0.000 A 
ATOM     17  C   UNL     1      -3.143  10.033  17.519  0.00  0.00    +0.000 A 
ATOM     18  C   UNL     1      -3.834  11.130  18.011  0.00  0.00    +0.000 A 
ATOM     19  C   UNL     1      -3.184  12.025  18.859  0.00  0.00    +0.000 A 
ATOM     20  C   UNL     1      -1.856  11.854  19.226  0.00  0.00    +0.000 A 
ATOM     21  N   UNL     1      -1.326  12.764  20.058  0.00  0.00    +0.000 NA
ENDBRANCH   1  14
BRANCH   6  22
ATOM     22  C   UNL     1       3.335   4.279  18.522  0.00  0.00    +0.000 A 
ATOM     23  C   UNL     1       4.209   3.596  19.383  0.00  0.00    +0.000 A 
ATOM     24  C   UNL     1       4.275   2.199  19.372  0.00  0.00    +0.000 A 
ATOM     25  C   UNL     1       3.471   1.468  18.498  0.00  0.00    +0.000 A 
ATOM     26  C   UNL     1       2.598   2.132  17.638  0.00  0.00    +0.000 A 
ATOM     27  C   UNL     1       2.528   3.529  17.654  0.00  0.00    +0.000 A 
ENDBRANCH   6  22
TORSDOF 2
ENDMDL
MODEL 4
REMARK VINA RESULT:      -8.3      2.405      2.874
REMARK  Name = 
REMARK  3 active torsions:
REMARK  status: ('A' for Active; 'I' for Inactive)
REMARK    1  A    between atoms: C_1  and  C_2
REMARK    2  A    between atoms: C_4  and  C_5
REMARK    3  A    between atoms: C_10  and  C_11
REMARK                            x       y       z     vdW  Elec       q    Type
REMARK                         _______ _______ _______ _____ _____    ______ ____
ROOT
ATOM      1  C   UNL     1       2.858   7.691  17.948  0.00  0.00    +0.000 C 
ATOM      2  O   UNL     1       2.824   8.504  17.029  0.00  0.00    +0.000 OA
ATOM      3  N   UNL     1       2.107   7.788  19.106  0.00  0.00    +0.000 N 
ATOM      4  C   UNL     1       1.291   8.877  19.309  0.00  0.00    +0.000 A 
ATOM      5  N   UNL     1       0.990   9.406  20.471  0.00  0.00    +0.000 NA
ATOM      6  C   UNL     1       0.283  10.549  20.134  0.00  0.00    +0.000 A 
ATOM      7  N   UNL     1      -0.003  10.640  18.824  0.00  0.00    +0.000 NA
ATOM      8  N   UNL     1       0.676   9.596  18.322  0.00  0.00    +0.000 N 
ATOM      9  H   UNL     1       2.363   7.268  19.936  0.00  0.00    +0.000 HD
ATOM     10  H   UNL     1       0.689   9.424  17.322  0.00  0.00    +0.000 HD
ENDROOT
BRANCH   1  14
ATOM     11  C   UNL     1       7.467   5.837  17.898  0.00  0.00    +0.000 C 
ATOM     12  C   UNL     1       5.982   5.659  17.874  0.00  0.00    +0.000 A 
ATOM     13  C   UNL     1       5.125   6.741  17.837  0.00  0.00    +0.000 A 
ATOM     14  C   UNL     1       3.746   6.504  17.855  0.00  0.00    +0.000 A 
ATOM     15  C   UNL     1       3.251   5.174  17.907  0.00  0.00    +0.000 A 
ATOM     16  C   UNL     1       1.883   4.797  17.900  0.00  0.00    +0.000 A 
ATOM     17  C   UNL     1       1.497   3.456  17.958  0.00  0.00    +0.000 A 
ATOM     18  C   UNL     1       2.465   2.465  18.021  0.00  0.00    +0.000 A 
ATOM     19  C   UNL     1       3.813   2.823  18.009  0.00  0.00    +0.000 A 
ATOM     20  C   UNL     1       4.219   4.148  17.942  0.00  0.00    +0.000 A 
ATOM     21  N   UNL     1       5.539   4.386  17.924  0.00  0.00    +0.000 NA
ENDBRANCH   1  14
BRANCH   6  22
ATOM     22  C   UNL     1      -0.032  11.597  21.104  0.00  0.00    +0.000 A 
ATOM     23  C   UNL     1       0.545  12.871  20.985  0.00  0.00    +0.000 A 
ATOM     24  C   UNL     1       0.201  13.896  21.873  0.00  0.00    +0.000 A 
ATOM     25  C   UNL     1      -0.718  13.658  22.893  0.00  0.00    +0.000 A 
ATOM     26  C   UNL     1      -1.299  12.398  23.024  0.00  0.00    +0.000 A 
ATOM     27  C   UNL     1      -0.961  11.375  22.132  0.00  0.00    +0.000 A 
ENDBRANCH   6  22
TORSDOF 2
ENDMDL
MODEL 5
REMARK VINA RESULT:      -8.1      1.226      1.231
REMARK  Name = 
REMARK  3 active torsions:
REMARK  status: ('A' for Active; 'I' for Inactive)
REMARK    1  A    between atoms: C_1  and  C_2
REMARK    2  A    between atoms: C_4  and  C_5
REMARK    3  A    between atoms: C_10  and  C_11
REMARK                            x       y       z     vdW  Elec       q    Type
REMARK                         _______ _______ _______ _____ _____    ______ ____
ROOT
ATOM      1  C   UNL     1       2.222   7.598  19.098  0.00  0.00    +0.000 C 
ATOM      2  O   UNL     1       2.050   7.912  20.271  0.00  0.00    +0.000 OA
ATOM      3  N   UNL     1       1.631   8.239  18.022  0.00  0.00    +0.000 N 
ATOM      4  C   UNL     1       0.746   9.270  18.237  0.00  0.00    +0.000 A 
ATOM      5  N   UNL     1      -0.273   9.579  17.471  0.00  0.00    +0.000 NA
ATOM      6  C   UNL     1      -0.930  10.567  18.187  0.00  0.00    +0.000 A 
ATOM      7  N   UNL     1      -0.253  10.989  19.270  0.00  0.00    +0.000 NA
ATOM      8  N   UNL     1       0.778  10.128  19.300  0.00  0.00    +0.000 N 
ATOM      9  H   UNL     1       1.574   7.789  17.118  0.00  0.00    +0.000 HD
ATOM     10  H   UNL     1       1.458  10.167  20.052  0.00  0.00    +0.000 HD
ENDROOT
BRANCH   1  14
ATOM     11  C   UNL     1       6.172   5.918  16.597  0.00  0.00    +0.000 C 
ATOM     12  C   UNL     1       5.048   5.714  17.562  0.00  0.00    +0.000 A 
ATOM     13  C   UNL     1       4.122   6.707  17.814  0.00  0.00    +0.000 A 
ATOM     14  C   UNL     1       3.118   6.463  18.757  0.00  0.00    +0.000 A 
ATOM     15  C   UNL     1       3.062   5.215  19.434  0.00  0.00    +0.000 A 
ATOM     16  C   UNL     1       2.083   4.832  20.387  0.00  0.00    +0.000 A 
ATOM     17  C   UNL     1       2.117   3.578  21.001  0.00  0.00    +0.000 A 
ATOM     18  C   UNL     1       3.124   2.682  20.676  0.00  0.00    +0.000 A 
ATOM     19  C   UNL     1       4.080   3.041  19.728  0.00  0.00    +0.000 A 
ATOM     20  C   UNL     1       4.061   4.277  19.097  0.00  0.00    +0.000 A 
ATOM     21  N   UNL     1       5.018   4.521  18.190  0.00  0.00    +0.000 NA
ENDBRANCH   1  14
BRANCH   6  22
ATOM     22  C   UNL     1      -2.272  11.032  17.842  0.00  0.00    +0.000 A 
ATOM     23  C   UNL     1      -2.779  10.839  16.547  0.00  0.00    +0.000 A 
ATOM     24  C   UNL     1      -4.084  11.226  16.227  0.00  0.00    +0.000 A 
ATOM     25  C   UNL     1      -4.897  11.816  17.194  0.00  0.00    +0.000 A 
ATOM     26  C   UNL     1      -4.407  12.014  18.484  0.00  0.00    +0.000 A 
ATOM     27  C   UNL     1      -3.104  11.621  18.806  0.00  0.00    +0.000 A 
ENDBRANCH   6  22
TORSDOF 2
ENDMDL
MODEL 6
REMARK VINA RESULT:      -8.0      2.422      2.916
REMARK  Name = 
REMARK  3 active torsions:
REMARK  status: ('A' for Active; 'I' for Inactive)
REMARK    1  A    between atoms: C_1  and  C_2
REMARK    2  A    between atoms: C_4  and  C_5
REMARK    3  A    between atoms: C_10  and  C_11
REMARK                            x       y       z     vdW  Elec       q    Type
REMARK                         _______ _______ _______ _____ _____    ______ ____
ROOT
ATOM      1  C   UNL     1       2.958   7.395  18.072  0.00  0.00    +0.000 C 
ATOM      2  O   UNL     1       2.983   8.131  17.091  0.00  0.00    +0.000 OA
ATOM      3  N   UNL     1       2.172   7.610  19.191  0.00  0.00    +0.000 N 
ATOM      4  C   UNL     1       1.389   8.738  19.277  0.00  0.00    +0.000 A 
ATOM      5  N   UNL     1       1.069   9.369  20.381  0.00  0.00    +0.000 NA
ATOM      6  C   UNL     1       0.416  10.504  19.929  0.00  0.00    +0.000 A 
ATOM      7  N   UNL     1       0.176  10.498  18.606  0.00  0.00    +0.000 NA
ATOM      8  N   UNL     1       0.834   9.395  18.214  0.00  0.00    +0.000 N 
ATOM      9  H   UNL     1       2.382   7.150  20.068  0.00  0.00    +0.000 HD
ATOM     10  H   UNL     1       0.875   9.142  17.232  0.00  0.00    +0.000 HD
ENDROOT
BRANCH   1  14
ATOM     11  C   UNL     1       7.486   5.387  18.458  0.00  0.00    +0.000 C 
ATOM     12  C   UNL     1       6.001   5.259  18.334  0.00  0.00    +0.000 A 
ATOM     13  C   UNL     1       5.189   6.365  18.178  0.00  0.00    +0.000 A 
ATOM     14  C   UNL     1       3.806   6.176  18.106  0.00  0.00    +0.000 A 
ATOM     15  C   UNL     1       3.258   4.867  18.190  0.00  0.00    +0.000 A 
ATOM     16  C   UNL     1       1.881   4.537  18.102  0.00  0.00    +0.000 A 
ATOM     17  C   UNL     1       1.443   3.215  18.199  0.00  0.00    +0.000 A 
ATOM     18  C   UNL     1       2.366   2.197  18.385  0.00  0.00    +0.000 A 
ATOM     19  C   UNL     1       3.723   2.508  18.454  0.00  0.00    +0.000 A 
ATOM     20  C   UNL     1       4.183   3.813  18.350  0.00  0.00    +0.000 A 
ATOM     21  N   UNL     1       5.509   4.006  18.416  0.00  0.00    +0.000 NA
ENDBRANCH   1  14
BRANCH   6  22
ATOM     22  C   UNL     1       0.106  11.636  20.801  0.00  0.00    +0.000 A 
ATOM     23  C   UNL     1      -0.846  11.504  21.824  0.00  0.00    +0.000 A 
ATOM     24  C   UNL     1      -1.104  12.564  22.700  0.00  0.00    +0.000 A 
ATOM     25  C   UNL     1      -0.417  13.769  22.561  0.00  0.00    +0.000 A 
ATOM     26  C   UNL     1       0.532  13.914  21.551  0.00  0.00    +0.000 A 
ATOM     27  C   UNL     1       0.794  12.853  20.679  0.00  0.00    +0.000 A 
ENDBRANCH   6  22
TORSDOF 2
ENDMDL
MODEL 7
REMARK VINA RESULT:      -8.0      1.190      1.542
REMARK  Name = 
REMARK  3 active torsions:
REMARK  status: ('A' for Active; 'I' for Inactive)
REMARK    1  A    between atoms: C_1  and  C_2
REMARK    2  A    between atoms: C_4  and  C_5
REMARK    3  A    between atoms: C_10  and  C_11
REMARK                            x       y       z     vdW  Elec       q    Type
REMARK                         _______ _______ _______ _____ _____    ______ ____
ROOT
ATOM      1  C   UNL     1       2.417   7.423  19.041  0.00  0.00    +0.000 C 
ATOM      2  O   UNL     1       2.163   7.679  20.213  0.00  0.00    +0.000 OA
ATOM      3  N   UNL     1       1.866   8.086  17.958  0.00  0.00    +0.000 N 
ATOM      4  C   UNL     1       0.927   9.072  18.160  0.00  0.00    +0.000 A 
ATOM      5  N   UNL     1      -0.057   9.374  17.347  0.00  0.00    +0.000 NA
ATOM      6  C   UNL     1      -0.795  10.304  18.061  0.00  0.00    +0.000 A 
ATOM      7  N   UNL     1      -0.203  10.704  19.200  0.00  0.00    +0.000 NA
ATOM      8  N   UNL     1       0.860   9.884  19.258  0.00  0.00    +0.000 N 
ATOM      9  H   UNL     1       1.882   7.675  17.034  0.00  0.00    +0.000 HD
ATOM     10  H   UNL     1       1.492   9.917  20.051  0.00  0.00    +0.000 HD
ENDROOT
BRANCH   1  14
ATOM     11  C   UNL     1       6.551   5.998  16.683  0.00  0.00    +0.000 C 
ATOM     12  C   UNL     1       5.394   5.715  17.587  0.00  0.00    +0.000 A 
ATOM     13  C   UNL     1       4.413   6.658  17.824  0.00  0.00    +0.000 A 
ATOM     14  C   UNL     1       3.379   6.340  18.709  0.00  0.00    +0.000 A 
ATOM     15  C   UNL     1       3.347   5.070  19.345  0.00  0.00    +0.000 A 
ATOM     16  C   UNL     1       2.343   4.614  20.237  0.00  0.00    +0.000 A 
ATOM     17  C   UNL     1       2.405   3.343  20.814  0.00  0.00    +0.000 A 
ATOM     18  C   UNL     1       3.465   2.503  20.511  0.00  0.00    +0.000 A 
ATOM     19  C   UNL     1       4.448   2.934  19.621  0.00  0.00    +0.000 A 
ATOM     20  C   UNL     1       4.402   4.188  19.029  0.00  0.00    +0.000 A 
ATOM     21  N   UNL     1       5.389   4.502  18.176  0.00  0.00    +0.000 NA
ENDBRANCH   1  14
BRANCH   6  22
ATOM     22  C   UNL     1      -2.133  10.731  17.653  0.00  0.00    +0.000 A 
ATOM     23  C   UNL     1      -2.966  11.411  18.555  0.00  0.00    +0.000 A 
ATOM     24  C   UNL     1      -4.223  11.876  18.155  0.00  0.00    +0.000 A 
ATOM     25  C   UNL     1      -4.663  11.664  16.849  0.00  0.00    +0.000 A 
ATOM     26  C   UNL     1      -3.847  10.991  15.942  0.00  0.00    +0.000 A 
ATOM     27  C   UNL     1      -2.588  10.531  16.341  0.00  0.00    +0.000 A 
ENDBRANCH   6  22
TORSDOF 2
ENDMDL
MODEL 8
REMARK VINA RESULT:      -8.0      1.310      1.745
REMARK  Name = 
REMARK  3 active torsions:
REMARK  status: ('A' for Active; 'I' for Inactive)
REMARK    1  A    between atoms: C_1  and  C_2
REMARK    2  A    between atoms: C_4  and  C_5
REMARK    3  A    between atoms: C_10  and  C_11
REMARK                            x       y       z     vdW  Elec       q    Type
REMARK                         _______ _______ _______ _____ _____    ______ ____
ROOT
ATOM      1  C   UNL     1       1.861   8.158  19.016  0.00  0.00    +0.000 C 
ATOM      2  O   UNL     1       1.867   8.569  20.172  0.00  0.00    +0.000 OA
ATOM      3  N   UNL     1       1.090   8.693  17.999  0.00  0.00    +0.000 N 
ATOM      4  C   UNL     1       0.219   9.724  18.266  0.00  0.00    +0.000 A 
ATOM      5  N   UNL     1      -0.917   9.950  17.649  0.00  0.00    +0.000 NA
ATOM      6  C   UNL     1      -1.482  10.985  18.376  0.00  0.00    +0.000 A 
ATOM      7  N   UNL     1      -0.657  11.509  19.299  0.00  0.00    +0.000 NA
ATOM      8  N   UNL     1       0.392  10.672  19.236  0.00  0.00    +0.000 N 
ATOM      9  H   UNL     1       0.905   8.166  17.155  0.00  0.00    +0.000 HD
ATOM     10  H   UNL     1       1.181  10.787  19.864  0.00  0.00    +0.000 HD
ENDROOT
BRANCH   1  14
ATOM     11  C   UNL     1       5.611   6.414  16.264  0.00  0.00    +0.000 C 
ATOM     12  C   UNL     1       4.561   6.233  17.313  0.00  0.00    +0.000 A 
ATOM     13  C   UNL     1       3.659   7.235  17.614  0.00  0.00    +0.000 A 
ATOM     14  C   UNL     1       2.727   7.013  18.632  0.00  0.00    +0.000 A 
ATOM     15  C   UNL     1       2.716   5.778  19.335  0.00  0.00    +0.000 A 
ATOM     16  C   UNL     1       1.809   5.417  20.364  0.00  0.00    +0.000 A 
ATOM     17  C   UNL     1       1.884   4.175  20.997  0.00  0.00    +0.000 A 
ATOM     18  C   UNL     1       2.862   3.268  20.616  0.00  0.00    +0.000 A 
ATOM     19  C   UNL     1       3.747   3.605  19.594  0.00  0.00    +0.000 A 
ATOM     20  C   UNL     1       3.685   4.829  18.943  0.00  0.00    +0.000 A 
ATOM     21  N   UNL     1       4.574   5.052  17.964  0.00  0.00    +0.000 NA
ENDBRANCH   1  14
BRANCH   6  22
ATOM     22  C   UNL     1      -2.875  11.396  18.212  0.00  0.00    +0.000 A 
ATOM     23  C   UNL     1      -3.562  12.012  19.270  0.00  0.00    +0.000 A 
ATOM     24  C   UNL     1      -4.876  12.463  19.101  0.00  0.00    +0.000 A 
ATOM     25  C   UNL     1      -5.519  12.301  17.875  0.00  0.00    +0.000 A 
ATOM     26  C   UNL     1      -4.849  11.692  16.815  0.00  0.00    +0.000 A 
ATOM     27  C   UNL     1      -3.534  11.246  16.982  0.00  0.00    +0.000 A 
ENDBRANCH   6  22
TORSDOF 2
ENDMDL
MODEL 9
REMARK VINA RESULT:      -8.0      1.922      2.472
REMARK  Name = 
REMARK  3 active torsions:
REMARK  status: ('A' for Active; 'I' for Inactive)
REMARK    1  A    between atoms: C_1  and  C_2
REMARK    2  A    between atoms: C_4  and  C_5
REMARK    3  A    between atoms: C_10  and  C_11
REMARK                            x       y       z     vdW  Elec       q    Type
REMARK                         _______ _______ _______ _____ _____    ______ ____
ROOT
ATOM      1  C   UNL     1       1.860   7.715  20.130  0.00  0.00    +0.000 C 
ATOM      2  O   UNL     1       1.965   7.567  21.343  0.00  0.00    +0.000 OA
ATOM      3  N   UNL     1       1.257   8.804  19.524  0.00  0.00    +0.000 N 
ATOM      4  C   UNL     1       0.678   9.787  20.293  0.00  0.00    +0.000 A 
ATOM      5  N   UNL     1      -0.359  10.516  19.956  0.00  0.00    +0.000 NA
ATOM      6  C   UNL     1      -0.643  11.231  21.108  0.00  0.00    +0.000 A 
ATOM      7  N   UNL     1       0.285  11.092  22.072  0.00  0.00    +0.000 NA
ATOM      8  N   UNL     1       1.084  10.147  21.548  0.00  0.00    +0.000 N 
ATOM      9  H   UNL     1       0.947   8.757  18.562  0.00  0.00    +0.000 HD
ATOM     10  H   UNL     1       1.872   9.790  22.077  0.00  0.00    +0.000 HD
ENDROOT
BRANCH   1  14
ATOM     11  C   UNL     1       4.921   6.567  16.389  0.00  0.00    +0.000 C 
ATOM     12  C   UNL     1       3.920   6.178  17.431  0.00  0.00    +0.000 A 
ATOM     13  C   UNL     1       3.302   7.122  18.227  0.00  0.00    +0.000 A 
ATOM     14  C   UNL     1       2.404   6.686  19.207  0.00  0.00    +0.000 A 
ATOM     15  C   UNL     1       2.141   5.299  19.369  0.00  0.00    +0.000 A 
ATOM     16  C   UNL     1       1.235   4.730  20.301  0.00  0.00    +0.000 A 
ATOM     17  C   UNL     1       1.049   3.348  20.385  0.00  0.00    +0.000 A 
ATOM     18  C   UNL     1       1.760   2.508  19.541  0.00  0.00    +0.000 A 
ATOM     19  C   UNL     1       2.639   3.057  18.608  0.00  0.00    +0.000 A 
ATOM     20  C   UNL     1       2.832   4.427  18.501  0.00  0.00    +0.000 A 
ATOM     21  N   UNL     1       3.690   4.856  17.563  0.00  0.00    +0.000 NA
ENDBRANCH   1  14
BRANCH   6  22
ATOM     22  C   UNL     1      -1.883  11.985  21.284  0.00  0.00    +0.000 A 
ATOM     23  C   UNL     1      -2.612  12.422  20.167  0.00  0.00    +0.000 A 
ATOM     24  C   UNL     1      -3.830  13.091  20.327  0.00  0.00    +0.000 A 
ATOM     25  C   UNL     1      -4.332  13.334  21.605  0.00  0.00    +0.000 A 
ATOM     26  C   UNL     1      -3.620  12.905  22.723  0.00  0.00    +0.000 A 
ATOM     27  C   UNL     1      -2.405  12.231  22.563  0.00  0.00    +0.000 A 
ENDBRANCH   6  22
TORSDOF 2
ENDMDL
