MODEL 1
REMARK VINA RESULT:      -9.0      0.000      0.000
REMARK  Name = 
REMARK  6 active torsions:
REMARK  status: ('A' for Active; 'I' for Inactive)
REMARK    1  A    between atoms: C_1  and  N_2
REMARK    2  A    between atoms: C_6  and  C_7
REMARK    3  A    between atoms: N_16  and  C_17
REMARK    4  A    between atoms: C_21  and  C_22
REMARK    5  A    between atoms: C_22  and  C_23
REMARK    6  A    between atoms: N_27  and  C_28
REMARK                            x       y       z     vdW  Elec       q    Type
REMARK                         _______ _______ _______ _____ _____    ______ ____
ROOT
ATOM      1  C   UNL     1       2.862   2.534  20.981  0.00  0.00    +0.000 C 
ATOM      2  N   UNL     1       2.811   2.699  19.539  0.00  0.00    +0.000 N 
ATOM      3  C   UNL     1       3.750   1.979  18.688  0.00  0.00    +0.000 C 
ATOM      4  C   UNL     1       4.053   3.317  18.118  0.00  0.00    +0.000 A 
ATOM      5  C   UNL     1       4.789   4.056  17.216  0.00  0.00    +0.000 A 
ATOM      6  C   UNL     1       4.596   5.454  17.177  0.00  0.00    +0.000 A 
ATOM      7  C   UNL     1       3.666   6.019  18.077  0.00  0.00    +0.000 A 
ATOM      8  C   UNL     1       2.981   5.222  19.001  0.00  0.00    +0.000 A 
ATOM      9  C   UNL     1       3.168   3.883  18.996  0.00  0.00    +0.000 A 
ATOM     10  C   UNL     1       2.100   6.065  19.800  0.00  0.00    +0.000 C 
ATOM     11  O   UNL     1       1.434   5.617  20.717  0.00  0.00    +0.000 OA
ATOM     12  N   UNL     1       2.221   7.371  19.312  0.00  0.00    +0.000 N 
ATOM     13  C   UNL     1       3.200   7.446  18.227  0.00  0.00    +0.000 C 
ENDROOT
BRANCH  12  14
ATOM     14  C   UNL     1       1.549   8.514  19.836  0.00  0.00    +0.000 A 
ATOM     15  C   UNL     1       1.353   8.665  21.211  0.00  0.00    +0.000 A 
ATOM     16  C   UNL     1       0.777   9.825  21.697  0.00  0.00    +0.000 A 
ATOM     17  N   UNL     1       0.317  10.815  20.911  0.00  0.00    +0.000 NA
ATOM     18  C   UNL     1       0.419  10.636  19.571  0.00  0.00    +0.000 A 
ATOM     19  C   UNL     1       1.062   9.529  19.004  0.00  0.00    +0.000 A 
BRANCH  18  20
ATOM     20  C   UNL     1      -0.291  11.658  18.716  0.00  0.00    +0.000 C 
BRANCH  20  21
ATOM     21  C   UNL     1      -1.775  11.587  18.734  0.00  0.00    +0.000 A 
ATOM     22  N   UNL     1      -2.566  12.247  19.558  0.00  0.00    +0.000 NA
ATOM     23  N   UNL     1      -3.864  12.052  19.155  0.00  0.00    +0.000 NA
ATOM     24  C   UNL     1      -3.840  11.267  18.105  0.00  0.00    +0.000 A 
ATOM     25  N   UNL     1      -2.555  10.910  17.832  0.00  0.00    +0.000 N 
ATOM     26  C   UNL     1      -2.130  10.010  16.794  0.00  0.00    +0.000 C 
ENDBRANCH  20  21
ENDBRANCH  18  20
ENDBRANCH  12  14
BRANCH   6  27
ATOM     27  C   UNL     1       5.382   6.285  16.193  0.00  0.00    +0.000 C 
ATOM     28  F   UNL     1       4.595   7.043  15.377  0.00  0.00    +0.000 F 
ATOM     29  F   UNL     1       6.234   7.150  16.804  0.00  0.00    +0.000 F 
ATOM     30  F   UNL     1       6.147   5.520  15.366  0.00  0.00    +0.000 F 
ENDBRANCH   6  27
TORSDOF 4
ENDMDL
MODEL 2
REMARK VINA RESULT:      -8.9      0.560      1.294
REMARK  Name = 
REMARK  6 active torsions:
REMARK  status: ('A' for Active; 'I' for Inactive)
REMARK    1  A    between atoms: C_1  and  N_2
REMARK    2  A    between atoms: C_6  and  C_7
REMARK    3  A    between atoms: N_16  and  C_17
REMARK    4  A    between atoms: C_21  and  C_22
REMARK    5  A    between atoms: C_22  and  C_23
REMARK    6  A    between atoms: N_27  and  C_28
REMARK                            x       y       z     vdW  Elec       q    Type
REMARK                         _______ _______ _______ _____ _____    ______ ____
ROOT
ATOM      1  C   UNL     1       2.873   2.536  20.862  0.00  0.00    +0.000 C 
ATOM      2  N   UNL     1       2.792   2.718  19.423  0.00  0.00    +0.000 N 
ATOM      3  C   UNL     1       3.707   2.003  18.544  0.00  0.00    +0.000 C 
ATOM      4  C   UNL     1       4.004   3.345  17.981  0.00  0.00    +0.000 A 
ATOM      5  C   UNL     1       4.723   4.091  17.071  0.00  0.00    +0.000 A 
ATOM      6  C   UNL     1       4.536   5.490  17.051  0.00  0.00    +0.000 A 
ATOM      7  C   UNL     1       3.628   6.049  17.978  0.00  0.00    +0.000 A 
ATOM      8  C   UNL     1       2.960   5.245  18.908  0.00  0.00    +0.000 A 
ATOM      9  C   UNL     1       3.141   3.906  18.885  0.00  0.00    +0.000 A 
ATOM     10  C   UNL     1       2.102   6.083  19.736  0.00  0.00    +0.000 C 
ATOM     11  O   UNL     1       1.454   5.629  20.662  0.00  0.00    +0.000 OA
ATOM     12  N   UNL     1       2.217   7.394  19.259  0.00  0.00    +0.000 N 
ATOM     13  C   UNL     1       3.172   7.476  18.153  0.00  0.00    +0.000 C 
ENDROOT
BRANCH  12  14
ATOM     14  C   UNL     1       1.562   8.534  19.810  0.00  0.00    +0.000 A 
ATOM     15  C   UNL     1       1.263   8.603  21.173  0.00  0.00    +0.000 A 
ATOM     16  C   UNL     1       0.708   9.757  21.695  0.00  0.00    +0.000 A 
ATOM     17  N   UNL     1       0.362  10.822  20.948  0.00  0.00    +0.000 NA
ATOM     18  C   UNL     1       0.563  10.728  19.611  0.00  0.00    +0.000 A 
ATOM     19  C   UNL     1       1.194   9.628  19.017  0.00  0.00    +0.000 A 
BRANCH  18  20
ATOM     20  C   UNL     1      -0.025  11.842  18.778  0.00  0.00    +0.000 C 
BRANCH  20  21
ATOM     21  C   UNL     1      -1.447  11.665  18.386  0.00  0.00    +0.000 A 
ATOM     22  N   UNL     1      -1.876  11.001  17.330  0.00  0.00    +0.000 NA
ATOM     23  N   UNL     1      -3.245  10.919  17.402  0.00  0.00    +0.000 NA
ATOM     24  C   UNL     1      -3.624  11.546  18.490  0.00  0.00    +0.000 A 
ATOM     25  N   UNL     1      -2.534  12.072  19.114  0.00  0.00    +0.000 N 
ATOM     26  C   UNL     1      -2.551  12.880  20.304  0.00  0.00    +0.000 C 
ENDBRANCH  20  21
ENDBRANCH  18  20
ENDBRANCH  12  14
BRANCH   6  27
ATOM     27  C   UNL     1       5.303   6.328  16.059  0.00  0.00    +0.000 C 
ATOM     28  F   UNL     1       6.026   5.585  15.172  0.00  0.00    +0.000 F 
ATOM     29  F   UNL     1       4.494   7.123  15.311  0.00  0.00    +0.000 F 
ATOM     30  F   UNL     1       6.196   7.158  16.664  0.00  0.00    +0.000 F 
ENDBRANCH   6  27
TORSDOF 4
ENDMDL
MODEL 3
REMARK VINA RESULT:      -8.7      2.645      3.421
REMARK  Name = 
REMARK  6 active torsions:
REMARK  status: ('A' for Active; 'I' for Inactive)
REMARK    1  A    between atoms: C_1  and  N_2
REMARK    2  A    between atoms: C_6  and  C_7
REMARK    3  A    between atoms: N_16  and  C_17
REMARK    4  A    between atoms: C_21  and  C_22
REMARK    5  A    between atoms: C_22  and  C_23
REMARK    6  A    between atoms: N_27  and  C_28
REMARK                            x       y       z     vdW  Elec       q    Type
REMARK                         _______ _______ _______ _____ _____    ______ ____
ROOT
ATOM      1  C   UNL     1       5.103   6.243  15.375  0.00  0.00    +0.000 C 
ATOM      2  N   UNL     1       5.301   5.352  16.505  0.00  0.00    +0.000 N 
ATOM      3  C   UNL     1       5.462   3.921  16.286  0.00  0.00    +0.000 C 
ATOM      4  C   UNL     1       4.366   3.781  17.279  0.00  0.00    +0.000 A 
ATOM      5  C   UNL     1       3.536   2.934  17.984  0.00  0.00    +0.000 A 
ATOM      6  C   UNL     1       2.584   3.499  18.860  0.00  0.00    +0.000 A 
ATOM      7  C   UNL     1       2.529   4.907  18.955  0.00  0.00    +0.000 A 
ATOM      8  C   UNL     1       3.367   5.717  18.182  0.00  0.00    +0.000 A 
ATOM      9  C   UNL     1       4.285   5.145  17.371  0.00  0.00    +0.000 A 
ATOM     10  C   UNL     1       3.088   7.117  18.477  0.00  0.00    +0.000 C 
ATOM     11  O   UNL     1       3.648   8.026  17.890  0.00  0.00    +0.000 OA
ATOM     12  N   UNL     1       2.110   7.142  19.478  0.00  0.00    +0.000 N 
ATOM     13  C   UNL     1       1.682   5.790  19.839  0.00  0.00    +0.000 C 
ENDROOT
BRANCH  12  14
ATOM     14  C   UNL     1       1.529   8.319  20.036  0.00  0.00    +0.000 A 
ATOM     15  C   UNL     1       1.357   8.450  21.416  0.00  0.00    +0.000 A 
ATOM     16  C   UNL     1       0.873   9.638  21.935  0.00  0.00    +0.000 A 
ATOM     17  N   UNL     1       0.481  10.678  21.177  0.00  0.00    +0.000 NA
ATOM     18  C   UNL     1       0.559  10.525  19.833  0.00  0.00    +0.000 A 
ATOM     19  C   UNL     1       1.112   9.387  19.233  0.00  0.00    +0.000 A 
BRANCH  18  20
ATOM     20  C   UNL     1      -0.081  11.616  19.009  0.00  0.00    +0.000 C 
BRANCH  20  21
ATOM     21  C   UNL     1      -1.566  11.602  18.970  0.00  0.00    +0.000 A 
ATOM     22  N   UNL     1      -2.362  12.310  19.747  0.00  0.00    +0.000 NA
ATOM     23  N   UNL     1      -3.651  12.154  19.298  0.00  0.00    +0.000 NA
ATOM     24  C   UNL     1      -3.616  11.346  18.266  0.00  0.00    +0.000 A 
ATOM     25  N   UNL     1      -2.336  10.934  18.052  0.00  0.00    +0.000 N 
ATOM     26  C   UNL     1      -1.906   9.996  17.051  0.00  0.00    +0.000 C 
ENDBRANCH  20  21
ENDBRANCH  18  20
ENDBRANCH  12  14
BRANCH   6  27
ATOM     27  C   UNL     1       1.671   2.594  19.648  0.00  0.00    +0.000 C 
ATOM     28  F   UNL     1       1.934   2.598  20.987  0.00  0.00    +0.000 F 
ATOM     29  F   UNL     1       0.362   2.935  19.521  0.00  0.00    +0.000 F 
ATOM     30  F   UNL     1       1.765   1.295  19.254  0.00  0.00    +0.000 F 
ENDBRANCH   6  27
TORSDOF 4
ENDMDL
MODEL 4
REMARK VINA RESULT:      -8.6      3.825      8.539
REMARK  Name = 
REMARK  6 active torsions:
REMARK  status: ('A' for Active; 'I' for Inactive)
REMARK    1  A    between atoms: C_1  and  N_2
REMARK    2  A    between atoms: C_6  and  C_7
REMARK    3  A    between atoms: N_16  and  C_17
REMARK    4  A    between atoms: C_21  and  C_22
REMARK    5  A    between atoms: C_22  and  C_23
REMARK    6  A    between atoms: N_27  and  C_28
REMARK                            x       y       z     vdW  Elec       q    Type
REMARK                         _______ _______ _______ _____ _____    ______ ____
ROOT
ATOM      1  C   UNL     1       1.690  13.714  18.028  0.00  0.00    +0.000 C 
ATOM      2  N   UNL     1       0.465  13.137  18.555  0.00  0.00    +0.000 N 
ATOM      3  C   UNL     1      -0.286  13.838  19.589  0.00  0.00    +0.000 C 
ATOM      4  C   UNL     1      -0.202  12.555  20.332  0.00  0.00    +0.000 A 
ATOM      5  C   UNL     1      -0.511  11.853  21.479  0.00  0.00    +0.000 A 
ATOM      6  C   UNL     1      -0.077  10.513  21.585  0.00  0.00    +0.000 A 
ATOM      7  C   UNL     1       0.661   9.971  20.510  0.00  0.00    +0.000 A 
ATOM      8  C   UNL     1       0.982  10.746  19.390  0.00  0.00    +0.000 A 
ATOM      9  C   UNL     1       0.531  12.018  19.307  0.00  0.00    +0.000 A 
ATOM     10  C   UNL     1       1.750   9.938  18.452  0.00  0.00    +0.000 C 
ATOM     11  O   UNL     1       2.200  10.400  17.418  0.00  0.00    +0.000 OA
ATOM     12  N   UNL     1       1.842   8.650  18.993  0.00  0.00    +0.000 N 
ATOM     13  C   UNL     1       1.194   8.574  20.302  0.00  0.00    +0.000 C 
ENDROOT
BRANCH  12  14
ATOM     14  C   UNL     1       2.540   7.554  18.403  0.00  0.00    +0.000 A 
ATOM     15  C   UNL     1       3.586   7.769  17.503  0.00  0.00    +0.000 A 
ATOM     16  C   UNL     1       4.302   6.690  17.016  0.00  0.00    +0.000 A 
ATOM     17  N   UNL     1       4.007   5.409  17.303  0.00  0.00    +0.000 NA
ATOM     18  C   UNL     1       2.936   5.188  18.103  0.00  0.00    +0.000 A 
ATOM     19  C   UNL     1       2.211   6.226  18.700  0.00  0.00    +0.000 A 
BRANCH  18  20
ATOM     20  C   UNL     1       2.502   3.748  18.236  0.00  0.00    +0.000 C 
BRANCH  20  21
ATOM     21  C   UNL     1       2.212   3.292  19.621  0.00  0.00    +0.000 A 
ATOM     22  N   UNL     1       1.045   3.380  20.229  0.00  0.00    +0.000 NA
ATOM     23  N   UNL     1       1.131   2.705  21.422  0.00  0.00    +0.000 NA
ATOM     24  C   UNL     1       2.350   2.231  21.523  0.00  0.00    +0.000 A 
ATOM     25  N   UNL     1       3.079   2.616  20.438  0.00  0.00    +0.000 N 
ATOM     26  C   UNL     1       4.474   2.343  20.218  0.00  0.00    +0.000 C 
ENDBRANCH  20  21
ENDBRANCH  18  20
ENDBRANCH  12  14
BRANCH   6  27
ATOM     27  C   UNL     1      -0.409   9.722  22.824  0.00  0.00    +0.000 C 
ATOM     28  F   UNL     1      -1.284  10.360  23.654  0.00  0.00    +0.000 F 
ATOM     29  F   UNL     1      -0.973   8.518  22.539  0.00  0.00    +0.000 F 
ATOM     30  F   UNL     1       0.692   9.455  23.579  0.00  0.00    +0.000 F 
ENDBRANCH   6  27
TORSDOF 4
ENDMDL
MODEL 5
REMARK VINA RESULT:      -8.6      1.770      2.460
REMARK  Name = 
REMARK  6 active torsions:
REMARK  status: ('A' for Active; 'I' for Inactive)
REMARK    1  A    between atoms: C_1  and  N_2
REMARK    2  A    between atoms: C_6  and  C_7
REMARK    3  A    between atoms: N_16  and  C_17
REMARK    4  A    between atoms: C_21  and  C_22
REMARK    5  A    between atoms: C_22  and  C_23
REMARK    6  A    between atoms: N_27  and  C_28
REMARK                            x       y       z     vdW  Elec       q    Type
REMARK                         _______ _______ _______ _____ _____    ______ ____
ROOT
ATOM      1  C   UNL     1       2.405   2.189  20.348  0.00  0.00    +0.000 C 
ATOM      2  N   UNL     1       2.426   2.487  18.926  0.00  0.00    +0.000 N 
ATOM      3  C   UNL     1       3.326   1.759  18.042  0.00  0.00    +0.000 C 
ATOM      4  C   UNL     1       3.773   3.107  17.606  0.00  0.00    +0.000 A 
ATOM      5  C   UNL     1       4.608   3.850  16.798  0.00  0.00    +0.000 A 
ATOM      6  C   UNL     1       4.547   5.259  16.883  0.00  0.00    +0.000 A 
ATOM      7  C   UNL     1       3.638   5.827  17.803  0.00  0.00    +0.000 A 
ATOM      8  C   UNL     1       2.847   5.020  18.628  0.00  0.00    +0.000 A 
ATOM      9  C   UNL     1       2.911   3.675  18.506  0.00  0.00    +0.000 A 
ATOM     10  C   UNL     1       2.018   5.868  19.475  0.00  0.00    +0.000 C 
ATOM     11  O   UNL     1       1.278   5.406  20.327  0.00  0.00    +0.000 OA
ATOM     12  N   UNL     1       2.277   7.195  19.113  0.00  0.00    +0.000 N 
ATOM     13  C   UNL     1       3.300   7.273  18.070  0.00  0.00    +0.000 C 
ENDROOT
BRANCH  12  14
ATOM     14  C   UNL     1       1.693   8.346  19.721  0.00  0.00    +0.000 A 
ATOM     15  C   UNL     1       1.495   8.407  21.102  0.00  0.00    +0.000 A 
ATOM     16  C   UNL     1       1.009   9.570  21.673  0.00  0.00    +0.000 A 
ATOM     17  N   UNL     1       0.639  10.650  20.962  0.00  0.00    +0.000 NA
ATOM     18  C   UNL     1       0.741  10.566  19.614  0.00  0.00    +0.000 A 
ATOM     19  C   UNL     1       1.299   9.457  18.966  0.00  0.00    +0.000 A 
BRANCH  18  20
ATOM     20  C   UNL     1       0.125  11.704  18.835  0.00  0.00    +0.000 C 
BRANCH  20  21
ATOM     21  C   UNL     1       0.922  12.957  18.794  0.00  0.00    +0.000 A 
ATOM     22  N   UNL     1       2.127  13.085  18.273  0.00  0.00    +0.000 NA
ATOM     23  N   UNL     1       2.456  14.418  18.275  0.00  0.00    +0.000 NA
ATOM     24  C   UNL     1       1.453  15.074  18.807  0.00  0.00    +0.000 A 
ATOM     25  N   UNL     1       0.487  14.195  19.193  0.00  0.00    +0.000 N 
ATOM     26  C   UNL     1      -0.737  14.527  19.871  0.00  0.00    +0.000 C 
ENDBRANCH  20  21
ENDBRANCH  18  20
ENDBRANCH  12  14
BRANCH   6  27
ATOM     27  C   UNL     1       5.443   6.094  16.004  0.00  0.00    +0.000 C 
ATOM     28  F   UNL     1       4.755   6.923  15.166  0.00  0.00    +0.000 F 
ATOM     29  F   UNL     1       6.278   6.893  16.720  0.00  0.00    +0.000 F 
ATOM     30  F   UNL     1       6.239   5.333  15.204  0.00  0.00    +0.000 F 
ENDBRANCH   6  27
TORSDOF 4
ENDMDL
MODEL 6
REMARK VINA RESULT:      -8.6      2.704      3.598
REMARK  Name = 
REMARK  6 active torsions:
REMARK  status: ('A' for Active; 'I' for Inactive)
REMARK    1  A    between atoms: C_1  and  N_2
REMARK    2  A    between atoms: C_6  and  C_7
REMARK    3  A    between atoms: N_16  and  C_17
REMARK    4  A    between atoms: C_21  and  C_22
REMARK    5  A    between atoms: C_22  and  C_23
REMARK    6  A    between atoms: N_27  and  C_28
REMARK                            x       y       z     vdW  Elec       q    Type
REMARK                         _______ _______ _______ _____ _____    ______ ____
ROOT
ATOM      1  C   UNL     1       5.256   6.096  15.306  0.00  0.00    +0.000 C 
ATOM      2  N   UNL     1       5.391   5.186  16.431  0.00  0.00    +0.000 N 
ATOM      3  C   UNL     1       5.513   3.753  16.200  0.00  0.00    +0.000 C 
ATOM      4  C   UNL     1       4.383   3.637  17.156  0.00  0.00    +0.000 A 
ATOM      5  C   UNL     1       3.505   2.809  17.824  0.00  0.00    +0.000 A 
ATOM      6  C   UNL     1       2.545   3.395  18.677  0.00  0.00    +0.000 A 
ATOM      7  C   UNL     1       2.530   4.802  18.788  0.00  0.00    +0.000 A 
ATOM      8  C   UNL     1       3.418   5.594  18.051  0.00  0.00    +0.000 A 
ATOM      9  C   UNL     1       4.342   5.002  17.262  0.00  0.00    +0.000 A 
ATOM     10  C   UNL     1       3.173   6.998  18.354  0.00  0.00    +0.000 C 
ATOM     11  O   UNL     1       3.780   7.895  17.796  0.00  0.00    +0.000 OA
ATOM     12  N   UNL     1       2.166   7.043  19.325  0.00  0.00    +0.000 N 
ATOM     13  C   UNL     1       1.684   5.702  19.656  0.00  0.00    +0.000 C 
ENDROOT
BRANCH  12  14
ATOM     14  C   UNL     1       1.605   8.232  19.879  0.00  0.00    +0.000 A 
ATOM     15  C   UNL     1       1.364   8.341  21.250  0.00  0.00    +0.000 A 
ATOM     16  C   UNL     1       0.903   9.537  21.771  0.00  0.00    +0.000 A 
ATOM     17  N   UNL     1       0.596  10.609  21.018  0.00  0.00    +0.000 NA
ATOM     18  C   UNL     1       0.739  10.481  19.676  0.00  0.00    +0.000 A 
ATOM     19  C   UNL     1       1.277   9.333  19.080  0.00  0.00    +0.000 A 
BRANCH  18  20
ATOM     20  C   UNL     1       0.190  11.616  18.846  0.00  0.00    +0.000 C 
BRANCH  20  21
ATOM     21  C   UNL     1      -1.248  11.510  18.489  0.00  0.00    +0.000 A 
ATOM     22  N   UNL     1      -1.750  10.750  17.535  0.00  0.00    +0.000 NA
ATOM     23  N   UNL     1      -3.120  10.797  17.626  0.00  0.00    +0.000 NA
ATOM     24  C   UNL     1      -3.425  11.593  18.622  0.00  0.00    +0.000 A 
ATOM     25  N   UNL     1      -2.285  12.103  19.163  0.00  0.00    +0.000 N 
ATOM     26  C   UNL     1      -2.212  13.060  20.234  0.00  0.00    +0.000 C 
ENDBRANCH  20  21
ENDBRANCH  18  20
ENDBRANCH  12  14
BRANCH   6  27
ATOM     27  C   UNL     1       1.580   2.510  19.426  0.00  0.00    +0.000 C 
ATOM     28  F   UNL     1       1.852   1.180  19.292  0.00  0.00    +0.000 F 
ATOM     29  F   UNL     1       1.573   2.760  20.762  0.00  0.00    +0.000 F 
ATOM     30  F   UNL     1       0.296   2.671  19.004  0.00  0.00    +0.000 F 
ENDBRANCH   6  27
TORSDOF 4
ENDMDL
MODEL 7
REMARK VINA RESULT:      -8.5      1.011      1.491
REMARK  Name = 
REMARK  6 active torsions:
REMARK  status: ('A' for Active; 'I' for Inactive)
REMARK    1  A    between atoms: C_1  and  N_2
REMARK    2  A    between atoms: C_6  and  C_7
REMARK    3  A    between atoms: N_16  and  C_17
REMARK    4  A    between atoms: C_21  and  C_22
REMARK    5  A    between atoms: C_22  and  C_23
REMARK    6  A    between atoms: N_27  and  C_28
REMARK                            x       y       z     vdW  Elec       q    Type
REMARK                         _______ _______ _______ _____ _____    ______ ____
ROOT
ATOM      1  C   UNL     1       2.749   2.285  20.492  0.00  0.00    +0.000 C 
ATOM      2  N   UNL     1       2.697   2.542  19.063  0.00  0.00    +0.000 N 
ATOM      3  C   UNL     1       3.595   1.835  18.161  0.00  0.00    +0.000 C 
ATOM      4  C   UNL     1       3.956   3.190  17.672  0.00  0.00    +0.000 A 
ATOM      5  C   UNL     1       4.719   3.950  16.810  0.00  0.00    +0.000 A 
ATOM      6  C   UNL     1       4.592   5.355  16.860  0.00  0.00    +0.000 A 
ATOM      7  C   UNL     1       3.694   5.904  17.802  0.00  0.00    +0.000 A 
ATOM      8  C   UNL     1       2.979   5.084  18.681  0.00  0.00    +0.000 A 
ATOM      9  C   UNL     1       3.104   3.741  18.592  0.00  0.00    +0.000 A 
ATOM     10  C   UNL     1       2.144   5.914  19.539  0.00  0.00    +0.000 C 
ATOM     11  O   UNL     1       1.463   5.441  20.433  0.00  0.00    +0.000 OA
ATOM     12  N   UNL     1       2.321   7.241  19.132  0.00  0.00    +0.000 N 
ATOM     13  C   UNL     1       3.295   7.339  18.044  0.00  0.00    +0.000 C 
ENDROOT
BRANCH  12  14
ATOM     14  C   UNL     1       1.706   8.379  19.732  0.00  0.00    +0.000 A 
ATOM     15  C   UNL     1       1.439   8.412  21.103  0.00  0.00    +0.000 A 
ATOM     16  C   UNL     1       0.923   9.563  21.672  0.00  0.00    +0.000 A 
ATOM     17  N   UNL     1       0.587  10.657  20.966  0.00  0.00    +0.000 NA
ATOM     18  C   UNL     1       0.756  10.601  19.623  0.00  0.00    +0.000 A 
ATOM     19  C   UNL     1       1.347   9.505  18.982  0.00  0.00    +0.000 A 
BRANCH  18  20
ATOM     20  C   UNL     1       0.177  11.753  18.838  0.00  0.00    +0.000 C 
BRANCH  20  21
ATOM     21  C   UNL     1      -1.128  12.269  19.327  0.00  0.00    +0.000 A 
ATOM     22  N   UNL     1      -2.306  11.725  19.093  0.00  0.00    +0.000 NA
ATOM     23  N   UNL     1      -3.243  12.388  19.846  0.00  0.00    +0.000 NA
ATOM     24  C   UNL     1      -2.621  13.330  20.514  0.00  0.00    +0.000 A 
ATOM     25  N   UNL     1      -1.300  13.325  20.184  0.00  0.00    +0.000 N 
ATOM     26  C   UNL     1      -0.306  14.249  20.662  0.00  0.00    +0.000 C 
ENDBRANCH  20  21
ENDBRANCH  18  20
ENDBRANCH  12  14
BRANCH   6  27
ATOM     27  C   UNL     1       5.408   6.208  15.922  0.00  0.00    +0.000 C 
ATOM     28  F   UNL     1       4.649   7.023  15.134  0.00  0.00    +0.000 F 
ATOM     29  F   UNL     1       6.275   7.023  16.579  0.00  0.00    +0.000 F 
ATOM     30  F   UNL     1       6.162   5.463  15.068  0.00  0.00    +0.000 F 
ENDBRANCH   6  27
TORSDOF 4
ENDMDL
MODEL 8
REMARK VINA RESULT:      -8.5      3.979      8.551
REMARK  Name = 
REMARK  6 active torsions:
REMARK  status: ('A' for Active; 'I' for Inactive)
REMARK    1  A    between atoms: C_1  and  N_2
REMARK    2  A    between atoms: C_6  and  C_7
REMARK    3  A    between atoms: N_16  and  C_17
REMARK    4  A    between atoms: C_21  and  C_22
REMARK    5  A    between atoms: C_22  and  C_23
REMARK    6  A    between atoms: N_27  and  C_28
REMARK                            x       y       z     vdW  Elec       q    Type
REMARK                         _______ _______ _______ _____ _____    ______ ____
ROOT
ATOM      1  C   UNL     1       2.349  12.530  17.857  0.00  0.00    +0.000 C 
ATOM      2  N   UNL     1       1.030  12.181  18.355  0.00  0.00    +0.000 N 
ATOM      3  C   UNL     1       0.278  13.134  19.160  0.00  0.00    +0.000 C 
ATOM      4  C   UNL     1       0.159  12.017  20.132  0.00  0.00    +0.000 A 
ATOM      5  C   UNL     1      -0.317  11.582  21.351  0.00  0.00    +0.000 A 
ATOM      6  C   UNL     1      -0.042  10.254  21.745  0.00  0.00    +0.000 A 
ATOM      7  C   UNL     1       0.718   9.448  20.870  0.00  0.00    +0.000 A 
ATOM      8  C   UNL     1       1.212   9.959  19.664  0.00  0.00    +0.000 A 
ATOM      9  C   UNL     1       0.911  11.227  19.303  0.00  0.00    +0.000 A 
ATOM     10  C   UNL     1       1.962   8.918  18.974  0.00  0.00    +0.000 C 
ATOM     11  O   UNL     1       2.543   9.127  17.923  0.00  0.00    +0.000 OA
ATOM     12  N   UNL     1       1.868   7.756  19.749  0.00  0.00    +0.000 N 
ATOM     13  C   UNL     1       1.110   7.995  20.978  0.00  0.00    +0.000 C 
ENDROOT
BRANCH  12  14
ATOM     14  C   UNL     1       2.488   6.508  19.446  0.00  0.00    +0.000 A 
ATOM     15  C   UNL     1       2.207   5.364  20.196  0.00  0.00    +0.000 A 
ATOM     16  C   UNL     1       2.754   4.149  19.824  0.00  0.00    +0.000 A 
ATOM     17  N   UNL     1       3.617   4.003  18.803  0.00  0.00    +0.000 NA
ATOM     18  C   UNL     1       3.968   5.123  18.127  0.00  0.00    +0.000 A 
ATOM     19  C   UNL     1       3.396   6.374  18.389  0.00  0.00    +0.000 A 
BRANCH  18  20
ATOM     20  C   UNL     1       5.092   4.965  17.131  0.00  0.00    +0.000 C 
BRANCH  20  21
ATOM     21  C   UNL     1       6.191   5.959  17.242  0.00  0.00    +0.000 A 
ATOM     22  N   UNL     1       6.477   6.891  16.354  0.00  0.00    +0.000 NA
ATOM     23  N   UNL     1       7.439   7.712  16.888  0.00  0.00    +0.000 NA
ATOM     24  C   UNL     1       7.730   7.257  18.084  0.00  0.00    +0.000 A 
ATOM     25  N   UNL     1       7.007   6.130  18.330  0.00  0.00    +0.000 N 
ATOM     26  C   UNL     1       7.094   5.311  19.509  0.00  0.00    +0.000 C 
ENDBRANCH  20  21
ENDBRANCH  18  20
ENDBRANCH  12  14
BRANCH   6  27
ATOM     27  C   UNL     1      -0.560   9.751  23.070  0.00  0.00    +0.000 C 
ATOM     28  F   UNL     1       0.421   9.582  24.003  0.00  0.00    +0.000 F 
ATOM     29  F   UNL     1      -1.468  10.593  23.629  0.00  0.00    +0.000 F 
ATOM     30  F   UNL     1      -1.180   8.545  22.959  0.00  0.00    +0.000 F 
ENDBRANCH   6  27
TORSDOF 4
ENDMDL
MODEL 9
REMARK VINA RESULT:      -8.5      2.761      3.508
REMARK  Name = 
REMARK  6 active torsions:
REMARK  status: ('A' for Active; 'I' for Inactive)
REMARK    1  A    between atoms: C_1  and  N_2
REMARK    2  A    between atoms: C_6  and  C_7
REMARK    3  A    between atoms: N_16  and  C_17
REMARK    4  A    between atoms: C_21  and  C_22
REMARK    5  A    between atoms: C_22  and  C_23
REMARK    6  A    between atoms: N_27  and  C_28
REMARK                            x       y       z     vdW  Elec       q    Type
REMARK                         _______ _______ _______ _____ _____    ______ ____
ROOT
ATOM      1  C   UNL     1       4.910   6.382  15.850  0.00  0.00    +0.000 C 
ATOM      2  N   UNL     1       5.247   5.816  17.145  0.00  0.00    +0.000 N 
ATOM      3  C   UNL     1       5.617   4.411  17.254  0.00  0.00    +0.000 C 
ATOM      4  C   UNL     1       4.562   4.352  18.298  0.00  0.00    +0.000 A 
ATOM      5  C   UNL     1       3.874   3.583  19.212  0.00  0.00    +0.000 A 
ATOM      6  C   UNL     1       2.855   4.195  19.975  0.00  0.00    +0.000 A 
ATOM      7  C   UNL     1       2.592   5.564  19.747  0.00  0.00    +0.000 A 
ATOM      8  C   UNL     1       3.294   6.282  18.774  0.00  0.00    +0.000 A 
ATOM      9  C   UNL     1       4.281   5.674  18.077  0.00  0.00    +0.000 A 
ATOM     10  C   UNL     1       2.812   7.657  18.751  0.00  0.00    +0.000 C 
ATOM     11  O   UNL     1       3.226   8.475  17.948  0.00  0.00    +0.000 OA
ATOM     12  N   UNL     1       1.850   7.775  19.761  0.00  0.00    +0.000 N 
ATOM     13  C   UNL     1       1.630   6.498  20.440  0.00  0.00    +0.000 C 
ENDROOT
BRANCH  12  14
ATOM     14  C   UNL     1       1.105   8.955  20.058  0.00  0.00    +0.000 A 
ATOM     15  C   UNL     1       0.866   9.340  21.379  0.00  0.00    +0.000 A 
ATOM     16  C   UNL     1       0.217  10.534  21.637  0.00  0.00    +0.000 A 
ATOM     17  N   UNL     1      -0.274  11.338  20.677  0.00  0.00    +0.000 NA
ATOM     18  C   UNL     1      -0.128  10.927  19.394  0.00  0.00    +0.000 A 
ATOM     19  C   UNL     1       0.587   9.773  19.048  0.00  0.00    +0.000 A 
BRANCH  18  20
ATOM     20  C   UNL     1      -0.869  11.735  18.356  0.00  0.00    +0.000 C 
BRANCH  20  21
ATOM     21  C   UNL     1      -2.342  11.545  18.329  0.00  0.00    +0.000 A 
ATOM     22  N   UNL     1      -3.198  12.051  19.195  0.00  0.00    +0.000 NA
ATOM     23  N   UNL     1      -4.469  11.796  18.741  0.00  0.00    +0.000 NA
ATOM     24  C   UNL     1      -4.363  11.129  17.617  0.00  0.00    +0.000 A 
ATOM     25  N   UNL     1      -3.048  10.905  17.343  0.00  0.00    +0.000 N 
ATOM     26  C   UNL     1      -2.532  10.155  16.230  0.00  0.00    +0.000 C 
ENDBRANCH  20  21
ENDBRANCH  18  20
ENDBRANCH  12  14
BRANCH   6  27
ATOM     27  C   UNL     1       2.094   3.378  20.988  0.00  0.00    +0.000 C 
ATOM     28  F   UNL     1       2.346   3.746  22.277  0.00  0.00    +0.000 F 
ATOM     29  F   UNL     1       0.747   3.471  20.827  0.00  0.00    +0.000 F 
ATOM     30  F   UNL     1       2.394   2.053  20.914  0.00  0.00    +0.000 F 
ENDBRANCH   6  27
TORSDOF 4
ENDMDL
