MODEL 1
REMARK VINA RESULT:      -9.4      0.000      0.000
REMARK  Name = 
REMARK  3 active torsions:
REMARK  status: ('A' for Active; 'I' for Inactive)
REMARK    1  A    between atoms: C_4  and  C_5
REMARK    2  A    between atoms: N_9  and  C_10
REMARK    3  A    between atoms: C_12  and  C_13
REMARK                            x       y       z     vdW  Elec       q    Type
REMARK                         _______ _______ _______ _____ _____    ______ ____
ROOT
ATOM      1  C   UNL     1       7.147   4.984  17.602  0.00  0.00    +0.000 C 
ATOM      2  C   UNL     1       6.876   4.538  16.155  0.00  0.00    +0.000 C 
ATOM      3  C   UNL     1       5.406   4.580  15.758  0.00  0.00    +0.000 C 
ATOM      4  C   UNL     1       4.527   3.895  16.792  0.00  0.00    +0.000 C 
ATOM      5  N   UNL     1       4.736   4.539  18.076  0.00  0.00    +0.000 N 
ATOM      6  C   UNL     1       6.102   4.500  18.618  0.00  0.00    +0.000 C 
ENDROOT
BRANCH   5   7
ATOM      7  C   UNL     1       3.715   4.964  18.902  0.00  0.00    +0.000 A 
ATOM      8  N   UNL     1       3.366   4.058  19.840  0.00  0.00    +0.000 NA
ATOM      9  C   UNL     1       2.415   4.386  20.736  0.00  0.00    +0.000 A 
ATOM     10  N   UNL     1       1.804   5.583  20.780  0.00  0.00    +0.000 NA
ATOM     11  C   UNL     1       2.141   6.483  19.854  0.00  0.00    +0.000 A 
ATOM     12  C   UNL     1       1.493   7.713  19.904  0.00  0.00    +0.000 A 
ATOM     13  C   UNL     1       1.747   8.728  18.982  0.00  0.00    +0.000 A 
ATOM     14  C   UNL     1       2.652   8.504  17.962  0.00  0.00    +0.000 A 
ATOM     15  C   UNL     1       3.296   7.268  17.881  0.00  0.00    +0.000 A 
ATOM     16  C   UNL     1       3.092   6.238  18.850  0.00  0.00    +0.000 A 
BRANCH   9  17
ATOM     17  C   UNL     1       2.013   3.342  21.763  0.00  0.00    +0.000 C 
ATOM     18  F   UNL     1       0.864   2.678  21.439  0.00  0.00    +0.000 F 
ATOM     19  F   UNL     1       2.960   2.370  21.939  0.00  0.00    +0.000 F 
ENDBRANCH   9  17
ENDBRANCH   5   7
BRANCH   1  23
ATOM     20  O   UNL     1       8.802   9.165  19.032  0.00  0.00    +0.000 OA
ATOM     21  C   UNL     1       8.308   8.307  18.322  0.00  0.00    +0.000 A 
ATOM     22  N   UNL     1       8.221   6.961  18.601  0.00  0.00    +0.000 NA
ATOM     23  C   UNL     1       7.441   6.471  17.668  0.00  0.00    +0.000 A 
ATOM     24  N   UNL     1       6.943   7.406  16.791  0.00  0.00    +0.000 N 
ATOM     25  N   UNL     1       7.688   8.550  17.107  0.00  0.00    +0.000 N 
ATOM     26  H   UNL     1       6.875   7.131  15.808  0.00  0.00    +0.000 HD
ATOM     27  H   UNL     1       7.273   9.467  16.990  0.00  0.00    +0.000 HD
ENDBRANCH   1  23
TORSDOF 3
ENDMDL
MODEL 2
REMARK VINA RESULT:      -8.5      2.134      3.379
REMARK  Name = 
REMARK  3 active torsions:
REMARK  status: ('A' for Active; 'I' for Inactive)
REMARK    1  A    between atoms: C_4  and  C_5
REMARK    2  A    between atoms: N_9  and  C_10
REMARK    3  A    between atoms: C_12  and  C_13
REMARK                            x       y       z     vdW  Elec       q    Type
REMARK                         _______ _______ _______ _____ _____    ______ ____
ROOT
ATOM      1  C   UNL     1       7.450   5.211  17.798  0.00  0.00    +0.000 C 
ATOM      2  C   UNL     1       7.379   4.688  16.352  0.00  0.00    +0.000 C 
ATOM      3  C   UNL     1       5.970   4.651  15.774  0.00  0.00    +0.000 C 
ATOM      4  C   UNL     1       4.993   3.977  16.725  0.00  0.00    +0.000 C 
ATOM      5  N   UNL     1       5.016   4.688  17.991  0.00  0.00    +0.000 N 
ATOM      6  C   UNL     1       6.303   4.730  18.699  0.00  0.00    +0.000 C 
ENDROOT
BRANCH   5   7
ATOM      7  C   UNL     1       3.885   5.107  18.662  0.00  0.00    +0.000 A 
ATOM      8  N   UNL     1       3.562   6.397  18.426  0.00  0.00    +0.000 NA
ATOM      9  C   UNL     1       2.446   6.899  18.989  0.00  0.00    +0.000 A 
ATOM     10  N   UNL     1       1.603   6.184  19.753  0.00  0.00    +0.000 NA
ATOM     11  C   UNL     1       1.916   4.910  19.995  0.00  0.00    +0.000 A 
ATOM     12  C   UNL     1       1.041   4.184  20.797  0.00  0.00    +0.000 A 
ATOM     13  C   UNL     1       1.268   2.851  21.133  0.00  0.00    +0.000 A 
ATOM     14  C   UNL     1       2.415   2.225  20.682  0.00  0.00    +0.000 A 
ATOM     15  C   UNL     1       3.318   2.942  19.894  0.00  0.00    +0.000 A 
ATOM     16  C   UNL     1       3.072   4.291  19.492  0.00  0.00    +0.000 A 
BRANCH   9  17
ATOM     17  C   UNL     1       2.117   8.360  18.737  0.00  0.00    +0.000 C 
ATOM     18  F   UNL     1       1.561   8.586  17.510  0.00  0.00    +0.000 F 
ATOM     19  F   UNL     1       1.228   8.873  19.642  0.00  0.00    +0.000 F 
ENDBRANCH   9  17
ENDBRANCH   5   7
BRANCH   1  23
ATOM     20  O   UNL     1       8.928   9.494  19.114  0.00  0.00    +0.000 OA
ATOM     21  C   UNL     1       8.469   8.598  18.427  0.00  0.00    +0.000 A 
ATOM     22  N   UNL     1       8.441   7.257  18.742  0.00  0.00    +0.000 NA
ATOM     23  C   UNL     1       7.680   6.710  17.824  0.00  0.00    +0.000 A 
ATOM     24  N   UNL     1       7.140   7.600  16.926  0.00  0.00    +0.000 N 
ATOM     25  N   UNL     1       7.835   8.783  17.210  0.00  0.00    +0.000 N 
ATOM     26  H   UNL     1       7.080   7.297  15.950  0.00  0.00    +0.000 HD
ATOM     27  H   UNL     1       7.380   9.678  17.071  0.00  0.00    +0.000 HD
ENDBRANCH   1  23
TORSDOF 3
ENDMDL
MODEL 3
REMARK VINA RESULT:      -8.3      3.610      6.335
REMARK  Name = 
REMARK  3 active torsions:
REMARK  status: ('A' for Active; 'I' for Inactive)
REMARK    1  A    between atoms: C_4  and  C_5
REMARK    2  A    between atoms: N_9  and  C_10
REMARK    3  A    between atoms: C_12  and  C_13
REMARK                            x       y       z     vdW  Elec       q    Type
REMARK                         _______ _______ _______ _____ _____    ______ ____
ROOT
ATOM      1  C   UNL     1       1.660   3.619  18.400  0.00  0.00    +0.000 C 
ATOM      2  C   UNL     1       1.778   2.303  19.189  0.00  0.00    +0.000 C 
ATOM      3  C   UNL     1       3.197   1.757  19.277  0.00  0.00    +0.000 C 
ATOM      4  C   UNL     1       3.869   1.724  17.914  0.00  0.00    +0.000 C 
ATOM      5  N   UNL     1       3.863   3.068  17.363  0.00  0.00    +0.000 N 
ATOM      6  C   UNL     1       2.547   3.685  17.148  0.00  0.00    +0.000 C 
ENDROOT
BRANCH   5   7
ATOM      7  C   UNL     1       4.973   3.687  16.824  0.00  0.00    +0.000 A 
ATOM      8  N   UNL     1       5.130   3.460  15.502  0.00  0.00    +0.000 NA
ATOM      9  C   UNL     1       6.152   4.057  14.858  0.00  0.00    +0.000 A 
ATOM     10  N   UNL     1       7.019   4.901  15.445  0.00  0.00    +0.000 NA
ATOM     11  C   UNL     1       6.873   5.127  16.752  0.00  0.00    +0.000 A 
ATOM     12  C   UNL     1       7.784   5.994  17.348  0.00  0.00    +0.000 A 
ATOM     13  C   UNL     1       7.744   6.296  18.708  0.00  0.00    +0.000 A 
ATOM     14  C   UNL     1       6.788   5.698  19.507  0.00  0.00    +0.000 A 
ATOM     15  C   UNL     1       5.879   4.808  18.932  0.00  0.00    +0.000 A 
ATOM     16  C   UNL     1       5.868   4.532  17.531  0.00  0.00    +0.000 A 
BRANCH   9  17
ATOM     17  C   UNL     1       6.331   3.764  13.379  0.00  0.00    +0.000 C 
ATOM     18  F   UNL     1       5.157   3.777  12.679  0.00  0.00    +0.000 F 
ATOM     19  F   UNL     1       7.142   4.667  12.748  0.00  0.00    +0.000 F 
ENDBRANCH   9  17
ENDBRANCH   5   7
BRANCH   1  23
ATOM     20  O   UNL     1       2.301   8.030  19.948  0.00  0.00    +0.000 OA
ATOM     21  C   UNL     1       1.988   6.853  19.931  0.00  0.00    +0.000 A 
ATOM     22  N   UNL     1       1.984   6.020  18.833  0.00  0.00    +0.000 NA
ATOM     23  C   UNL     1       1.785   4.819  19.320  0.00  0.00    +0.000 A 
ATOM     24  N   UNL     1       1.702   4.765  20.692  0.00  0.00    +0.000 N 
ATOM     25  N   UNL     1       1.624   6.118  21.048  0.00  0.00    +0.000 N 
ATOM     26  H   UNL     1       1.016   4.120  21.091  0.00  0.00    +0.000 HD
ATOM     27  H   UNL     1       2.006   6.427  21.934  0.00  0.00    +0.000 HD
ENDBRANCH   1  23
TORSDOF 3
ENDMDL
MODEL 4
REMARK VINA RESULT:      -8.3      3.157      6.354
REMARK  Name = 
REMARK  3 active torsions:
REMARK  status: ('A' for Active; 'I' for Inactive)
REMARK    1  A    between atoms: C_4  and  C_5
REMARK    2  A    between atoms: N_9  and  C_10
REMARK    3  A    between atoms: C_12  and  C_13
REMARK                            x       y       z     vdW  Elec       q    Type
REMARK                         _______ _______ _______ _____ _____    ______ ____
ROOT
ATOM      1  C   UNL     1       1.980   3.702  18.178  0.00  0.00    +0.000 C 
ATOM      2  C   UNL     1       2.224   2.333  18.838  0.00  0.00    +0.000 C 
ATOM      3  C   UNL     1       3.689   1.916  18.879  0.00  0.00    +0.000 C 
ATOM      4  C   UNL     1       4.354   2.077  17.522  0.00  0.00    +0.000 C 
ATOM      5  N   UNL     1       4.221   3.461  17.103  0.00  0.00    +0.000 N 
ATOM      6  C   UNL     1       2.852   3.971  16.943  0.00  0.00    +0.000 C 
ENDROOT
BRANCH   5   7
ATOM      7  C   UNL     1       5.266   4.230  16.630  0.00  0.00    +0.000 A 
ATOM      8  N   UNL     1       5.844   4.998  17.578  0.00  0.00    +0.000 NA
ATOM      9  C   UNL     1       6.909   5.752  17.241  0.00  0.00    +0.000 A 
ATOM     10  N   UNL     1       7.462   5.765  16.016  0.00  0.00    +0.000 NA
ATOM     11  C   UNL     1       6.894   5.012  15.072  0.00  0.00    +0.000 A 
ATOM     12  C   UNL     1       7.470   5.045  13.806  0.00  0.00    +0.000 A 
ATOM     13  C   UNL     1       6.957   4.314  12.735  0.00  0.00    +0.000 A 
ATOM     14  C   UNL     1       5.821   3.549  12.919  0.00  0.00    +0.000 A 
ATOM     15  C   UNL     1       5.216   3.520  14.177  0.00  0.00    +0.000 A 
ATOM     16  C   UNL     1       5.760   4.215  15.299  0.00  0.00    +0.000 A 
BRANCH   9  17
ATOM     17  C   UNL     1       7.526   6.633  18.312  0.00  0.00    +0.000 C 
ATOM     18  F   UNL     1       8.420   5.973  19.108  0.00  0.00    +0.000 F 
ATOM     19  F   UNL     1       8.210   7.700  17.800  0.00  0.00    +0.000 F 
ENDBRANCH   9  17
ENDBRANCH   5   7
BRANCH   1  23
ATOM     20  O   UNL     1       2.182   7.987  20.144  0.00  0.00    +0.000 OA
ATOM     21  C   UNL     1       1.996   6.790  20.015  0.00  0.00    +0.000 A 
ATOM     22  N   UNL     1       2.056   6.072  18.841  0.00  0.00    +0.000 NA
ATOM     23  C   UNL     1       1.998   4.815  19.210  0.00  0.00    +0.000 A 
ATOM     24  N   UNL     1       1.953   4.620  20.571  0.00  0.00    +0.000 N 
ATOM     25  N   UNL     1       1.738   5.916  21.059  0.00  0.00    +0.000 N 
ATOM     26  H   UNL     1       1.348   3.869  20.913  0.00  0.00    +0.000 HD
ATOM     27  H   UNL     1       2.106   6.178  21.966  0.00  0.00    +0.000 HD
ENDBRANCH   1  23
TORSDOF 3
ENDMDL
MODEL 5
REMARK VINA RESULT:      -8.1      3.753      6.552
REMARK  Name = 
REMARK  3 active torsions:
REMARK  status: ('A' for Active; 'I' for Inactive)
REMARK    1  A    between atoms: C_4  and  C_5
REMARK    2  A    between atoms: N_9  and  C_10
REMARK    3  A    between atoms: C_12  and  C_13
REMARK                            x       y       z     vdW  Elec       q    Type
REMARK                         _______ _______ _______ _____ _____    ______ ____
ROOT
ATOM      1  C   UNL     1       3.544   4.012  20.037  0.00  0.00    +0.000 C 
ATOM      2  C   UNL     1       2.110   4.035  19.479  0.00  0.00    +0.000 C 
ATOM      3  C   UNL     1       2.021   4.433  18.011  0.00  0.00    +0.000 C 
ATOM      4  C   UNL     1       2.816   5.696  17.726  0.00  0.00    +0.000 C 
ATOM      5  N   UNL     1       4.196   5.473  18.119  0.00  0.00    +0.000 N 
ATOM      6  C   UNL     1       4.434   5.159  19.535  0.00  0.00    +0.000 C 
ENDROOT
BRANCH   5   7
ATOM      7  C   UNL     1       5.284   5.763  17.320  0.00  0.00    +0.000 A 
ATOM      8  N   UNL     1       6.100   6.705  17.840  0.00  0.00    +0.000 NA
ATOM      9  C   UNL     1       7.223   7.031  17.170  0.00  0.00    +0.000 A 
ATOM     10  N   UNL     1       7.607   6.450  16.020  0.00  0.00    +0.000 NA
ATOM     11  C   UNL     1       6.803   5.521  15.498  0.00  0.00    +0.000 A 
ATOM     12  C   UNL     1       7.208   4.936  14.302  0.00  0.00    +0.000 A 
ATOM     13  C   UNL     1       6.446   3.967  13.651  0.00  0.00    +0.000 A 
ATOM     14  C   UNL     1       5.232   3.585  14.190  0.00  0.00    +0.000 A 
ATOM     15  C   UNL     1       4.798   4.176  15.379  0.00  0.00    +0.000 A 
ATOM     16  C   UNL     1       5.592   5.128  16.089  0.00  0.00    +0.000 A 
BRANCH   9  17
ATOM     17  C   UNL     1       8.112   8.114  17.754  0.00  0.00    +0.000 C 
ATOM     18  F   UNL     1       7.461   9.299  17.954  0.00  0.00    +0.000 F 
ATOM     19  F   UNL     1       8.640   7.777  18.970  0.00  0.00    +0.000 F 
ENDBRANCH   9  17
ENDBRANCH   5   7
BRANCH   1  23
ATOM     20  O   UNL     1       5.941   0.058  20.976  0.00  0.00    +0.000 OA
ATOM     21  C   UNL     1       5.179   0.837  20.431  0.00  0.00    +0.000 A 
ATOM     22  N   UNL     1       4.818   2.086  20.888  0.00  0.00    +0.000 NA
ATOM     23  C   UNL     1       4.162   2.634  19.894  0.00  0.00    +0.000 A 
ATOM     24  N   UNL     1       4.092   1.858  18.760  0.00  0.00    +0.000 N 
ATOM     25  N   UNL     1       4.573   0.620  19.205  0.00  0.00    +0.000 N 
ATOM     26  H   UNL     1       3.211   1.876  18.239  0.00  0.00    +0.000 HD
ATOM     27  H   UNL     1       5.065   0.012  18.561  0.00  0.00    +0.000 HD
ENDBRANCH   1  23
TORSDOF 3
ENDMDL
MODEL 6
REMARK VINA RESULT:      -8.0      3.817      6.541
REMARK  Name = 
REMARK  3 active torsions:
REMARK  status: ('A' for Active; 'I' for Inactive)
REMARK    1  A    between atoms: C_4  and  C_5
REMARK    2  A    between atoms: N_9  and  C_10
REMARK    3  A    between atoms: C_12  and  C_13
REMARK                            x       y       z     vdW  Elec       q    Type
REMARK                         _______ _______ _______ _____ _____    ______ ____
ROOT
ATOM      1  C   UNL     1       3.279   3.420  19.874  0.00  0.00    +0.000 C 
ATOM      2  C   UNL     1       2.061   2.908  19.085  0.00  0.00    +0.000 C 
ATOM      3  C   UNL     1       2.216   3.004  17.573  0.00  0.00    +0.000 C 
ATOM      4  C   UNL     1       2.694   4.383  17.147  0.00  0.00    +0.000 C 
ATOM      5  N   UNL     1       3.952   4.663  17.816  0.00  0.00    +0.000 N 
ATOM      6  C   UNL     1       3.926   4.682  19.285  0.00  0.00    +0.000 C 
ENDROOT
BRANCH   5   7
ATOM      7  C   UNL     1       5.080   5.133  17.174  0.00  0.00    +0.000 A 
ATOM      8  N   UNL     1       5.803   6.000  17.915  0.00  0.00    +0.000 NA
ATOM      9  C   UNL     1       6.954   6.483  17.409  0.00  0.00    +0.000 A 
ATOM     10  N   UNL     1       7.455   6.131  16.212  0.00  0.00    +0.000 NA
ATOM     11  C   UNL     1       6.745   5.278  15.471  0.00  0.00    +0.000 A 
ATOM     12  C   UNL     1       7.269   4.931  14.230  0.00  0.00    +0.000 A 
ATOM     13  C   UNL     1       6.612   4.063  13.360  0.00  0.00    +0.000 A 
ATOM     14  C   UNL     1       5.383   3.544  13.720  0.00  0.00    +0.000 A 
ATOM     15  C   UNL     1       4.829   3.897  14.953  0.00  0.00    +0.000 A 
ATOM     16  C   UNL     1       5.514   4.739  15.881  0.00  0.00    +0.000 A 
BRANCH   9  17
ATOM     17  C   UNL     1       7.736   7.481  18.245  0.00  0.00    +0.000 C 
ATOM     18  F   UNL     1       8.692   6.898  19.029  0.00  0.00    +0.000 F 
ATOM     19  F   UNL     1       8.399   8.409  17.490  0.00  0.00    +0.000 F 
ENDBRANCH   9  17
ENDBRANCH   5   7
BRANCH   1  23
ATOM     20  O   UNL     1       6.224   0.517  22.145  0.00  0.00    +0.000 OA
ATOM     21  C   UNL     1       5.492   0.964  21.280  0.00  0.00    +0.000 A 
ATOM     22  N   UNL     1       4.687   2.077  21.382  0.00  0.00    +0.000 NA
ATOM     23  C   UNL     1       4.254   2.295  20.163  0.00  0.00    +0.000 A 
ATOM     24  N   UNL     1       4.752   1.429  19.217  0.00  0.00    +0.000 N 
ATOM     25  N   UNL     1       5.381   0.450  19.998  0.00  0.00    +0.000 N 
ATOM     26  H   UNL     1       4.108   1.122  18.484  0.00  0.00    +0.000 HD
ATOM     27  H   UNL     1       6.194  -0.035  19.636  0.00  0.00    +0.000 HD
ENDBRANCH   1  23
TORSDOF 3
ENDMDL
MODEL 7
REMARK VINA RESULT:      -7.9      2.889      6.085
REMARK  Name = 
REMARK  3 active torsions:
REMARK  status: ('A' for Active; 'I' for Inactive)
REMARK    1  A    between atoms: C_4  and  C_5
REMARK    2  A    between atoms: N_9  and  C_10
REMARK    3  A    between atoms: C_12  and  C_13
REMARK                            x       y       z     vdW  Elec       q    Type
REMARK                         _______ _______ _______ _____ _____    ______ ____
ROOT
ATOM      1  C   UNL     1       1.839   4.296  18.706  0.00  0.00    +0.000 C 
ATOM      2  C   UNL     1       1.855   3.064  19.628  0.00  0.00    +0.000 C 
ATOM      3  C   UNL     1       3.248   2.509  19.898  0.00  0.00    +0.000 C 
ATOM      4  C   UNL     1       4.038   2.330  18.612  0.00  0.00    +0.000 C 
ATOM      5  N   UNL     1       4.113   3.612  17.934  0.00  0.00    +0.000 N 
ATOM      6  C   UNL     1       2.836   4.224  17.540  0.00  0.00    +0.000 C 
ENDROOT
BRANCH   5   7
ATOM      7  C   UNL     1       5.281   4.157  17.439  0.00  0.00    +0.000 A 
ATOM      8  N   UNL     1       6.101   4.639  18.398  0.00  0.00    +0.000 NA
ATOM      9  C   UNL     1       7.294   5.148  18.034  0.00  0.00    +0.000 A 
ATOM     10  N   UNL     1       7.743   5.180  16.768  0.00  0.00    +0.000 NA
ATOM     11  C   UNL     1       6.937   4.710  15.814  0.00  0.00    +0.000 A 
ATOM     12  C   UNL     1       7.410   4.759  14.506  0.00  0.00    +0.000 A 
ATOM     13  C   UNL     1       6.654   4.313  13.423  0.00  0.00    +0.000 A 
ATOM     14  C   UNL     1       5.378   3.829  13.641  0.00  0.00    +0.000 A 
ATOM     15  C   UNL     1       4.877   3.791  14.944  0.00  0.00    +0.000 A 
ATOM     16  C   UNL     1       5.658   4.189  16.071  0.00  0.00    +0.000 A 
BRANCH   9  17
ATOM     17  C   UNL     1       8.189   5.713  19.123  0.00  0.00    +0.000 C 
ATOM     18  F   UNL     1       8.493   7.033  18.943  0.00  0.00    +0.000 F 
ATOM     19  F   UNL     1       7.633   5.633  20.370  0.00  0.00    +0.000 F 
ENDBRANCH   9  17
ENDBRANCH   5   7
BRANCH   1  23
ATOM     20  O   UNL     1       1.995   8.875  19.833  0.00  0.00    +0.000 OA
ATOM     21  C   UNL     1       1.876   7.668  19.946  0.00  0.00    +0.000 A 
ATOM     22  N   UNL     1       1.837   6.748  18.921  0.00  0.00    +0.000 NA
ATOM     23  C   UNL     1       1.911   5.580  19.512  0.00  0.00    +0.000 A 
ATOM     24  N   UNL     1       2.051   5.639  20.879  0.00  0.00    +0.000 N 
ATOM     25  N   UNL     1       1.811   6.992  21.154  0.00  0.00    +0.000 N 
ATOM     26  H   UNL     1       1.546   4.938  21.428  0.00  0.00    +0.000 HD
ATOM     27  H   UNL     1       2.271   7.433  21.941  0.00  0.00    +0.000 HD
ENDBRANCH   1  23
TORSDOF 3
ENDMDL
MODEL 8
REMARK VINA RESULT:      -7.8      3.362      6.368
REMARK  Name = 
REMARK  3 active torsions:
REMARK  status: ('A' for Active; 'I' for Inactive)
REMARK    1  A    between atoms: C_4  and  C_5
REMARK    2  A    between atoms: N_9  and  C_10
REMARK    3  A    between atoms: C_12  and  C_13
REMARK                            x       y       z     vdW  Elec       q    Type
REMARK                         _______ _______ _______ _____ _____    ______ ____
ROOT
ATOM      1  C   UNL     1       2.109   4.444  18.589  0.00  0.00    +0.000 C 
ATOM      2  C   UNL     1       2.438   3.385  19.656  0.00  0.00    +0.000 C 
ATOM      3  C   UNL     1       3.929   3.150  19.859  0.00  0.00    +0.000 C 
ATOM      4  C   UNL     1       4.647   2.939  18.536  0.00  0.00    +0.000 C 
ATOM      5  N   UNL     1       4.415   4.099  17.694  0.00  0.00    +0.000 N 
ATOM      6  C   UNL     1       3.017   4.394  17.351  0.00  0.00    +0.000 C 
ENDROOT
BRANCH   5   7
ATOM      7  C   UNL     1       5.412   4.779  17.023  0.00  0.00    +0.000 A 
ATOM      8  N   UNL     1       6.039   5.705  17.779  0.00  0.00    +0.000 NA
ATOM      9  C   UNL     1       7.064   6.394  17.243  0.00  0.00    +0.000 A 
ATOM     10  N   UNL     1       7.533   6.196  15.999  0.00  0.00    +0.000 NA
ATOM     11  C   UNL     1       6.917   5.285  15.243  0.00  0.00    +0.000 A 
ATOM     12  C   UNL     1       7.406   5.098  13.954  0.00  0.00    +0.000 A 
ATOM     13  C   UNL     1       6.836   4.187  13.065  0.00  0.00    +0.000 A 
ATOM     14  C   UNL     1       5.729   3.460  13.459  0.00  0.00    +0.000 A 
ATOM     15  C   UNL     1       5.210   3.649  14.741  0.00  0.00    +0.000 A 
ATOM     16  C   UNL     1       5.815   4.534  15.684  0.00  0.00    +0.000 A 
BRANCH   9  17
ATOM     17  C   UNL     1       7.736   7.454  18.098  0.00  0.00    +0.000 C 
ATOM     18  F   UNL     1       8.682   6.946  18.944  0.00  0.00    +0.000 F 
ATOM     19  F   UNL     1       8.380   8.409  17.361  0.00  0.00    +0.000 F 
ENDBRANCH   9  17
ENDBRANCH   5   7
BRANCH   1  23
ATOM     20  O   UNL     1       1.178   7.900  21.663  0.00  0.00    +0.000 OA
ATOM     21  C   UNL     1       1.624   7.318  20.691  0.00  0.00    +0.000 A 
ATOM     22  N   UNL     1       1.566   5.963  20.449  0.00  0.00    +0.000 NA
ATOM     23  C   UNL     1       1.977   5.821  19.212  0.00  0.00    +0.000 A 
ATOM     24  N   UNL     1       2.267   7.002  18.568  0.00  0.00    +0.000 N 
ATOM     25  N   UNL     1       2.234   7.937  19.612  0.00  0.00    +0.000 N 
ATOM     26  H   UNL     1       3.077   7.004  17.943  0.00  0.00    +0.000 HD
ATOM     27  H   UNL     1       1.951   8.891  19.423  0.00  0.00    +0.000 HD
ENDBRANCH   1  23
TORSDOF 3
ENDMDL
MODEL 9
REMARK VINA RESULT:      -7.7      3.674      6.684
REMARK  Name = 
REMARK  3 active torsions:
REMARK  status: ('A' for Active; 'I' for Inactive)
REMARK    1  A    between atoms: C_4  and  C_5
REMARK    2  A    between atoms: N_9  and  C_10
REMARK    3  A    between atoms: C_12  and  C_13
REMARK                            x       y       z     vdW  Elec       q    Type
REMARK                         _______ _______ _______ _____ _____    ______ ____
ROOT
ATOM      1  C   UNL     1       2.807   4.783  19.871  0.00  0.00    +0.000 C 
ATOM      2  C   UNL     1       1.549   5.585  19.494  0.00  0.00    +0.000 C 
ATOM      3  C   UNL     1       1.699   6.414  18.224  0.00  0.00    +0.000 C 
ATOM      4  C   UNL     1       2.976   7.237  18.241  0.00  0.00    +0.000 C 
ATOM      5  N   UNL     1       4.103   6.338  18.410  0.00  0.00    +0.000 N 
ATOM      6  C   UNL     1       4.126   5.534  19.640  0.00  0.00    +0.000 C 
ENDROOT
BRANCH   5   7
ATOM      7  C   UNL     1       5.239   6.367  17.625  0.00  0.00    +0.000 A 
ATOM      8  N   UNL     1       6.131   7.310  17.998  0.00  0.00    +0.000 NA
ATOM      9  C   UNL     1       7.300   7.395  17.334  0.00  0.00    +0.000 A 
ATOM     10  N   UNL     1       7.657   6.572  16.333  0.00  0.00    +0.000 NA
ATOM     11  C   UNL     1       6.780   5.641  15.955  0.00  0.00    +0.000 A 
ATOM     12  C   UNL     1       7.158   4.804  14.910  0.00  0.00    +0.000 A 
ATOM     13  C   UNL     1       6.321   3.804  14.415  0.00  0.00    +0.000 A 
ATOM     14  C   UNL     1       5.059   3.648  14.957  0.00  0.00    +0.000 A 
ATOM     15  C   UNL     1       4.653   4.493  15.992  0.00  0.00    +0.000 A 
ATOM     16  C   UNL     1       5.517   5.483  16.550  0.00  0.00    +0.000 A 
BRANCH   9  17
ATOM     17  C   UNL     1       8.277   8.481  17.748  0.00  0.00    +0.000 C 
ATOM     18  F   UNL     1       7.701   9.716  17.853  0.00  0.00    +0.000 F 
ATOM     19  F   UNL     1       8.858   8.245  18.964  0.00  0.00    +0.000 F 
ENDBRANCH   9  17
ENDBRANCH   5   7
BRANCH   1  23
ATOM     20  O   UNL     1       4.166   0.647  18.053  0.00  0.00    +0.000 OA
ATOM     21  C   UNL     1       3.460   1.506  18.550  0.00  0.00    +0.000 A 
ATOM     22  N   UNL     1       3.873   2.730  19.030  0.00  0.00    +0.000 NA
ATOM     23  C   UNL     1       2.766   3.391  19.269  0.00  0.00    +0.000 A 
ATOM     24  N   UNL     1       1.615   2.717  18.934  0.00  0.00    +0.000 N 
ATOM     25  N   UNL     1       2.083   1.422  18.671  0.00  0.00    +0.000 N 
ATOM     26  H   UNL     1       0.815   2.823  19.563  0.00  0.00    +0.000 HD
ATOM     27  H   UNL     1       1.606   0.845  17.989  0.00  0.00    +0.000 HD
ENDBRANCH   1  23
TORSDOF 3
ENDMDL
