MODEL 1
REMARK VINA RESULT:      -8.6      0.000      0.000
REMARK  Name = 
REMARK  5 active torsions:
REMARK  status: ('A' for Active; 'I' for Inactive)
REMARK    1  A    between atoms: C_2  and  C_17
REMARK    2  A    between atoms: N_3  and  C_4
REMARK    3  A    between atoms: C_7  and  O_8
REMARK    4  A    between atoms: O_8  and  C_9
REMARK    5  A    between atoms: C_20  and  C_21
REMARK                            x       y       z     vdW  Elec       q    Type
REMARK                         _______ _______ _______ _____ _____    ______ ____
ROOT
ATOM      1  O   UNL     1       9.033   9.094  19.496  0.00  0.00    +0.000 OA
ATOM      2  C   UNL     1       8.654   9.556  18.426  0.00  0.00    +0.000 C 
ATOM      3  N   UNL     1       7.819   8.946  17.505  0.00  0.00    +0.000 N 
ATOM      4  H   UNL     1       7.734   9.371  16.590  0.00  0.00    +0.000 HD
ENDROOT
BRANCH   3   5
ATOM      5  C   UNL     1       7.235   7.669  17.665  0.00  0.00    +0.000 A 
ATOM      6  C   UNL     1       7.816   6.663  18.442  0.00  0.00    +0.000 A 
ATOM      7  C   UNL     1       7.243   5.395  18.520  0.00  0.00    +0.000 A 
ATOM      8  C   UNL     1       6.032   5.133  17.885  0.00  0.00    +0.000 A 
ATOM      9  C   UNL     1       5.442   6.128  17.104  0.00  0.00    +0.000 A 
ATOM     10  C   UNL     1       6.035   7.394  17.000  0.00  0.00    +0.000 A 
BRANCH   8  11
ATOM     11  O   UNL     1       5.385   3.919  17.930  0.00  0.00    +0.000 OA
BRANCH  11  12
ATOM     12  C   UNL     1       4.062   3.865  18.316  0.00  0.00    +0.000 A 
ATOM     13  C   UNL     1       3.016   3.460  17.480  0.00  0.00    +0.000 A 
ATOM     14  C   UNL     1       1.701   3.463  17.948  0.00  0.00    +0.000 A 
ATOM     15  C   UNL     1       1.435   3.812  19.272  0.00  0.00    +0.000 A 
ATOM     16  C   UNL     1       2.481   4.156  20.127  0.00  0.00    +0.000 A 
ATOM     17  C   UNL     1       3.794   4.185  19.648  0.00  0.00    +0.000 A 
ENDBRANCH  11  12
ENDBRANCH   8  11
ENDBRANCH   3   5
BRANCH   2  18
ATOM     18  C   UNL     1       9.197  10.882  18.050  0.00  0.00    +0.000 A 
ATOM     19  C   UNL     1      10.588  11.037  18.105  0.00  0.00    +0.000 A 
ATOM     20  C   UNL     1      11.170  12.278  17.849  0.00  0.00    +0.000 A 
ATOM     21  C   UNL     1      10.366  13.386  17.548  0.00  0.00    +0.000 A 
ATOM     22  C   UNL     1       8.973  13.216  17.478  0.00  0.00    +0.000 A 
ATOM     23  C   UNL     1       8.384  11.971  17.733  0.00  0.00    +0.000 A 
BRANCH  21  24
ATOM     24  C   UNL     1      10.953  14.700  17.326  0.00  0.00    +0.000 A 
ATOM     25  N   UNL     1      12.233  15.017  17.281  0.00  0.00    +0.000 NA
ATOM     26  N   UNL     1      12.293  16.369  17.043  0.00  0.00    +0.000 NA
ATOM     27  N   UNL     1      11.080  16.884  16.917  0.00  0.00    +0.000 NA
ATOM     28  N   UNL     1      10.247  15.849  17.082  0.00  0.00    +0.000 N 
ATOM     29  H   UNL     1       9.250  15.990  16.998  0.00  0.00    +0.000 HD
ENDBRANCH  21  24
ENDBRANCH   2  18
TORSDOF 5
ENDMDL
MODEL 2
REMARK VINA RESULT:      -8.6      0.930      1.362
REMARK  Name = 
REMARK  5 active torsions:
REMARK  status: ('A' for Active; 'I' for Inactive)
REMARK    1  A    between atoms: C_2  and  C_17
REMARK    2  A    between atoms: N_3  and  C_4
REMARK    3  A    between atoms: C_7  and  O_8
REMARK    4  A    between atoms: O_8  and  C_9
REMARK    5  A    between atoms: C_20  and  C_21
REMARK                            x       y       z     vdW  Elec       q    Type
REMARK                         _______ _______ _______ _____ _____    ______ ____
ROOT
ATOM      1  O   UNL     1       8.828   8.397  19.043  0.00  0.00    +0.000 OA
ATOM      2  C   UNL     1       8.297   9.022  18.132  0.00  0.00    +0.000 C 
ATOM      3  N   UNL     1       7.336   8.555  17.251  0.00  0.00    +0.000 N 
ATOM      4  H   UNL     1       7.119   9.124  16.443  0.00  0.00    +0.000 HD
ENDROOT
BRANCH   3   5
ATOM      5  C   UNL     1       6.780   7.255  17.277  0.00  0.00    +0.000 A 
ATOM      6  C   UNL     1       7.530   6.118  17.584  0.00  0.00    +0.000 A 
ATOM      7  C   UNL     1       6.960   4.847  17.533  0.00  0.00    +0.000 A 
ATOM      8  C   UNL     1       5.605   4.697  17.251  0.00  0.00    +0.000 A 
ATOM      9  C   UNL     1       4.845   5.826  16.939  0.00  0.00    +0.000 A 
ATOM     10  C   UNL     1       5.426   7.101  16.960  0.00  0.00    +0.000 A 
BRANCH   8  11
ATOM     11  O   UNL     1       4.956   3.484  17.203  0.00  0.00    +0.000 OA
BRANCH  11  12
ATOM     12  C   UNL     1       3.964   3.205  18.120  0.00  0.00    +0.000 A 
ATOM     13  C   UNL     1       4.147   3.235  19.507  0.00  0.00    +0.000 A 
ATOM     14  C   UNL     1       3.091   2.910  20.361  0.00  0.00    +0.000 A 
ATOM     15  C   UNL     1       1.835   2.616  19.833  0.00  0.00    +0.000 A 
ATOM     16  C   UNL     1       1.632   2.646  18.454  0.00  0.00    +0.000 A 
ATOM     17  C   UNL     1       2.697   2.939  17.598  0.00  0.00    +0.000 A 
ENDBRANCH  11  12
ENDBRANCH   8  11
ENDBRANCH   3   5
BRANCH   2  18
ATOM     18  C   UNL     1       8.781  10.404  17.910  0.00  0.00    +0.000 A 
ATOM     19  C   UNL     1      10.147  10.641  18.118  0.00  0.00    +0.000 A 
ATOM     20  C   UNL     1      10.663  11.931  18.013  0.00  0.00    +0.000 A 
ATOM     21  C   UNL     1       9.818  13.008  17.711  0.00  0.00    +0.000 A 
ATOM     22  C   UNL     1       8.454  12.758  17.486  0.00  0.00    +0.000 A 
ATOM     23  C   UNL     1       7.930  11.463  17.589  0.00  0.00    +0.000 A 
BRANCH  21  24
ATOM     24  C   UNL     1      10.332  14.368  17.645  0.00  0.00    +0.000 A 
ATOM     25  N   UNL     1      10.263  15.305  18.571  0.00  0.00    +0.000 NA
ATOM     26  N   UNL     1      10.889  16.413  18.053  0.00  0.00    +0.000 NA
ATOM     27  N   UNL     1      11.360  16.170  16.840  0.00  0.00    +0.000 NA
ATOM     28  N   UNL     1      11.025  14.899  16.589  0.00  0.00    +0.000 N 
ATOM     29  H   UNL     1      11.307  14.469  15.719  0.00  0.00    +0.000 HD
ENDBRANCH  21  24
ENDBRANCH   2  18
TORSDOF 5
ENDMDL
MODEL 3
REMARK VINA RESULT:      -8.6      0.903      1.296
REMARK  Name = 
REMARK  5 active torsions:
REMARK  status: ('A' for Active; 'I' for Inactive)
REMARK    1  A    between atoms: C_2  and  C_17
REMARK    2  A    between atoms: N_3  and  C_4
REMARK    3  A    between atoms: C_7  and  O_8
REMARK    4  A    between atoms: O_8  and  C_9
REMARK    5  A    between atoms: C_20  and  C_21
REMARK                            x       y       z     vdW  Elec       q    Type
REMARK                         _______ _______ _______ _____ _____    ______ ____
ROOT
ATOM      1  O   UNL     1       8.821   8.289  19.149  0.00  0.00    +0.000 OA
ATOM      2  C   UNL     1       8.345   8.982  18.257  0.00  0.00    +0.000 C 
ATOM      3  N   UNL     1       7.404   8.597  17.316  0.00  0.00    +0.000 N 
ATOM      4  H   UNL     1       7.235   9.219  16.535  0.00  0.00    +0.000 HD
ENDROOT
BRANCH   3   5
ATOM      5  C   UNL     1       6.809   7.317  17.245  0.00  0.00    +0.000 A 
ATOM      6  C   UNL     1       7.546   6.134  17.336  0.00  0.00    +0.000 A 
ATOM      7  C   UNL     1       6.930   4.891  17.193  0.00  0.00    +0.000 A 
ATOM      8  C   UNL     1       5.549   4.808  17.037  0.00  0.00    +0.000 A 
ATOM      9  C   UNL     1       4.801   5.983  16.943  0.00  0.00    +0.000 A 
ATOM     10  C   UNL     1       5.425   7.233  17.054  0.00  0.00    +0.000 A 
BRANCH   8  11
ATOM     11  O   UNL     1       4.857   3.624  16.914  0.00  0.00    +0.000 OA
BRANCH  11  12
ATOM     12  C   UNL     1       3.834   3.338  17.794  0.00  0.00    +0.000 A 
ATOM     13  C   UNL     1       2.493   3.201  17.420  0.00  0.00    +0.000 A 
ATOM     14  C   UNL     1       1.519   2.937  18.385  0.00  0.00    +0.000 A 
ATOM     15  C   UNL     1       1.891   2.748  19.715  0.00  0.00    +0.000 A 
ATOM     16  C   UNL     1       3.234   2.821  20.082  0.00  0.00    +0.000 A 
ATOM     17  C   UNL     1       4.205   3.118  19.122  0.00  0.00    +0.000 A 
ENDBRANCH  11  12
ENDBRANCH   8  11
ENDBRANCH   3   5
BRANCH   2  18
ATOM     18  C   UNL     1       8.878  10.358  18.134  0.00  0.00    +0.000 A 
ATOM     19  C   UNL     1       8.004  11.337  17.644  0.00  0.00    +0.000 A 
ATOM     20  C   UNL     1       8.455  12.636  17.419  0.00  0.00    +0.000 A 
ATOM     21  C   UNL     1       9.793  12.973  17.669  0.00  0.00    +0.000 A 
ATOM     22  C   UNL     1      10.657  11.989  18.179  0.00  0.00    +0.000 A 
ATOM     23  C   UNL     1      10.208  10.682  18.407  0.00  0.00    +0.000 A 
BRANCH  21  24
ATOM     24  C   UNL     1      10.293  14.313  17.395  0.00  0.00    +0.000 A 
ATOM     25  N   UNL     1      11.530  14.673  17.112  0.00  0.00    +0.000 NA
ATOM     26  N   UNL     1      11.508  16.035  16.929  0.00  0.00    +0.000 NA
ATOM     27  N   UNL     1      10.282  16.514  17.070  0.00  0.00    +0.000 NA
ATOM     28  N   UNL     1       9.525  15.447  17.348  0.00  0.00    +0.000 N 
ATOM     29  H   UNL     1       8.527  15.558  17.470  0.00  0.00    +0.000 HD
ENDBRANCH  21  24
ENDBRANCH   2  18
TORSDOF 5
ENDMDL
MODEL 4
REMARK VINA RESULT:      -8.4      0.914      1.807
REMARK  Name = 
REMARK  5 active torsions:
REMARK  status: ('A' for Active; 'I' for Inactive)
REMARK    1  A    between atoms: C_2  and  C_17
REMARK    2  A    between atoms: N_3  and  C_4
REMARK    3  A    between atoms: C_7  and  O_8
REMARK    4  A    between atoms: O_8  and  C_9
REMARK    5  A    between atoms: C_20  and  C_21
REMARK                            x       y       z     vdW  Elec       q    Type
REMARK                         _______ _______ _______ _____ _____    ______ ____
ROOT
ATOM      1  O   UNL     1       8.769   8.194  19.122  0.00  0.00    +0.000 OA
ATOM      2  C   UNL     1       8.309   8.918  18.246  0.00  0.00    +0.000 C 
ATOM      3  N   UNL     1       7.341   8.585  17.313  0.00  0.00    +0.000 N 
ATOM      4  H   UNL     1       7.188   9.224  16.543  0.00  0.00    +0.000 HD
ENDROOT
BRANCH   3   5
ATOM      5  C   UNL     1       6.694   7.331  17.233  0.00  0.00    +0.000 A 
ATOM      6  C   UNL     1       5.320   7.202  17.020  0.00  0.00    +0.000 A 
ATOM      7  C   UNL     1       4.709   5.948  17.015  0.00  0.00    +0.000 A 
ATOM      8  C   UNL     1       5.476   4.794  17.144  0.00  0.00    +0.000 A 
ATOM      9  C   UNL     1       6.850   4.910  17.360  0.00  0.00    +0.000 A 
ATOM     10  C   UNL     1       7.460   6.172  17.397  0.00  0.00    +0.000 A 
BRANCH   8  11
ATOM     11  O   UNL     1       4.960   3.518  17.125  0.00  0.00    +0.000 OA
BRANCH  11  12
ATOM     12  C   UNL     1       3.986   3.163  18.035  0.00  0.00    +0.000 A 
ATOM     13  C   UNL     1       4.191   3.094  19.417  0.00  0.00    +0.000 A 
ATOM     14  C   UNL     1       3.152   2.698  20.261  0.00  0.00    +0.000 A 
ATOM     15  C   UNL     1       1.890   2.429  19.733  0.00  0.00    +0.000 A 
ATOM     16  C   UNL     1       1.665   2.558  18.363  0.00  0.00    +0.000 A 
ATOM     17  C   UNL     1       2.713   2.923  17.515  0.00  0.00    +0.000 A 
ENDBRANCH  11  12
ENDBRANCH   8  11
ENDBRANCH   3   5
BRANCH   2  18
ATOM     18  C   UNL     1       8.896  10.273  18.135  0.00  0.00    +0.000 A 
ATOM     19  C   UNL     1       8.049  11.298  17.693  0.00  0.00    +0.000 A 
ATOM     20  C   UNL     1       8.548  12.582  17.481  0.00  0.00    +0.000 A 
ATOM     21  C   UNL     1       9.906  12.858  17.694  0.00  0.00    +0.000 A 
ATOM     22  C   UNL     1      10.743  11.828  18.155  0.00  0.00    +0.000 A 
ATOM     23  C   UNL     1      10.247  10.536  18.371  0.00  0.00    +0.000 A 
BRANCH  21  24
ATOM     24  C   UNL     1      10.453  14.181  17.432  0.00  0.00    +0.000 A 
ATOM     25  N   UNL     1      11.716  14.512  17.244  0.00  0.00    +0.000 NA
ATOM     26  N   UNL     1      11.736  15.869  17.029  0.00  0.00    +0.000 NA
ATOM     27  N   UNL     1      10.513  16.374  17.056  0.00  0.00    +0.000 NA
ATOM     28  N   UNL     1       9.714  15.327  17.295  0.00  0.00    +0.000 N 
ATOM     29  H   UNL     1       8.712  15.459  17.332  0.00  0.00    +0.000 HD
ENDBRANCH  21  24
ENDBRANCH   2  18
TORSDOF 5
ENDMDL
MODEL 5
REMARK VINA RESULT:      -8.4      0.998      1.312
REMARK  Name = 
REMARK  5 active torsions:
REMARK  status: ('A' for Active; 'I' for Inactive)
REMARK    1  A    between atoms: C_2  and  C_17
REMARK    2  A    between atoms: N_3  and  C_4
REMARK    3  A    between atoms: C_7  and  O_8
REMARK    4  A    between atoms: O_8  and  C_9
REMARK    5  A    between atoms: C_20  and  C_21
REMARK                            x       y       z     vdW  Elec       q    Type
REMARK                         _______ _______ _______ _____ _____    ______ ____
ROOT
ATOM      1  O   UNL     1       8.746   8.346  19.006  0.00  0.00    +0.000 OA
ATOM      2  C   UNL     1       8.231   9.011  18.114  0.00  0.00    +0.000 C 
ATOM      3  N   UNL     1       7.234   8.606  17.242  0.00  0.00    +0.000 N 
ATOM      4  H   UNL     1       7.032   9.199  16.447  0.00  0.00    +0.000 HD
ENDROOT
BRANCH   3   5
ATOM      5  C   UNL     1       6.615   7.335  17.257  0.00  0.00    +0.000 A 
ATOM      6  C   UNL     1       5.234   7.168  17.380  0.00  0.00    +0.000 A 
ATOM      7  C   UNL     1       4.669   5.896  17.458  0.00  0.00    +0.000 A 
ATOM      8  C   UNL     1       5.470   4.765  17.334  0.00  0.00    +0.000 A 
ATOM      9  C   UNL     1       6.853   4.918  17.214  0.00  0.00    +0.000 A 
ATOM     10  C   UNL     1       7.424   6.197  17.167  0.00  0.00    +0.000 A 
BRANCH   8  11
ATOM     11  O   UNL     1       4.994   3.474  17.375  0.00  0.00    +0.000 OA
BRANCH  11  12
ATOM     12  C   UNL     1       3.873   3.184  18.124  0.00  0.00    +0.000 A 
ATOM     13  C   UNL     1       2.598   2.989  17.584  0.00  0.00    +0.000 A 
ATOM     14  C   UNL     1       1.513   2.726  18.422  0.00  0.00    +0.000 A 
ATOM     15  C   UNL     1       1.711   2.595  19.796  0.00  0.00    +0.000 A 
ATOM     16  C   UNL     1       2.992   2.727  20.332  0.00  0.00    +0.000 A 
ATOM     17  C   UNL     1       4.072   3.023  19.496  0.00  0.00    +0.000 A 
ENDBRANCH  11  12
ENDBRANCH   8  11
ENDBRANCH   3   5
BRANCH   2  18
ATOM     18  C   UNL     1       8.780  10.372  17.905  0.00  0.00    +0.000 A 
ATOM     19  C   UNL     1      10.140  10.558  18.184  0.00  0.00    +0.000 A 
ATOM     20  C   UNL     1      10.711  11.827  18.095  0.00  0.00    +0.000 A 
ATOM     21  C   UNL     1       9.924  12.932  17.739  0.00  0.00    +0.000 A 
ATOM     22  C   UNL     1       8.565  12.731  17.443  0.00  0.00    +0.000 A 
ATOM     23  C   UNL     1       7.987  11.458  17.530  0.00  0.00    +0.000 A 
BRANCH  21  24
ATOM     24  C   UNL     1      10.493  14.271  17.688  0.00  0.00    +0.000 A 
ATOM     25  N   UNL     1      10.718  15.093  18.694  0.00  0.00    +0.000 NA
ATOM     26  N   UNL     1      11.266  16.231  18.154  0.00  0.00    +0.000 NA
ATOM     27  N   UNL     1      11.404  16.117  16.842  0.00  0.00    +0.000 NA
ATOM     28  N   UNL     1      10.935  14.897  16.552  0.00  0.00    +0.000 N 
ATOM     29  H   UNL     1      10.963  14.563  15.598  0.00  0.00    +0.000 HD
ENDBRANCH  21  24
ENDBRANCH   2  18
TORSDOF 5
ENDMDL
MODEL 6
REMARK VINA RESULT:      -8.3      6.807     10.014
REMARK  Name = 
REMARK  5 active torsions:
REMARK  status: ('A' for Active; 'I' for Inactive)
REMARK    1  A    between atoms: C_2  and  C_17
REMARK    2  A    between atoms: N_3  and  C_4
REMARK    3  A    between atoms: C_7  and  O_8
REMARK    4  A    between atoms: O_8  and  C_9
REMARK    5  A    between atoms: C_20  and  C_21
REMARK                            x       y       z     vdW  Elec       q    Type
REMARK                         _______ _______ _______ _____ _____    ______ ____
ROOT
ATOM      1  O   UNL     1       1.700   5.984  20.319  0.00  0.00    +0.000 OA
ATOM      2  C   UNL     1       2.244   6.841  19.632  0.00  0.00    +0.000 C 
ATOM      3  N   UNL     1       2.011   8.206  19.663  0.00  0.00    +0.000 N 
ATOM      4  H   UNL     1       2.404   8.770  18.920  0.00  0.00    +0.000 HD
ENDROOT
BRANCH   3   5
ATOM      5  C   UNL     1       1.099   8.850  20.531  0.00  0.00    +0.000 A 
ATOM      6  C   UNL     1       0.022   9.610  20.068  0.00  0.00    +0.000 A 
ATOM      7  C   UNL     1      -0.814  10.285  20.955  0.00  0.00    +0.000 A 
ATOM      8  C   UNL     1      -0.637  10.146  22.329  0.00  0.00    +0.000 A 
ATOM      9  C   UNL     1       0.437   9.391  22.805  0.00  0.00    +0.000 A 
ATOM     10  C   UNL     1       1.298   8.738  21.911  0.00  0.00    +0.000 A 
BRANCH   8  11
ATOM     11  O   UNL     1      -1.430  10.755  23.275  0.00  0.00    +0.000 OA
BRANCH  11  12
ATOM     12  C   UNL     1      -1.870  12.045  23.068  0.00  0.00    +0.000 A 
ATOM     13  C   UNL     1      -3.216  12.423  23.058  0.00  0.00    +0.000 A 
ATOM     14  C   UNL     1      -3.571  13.751  22.813  0.00  0.00    +0.000 A 
ATOM     15  C   UNL     1      -2.580  14.715  22.637  0.00  0.00    +0.000 A 
ATOM     16  C   UNL     1      -1.235  14.354  22.708  0.00  0.00    +0.000 A 
ATOM     17  C   UNL     1      -0.880  13.019  22.921  0.00  0.00    +0.000 A 
ENDBRANCH  11  12
ENDBRANCH   8  11
ENDBRANCH   3   5
BRANCH   2  18
ATOM     18  C   UNL     1       3.211   6.359  18.618  0.00  0.00    +0.000 A 
ATOM     19  C   UNL     1       3.889   7.332  17.873  0.00  0.00    +0.000 A 
ATOM     20  C   UNL     1       4.750   6.959  16.843  0.00  0.00    +0.000 A 
ATOM     21  C   UNL     1       4.935   5.604  16.533  0.00  0.00    +0.000 A 
ATOM     22  C   UNL     1       4.264   4.635  17.297  0.00  0.00    +0.000 A 
ATOM     23  C   UNL     1       3.399   5.005  18.335  0.00  0.00    +0.000 A 
BRANCH  21  24
ATOM     24  C   UNL     1       5.793   5.198  15.429  0.00  0.00    +0.000 A 
ATOM     25  N   UNL     1       5.521   4.337  14.467  0.00  0.00    +0.000 NA
ATOM     26  N   UNL     1       6.633   4.288  13.661  0.00  0.00    +0.000 NA
ATOM     27  N   UNL     1       7.571   5.116  14.093  0.00  0.00    +0.000 NA
ATOM     28  N   UNL     1       7.048   5.690  15.184  0.00  0.00    +0.000 N 
ATOM     29  H   UNL     1       7.575   6.395  15.681  0.00  0.00    +0.000 HD
ENDBRANCH  21  24
ENDBRANCH   2  18
TORSDOF 5
ENDMDL
MODEL 7
REMARK VINA RESULT:      -8.3      7.325      9.880
REMARK  Name = 
REMARK  5 active torsions:
REMARK  status: ('A' for Active; 'I' for Inactive)
REMARK    1  A    between atoms: C_2  and  C_17
REMARK    2  A    between atoms: N_3  and  C_4
REMARK    3  A    between atoms: C_7  and  O_8
REMARK    4  A    between atoms: O_8  and  C_9
REMARK    5  A    between atoms: C_20  and  C_21
REMARK                            x       y       z     vdW  Elec       q    Type
REMARK                         _______ _______ _______ _____ _____    ______ ____
ROOT
ATOM      1  O   UNL     1       0.880   9.584  18.931  0.00  0.00    +0.000 OA
ATOM      2  C   UNL     1       0.750   9.265  20.107  0.00  0.00    +0.000 C 
ATOM      3  N   UNL     1       1.223   8.114  20.715  0.00  0.00    +0.000 N 
ATOM      4  H   UNL     1       0.890   7.901  21.647  0.00  0.00    +0.000 HD
ENDROOT
BRANCH   3   5
ATOM      5  C   UNL     1       1.974   7.107  20.066  0.00  0.00    +0.000 A 
ATOM      6  C   UNL     1       2.682   7.335  18.884  0.00  0.00    +0.000 A 
ATOM      7  C   UNL     1       3.354   6.298  18.238  0.00  0.00    +0.000 A 
ATOM      8  C   UNL     1       3.397   5.029  18.808  0.00  0.00    +0.000 A 
ATOM      9  C   UNL     1       2.690   4.787  19.988  0.00  0.00    +0.000 A 
ATOM     10  C   UNL     1       1.988   5.822  20.620  0.00  0.00    +0.000 A 
BRANCH   8  11
ATOM     11  O   UNL     1       4.056   3.956  18.253  0.00  0.00    +0.000 OA
BRANCH  11  12
ATOM     12  C   UNL     1       5.118   4.174  17.401  0.00  0.00    +0.000 A 
ATOM     13  C   UNL     1       6.411   4.497  17.825  0.00  0.00    +0.000 A 
ATOM     14  C   UNL     1       7.420   4.728  16.888  0.00  0.00    +0.000 A 
ATOM     15  C   UNL     1       7.155   4.577  15.528  0.00  0.00    +0.000 A 
ATOM     16  C   UNL     1       5.883   4.194  15.103  0.00  0.00    +0.000 A 
ATOM     17  C   UNL     1       4.865   3.995  16.040  0.00  0.00    +0.000 A 
ENDBRANCH  11  12
ENDBRANCH   8  11
ENDBRANCH   3   5
BRANCH   2  18
ATOM     18  C   UNL     1      -0.053  10.177  20.953  0.00  0.00    +0.000 A 
ATOM     19  C   UNL     1      -0.248   9.800  22.288  0.00  0.00    +0.000 A 
ATOM     20  C   UNL     1      -1.062  10.560  23.125  0.00  0.00    +0.000 A 
ATOM     21  C   UNL     1      -1.706  11.705  22.634  0.00  0.00    +0.000 A 
ATOM     22  C   UNL     1      -1.490  12.086  21.299  0.00  0.00    +0.000 A 
ATOM     23  C   UNL     1      -0.671  11.325  20.454  0.00  0.00    +0.000 A 
BRANCH  21  24
ATOM     24  C   UNL     1      -2.598  12.485  23.481  0.00  0.00    +0.000 A 
ATOM     25  N   UNL     1      -3.745  12.107  24.011  0.00  0.00    +0.000 NA
ATOM     26  N   UNL     1      -4.215  13.179  24.731  0.00  0.00    +0.000 NA
ATOM     27  N   UNL     1      -3.371  14.198  24.672  0.00  0.00    +0.000 NA
ATOM     28  N   UNL     1      -2.362  13.765  23.907  0.00  0.00    +0.000 N 
ATOM     29  H   UNL     1      -1.567  14.367  23.739  0.00  0.00    +0.000 HD
ENDBRANCH  21  24
ENDBRANCH   2  18
TORSDOF 5
ENDMDL
MODEL 8
REMARK VINA RESULT:      -8.2      6.995     10.063
REMARK  Name = 
REMARK  5 active torsions:
REMARK  status: ('A' for Active; 'I' for Inactive)
REMARK    1  A    between atoms: C_2  and  C_17
REMARK    2  A    between atoms: N_3  and  C_4
REMARK    3  A    between atoms: C_7  and  O_8
REMARK    4  A    between atoms: O_8  and  C_9
REMARK    5  A    between atoms: C_20  and  C_21
REMARK                            x       y       z     vdW  Elec       q    Type
REMARK                         _______ _______ _______ _____ _____    ______ ____
ROOT
ATOM      1  O   UNL     1       1.748   6.329  20.532  0.00  0.00    +0.000 OA
ATOM      2  C   UNL     1       2.140   7.194  19.757  0.00  0.00    +0.000 C 
ATOM      3  N   UNL     1       1.819   8.541  19.781  0.00  0.00    +0.000 N 
ATOM      4  H   UNL     1       2.074   9.102  18.978  0.00  0.00    +0.000 HD
ENDROOT
BRANCH   3   5
ATOM      5  C   UNL     1       0.984   9.155  20.742  0.00  0.00    +0.000 A 
ATOM      6  C   UNL     1       1.133   8.948  22.115  0.00  0.00    +0.000 A 
ATOM      7  C   UNL     1       0.246   9.520  23.027  0.00  0.00    +0.000 A 
ATOM      8  C   UNL     1      -0.759  10.376  22.585  0.00  0.00    +0.000 A 
ATOM      9  C   UNL     1      -0.919  10.589  21.215  0.00  0.00    +0.000 A 
ATOM     10  C   UNL     1      -0.047   9.989  20.296  0.00  0.00    +0.000 A 
BRANCH   8  11
ATOM     11  O   UNL     1      -1.660  11.001  23.416  0.00  0.00    +0.000 OA
BRANCH  11  12
ATOM     12  C   UNL     1      -2.136  12.253  23.088  0.00  0.00    +0.000 A 
ATOM     13  C   UNL     1      -3.445  12.510  22.666  0.00  0.00    +0.000 A 
ATOM     14  C   UNL     1      -3.832  13.808  22.327  0.00  0.00    +0.000 A 
ATOM     15  C   UNL     1      -2.930  14.861  22.467  0.00  0.00    +0.000 A 
ATOM     16  C   UNL     1      -1.643  14.619  22.947  0.00  0.00    +0.000 A 
ATOM     17  C   UNL     1      -1.246  13.316  23.255  0.00  0.00    +0.000 A 
ENDBRANCH  11  12
ENDBRANCH   8  11
ENDBRANCH   3   5
BRANCH   2  18
ATOM     18  C   UNL     1       2.999   6.739  18.639  0.00  0.00    +0.000 A 
ATOM     19  C   UNL     1       3.361   5.385  18.626  0.00  0.00    +0.000 A 
ATOM     20  C   UNL     1       4.235   4.898  17.657  0.00  0.00    +0.000 A 
ATOM     21  C   UNL     1       4.773   5.762  16.692  0.00  0.00    +0.000 A 
ATOM     22  C   UNL     1       4.390   7.114  16.702  0.00  0.00    +0.000 A 
ATOM     23  C   UNL     1       3.510   7.608  17.674  0.00  0.00    +0.000 A 
BRANCH  21  24
ATOM     24  C   UNL     1       5.725   5.280  15.702  0.00  0.00    +0.000 A 
ATOM     25  N   UNL     1       5.519   4.395  14.745  0.00  0.00    +0.000 NA
ATOM     26  N   UNL     1       6.707   4.270  14.066  0.00  0.00    +0.000 NA
ATOM     27  N   UNL     1       7.630   5.074  14.570  0.00  0.00    +0.000 NA
ATOM     28  N   UNL     1       7.020   5.710  15.577  0.00  0.00    +0.000 N 
ATOM     29  H   UNL     1       7.522   6.410  16.105  0.00  0.00    +0.000 HD
ENDBRANCH  21  24
ENDBRANCH   2  18
TORSDOF 5
ENDMDL
MODEL 9
REMARK VINA RESULT:      -8.2      6.964     10.099
REMARK  Name = 
REMARK  5 active torsions:
REMARK  status: ('A' for Active; 'I' for Inactive)
REMARK    1  A    between atoms: C_2  and  C_17
REMARK    2  A    between atoms: N_3  and  C_4
REMARK    3  A    between atoms: C_7  and  O_8
REMARK    4  A    between atoms: O_8  and  C_9
REMARK    5  A    between atoms: C_20  and  C_21
REMARK                            x       y       z     vdW  Elec       q    Type
REMARK                         _______ _______ _______ _____ _____    ______ ____
ROOT
ATOM      1  O   UNL     1       1.832   6.318  20.369  0.00  0.00    +0.000 OA
ATOM      2  C   UNL     1       2.198   7.172  19.569  0.00  0.00    +0.000 C 
ATOM      3  N   UNL     1       1.844   8.510  19.560  0.00  0.00    +0.000 N 
ATOM      4  H   UNL     1       2.080   9.056  18.741  0.00  0.00    +0.000 HD
ENDROOT
BRANCH   3   5
ATOM      5  C   UNL     1       1.001   9.129  20.511  0.00  0.00    +0.000 A 
ATOM      6  C   UNL     1      -0.024  10.009  20.154  0.00  0.00    +0.000 A 
ATOM      7  C   UNL     1      -0.790  10.651  21.126  0.00  0.00    +0.000 A 
ATOM      8  C   UNL     1      -0.597  10.362  22.473  0.00  0.00    +0.000 A 
ATOM      9  C   UNL     1       0.425   9.487  22.844  0.00  0.00    +0.000 A 
ATOM     10  C   UNL     1       1.217   8.865  21.868  0.00  0.00    +0.000 A 
BRANCH   8  11
ATOM     11  O   UNL     1      -1.323  10.930  23.496  0.00  0.00    +0.000 OA
BRANCH  11  12
ATOM     12  C   UNL     1      -1.861  12.189  23.333  0.00  0.00    +0.000 A 
ATOM     13  C   UNL     1      -1.100  13.354  23.184  0.00  0.00    +0.000 A 
ATOM     14  C   UNL     1      -1.731  14.593  23.052  0.00  0.00    +0.000 A 
ATOM     15  C   UNL     1      -3.123  14.663  23.006  0.00  0.00    +0.000 A 
ATOM     16  C   UNL     1      -3.884  13.498  23.091  0.00  0.00    +0.000 A 
ATOM     17  C   UNL     1      -3.253  12.262  23.256  0.00  0.00    +0.000 A 
ENDBRANCH  11  12
ENDBRANCH   8  11
ENDBRANCH   3   5
BRANCH   2  18
ATOM     18  C   UNL     1       3.061   6.708  18.457  0.00  0.00    +0.000 A 
ATOM     19  C   UNL     1       3.327   5.334  18.390  0.00  0.00    +0.000 A 
ATOM     20  C   UNL     1       4.199   4.831  17.426  0.00  0.00    +0.000 A 
ATOM     21  C   UNL     1       4.828   5.698  16.521  0.00  0.00    +0.000 A 
ATOM     22  C   UNL     1       4.539   7.072  16.584  0.00  0.00    +0.000 A 
ATOM     23  C   UNL     1       3.664   7.582  17.551  0.00  0.00    +0.000 A 
BRANCH  21  24
ATOM     24  C   UNL     1       5.777   5.196  15.538  0.00  0.00    +0.000 A 
ATOM     25  N   UNL     1       5.574   4.277  14.614  0.00  0.00    +0.000 NA
ATOM     26  N   UNL     1       6.757   4.145  13.928  0.00  0.00    +0.000 NA
ATOM     27  N   UNL     1       7.674   4.978  14.395  0.00  0.00    +0.000 NA
ATOM     28  N   UNL     1       7.064   5.639  15.387  0.00  0.00    +0.000 N 
ATOM     29  H   UNL     1       7.562   6.364  15.885  0.00  0.00    +0.000 HD
ENDBRANCH  21  24
ENDBRANCH   2  18
TORSDOF 5
ENDMDL
