MODEL 1
REMARK VINA RESULT:      -8.3      0.000      0.000
REMARK  Name = 
REMARK  6 active torsions:
REMARK  status: ('A' for Active; 'I' for Inactive)
REMARK    1  A    between atoms: C_2  and  C_18
REMARK    2  A    between atoms: N_3  and  C_4
REMARK    3  A    between atoms: C_4  and  C_5
REMARK    4  A    between atoms: C_8  and  C_9
REMARK    5  A    between atoms: C_9  and  N_10
REMARK    6  A    between atoms: C_21  and  N_22
REMARK                            x       y       z     vdW  Elec       q    Type
REMARK                         _______ _______ _______ _____ _____    ______ ____
ROOT
ATOM      1  O   UNL     1       8.558   7.373  18.964  0.00  0.00    +0.000 OA
ATOM      2  C   UNL     1       8.174   8.177  18.122  0.00  0.00    +0.000 C 
ATOM      3  N   UNL     1       7.516   7.820  16.970  0.00  0.00    +0.000 N 
ATOM      4  H   UNL     1       7.338   8.514  16.255  0.00  0.00    +0.000 HD
ENDROOT
BRANCH   2   5
ATOM      5  C   UNL     1       8.474   9.620  18.290  0.00  0.00    +0.000 A 
ATOM      6  C   UNL     1       9.272   9.996  19.375  0.00  0.00    +0.000 A 
ATOM      7  C   UNL     1       9.638  11.331  19.540  0.00  0.00    +0.000 A 
ATOM      8  C   UNL     1       9.223  12.307  18.624  0.00  0.00    +0.000 A 
ATOM      9  C   UNL     1       8.352  11.935  17.591  0.00  0.00    +0.000 A 
ATOM     10  C   UNL     1       7.992  10.595  17.411  0.00  0.00    +0.000 A 
BRANCH   8  11
ATOM     11  N   UNL     1       9.607  13.653  18.754  0.00  0.00    +0.000 N 
ATOM     12  C   UNL     1       8.722  14.734  18.829  0.00  0.00    +0.000 A 
ATOM     13  N   UNL     1       7.480  14.541  19.312  0.00  0.00    +0.000 NA
ATOM     14  C   UNL     1       6.664  15.602  19.378  0.00  0.00    +0.000 A 
ATOM     15  C   UNL     1       7.040  16.862  18.994  0.00  0.00    +0.000 A 
ATOM     16  C   UNL     1       8.324  16.967  18.516  0.00  0.00    +0.000 A 
ATOM     17  N   UNL     1       9.177  15.928  18.418  0.00  0.00    +0.000 NA
ATOM     18  H   UNL     1      10.376  13.926  18.155  0.00  0.00    +0.000 HD
ENDBRANCH   8  11
ENDBRANCH   2   5
BRANCH   3  19
ATOM     19  C   UNL     1       7.276   6.438  16.629  0.00  0.00    +0.000 C 
BRANCH  19  20
ATOM     20  C   UNL     1       5.878   6.019  17.003  0.00  0.00    +0.000 A 
ATOM     21  C   UNL     1       4.940   6.959  17.442  0.00  0.00    +0.000 A 
ATOM     22  C   UNL     1       3.640   6.563  17.770  0.00  0.00    +0.000 A 
ATOM     23  C   UNL     1       3.254   5.218  17.669  0.00  0.00    +0.000 A 
ATOM     24  C   UNL     1       4.199   4.276  17.241  0.00  0.00    +0.000 A 
ATOM     25  C   UNL     1       5.503   4.670  16.925  0.00  0.00    +0.000 A 
BRANCH  23  26
ATOM     26  C   UNL     1       1.838   4.794  17.988  0.00  0.00    +0.000 C 
BRANCH  26  27
ATOM     27  N   UNL     1       1.728   4.118  19.270  0.00  0.00    +0.000 N 
ATOM     28  C   UNL     1       1.817   2.686  19.413  0.00  0.00    +0.000 C 
ATOM     29  C   UNL     1       1.453   2.457  20.868  0.00  0.00    +0.000 C 
ATOM     30  C   UNL     1       1.943   3.720  21.563  0.00  0.00    +0.000 C 
ATOM     31  C   UNL     1       1.796   4.772  20.490  0.00  0.00    +0.000 C 
ATOM     32  O   UNL     1       1.794   5.977  20.679  0.00  0.00    +0.000 OA
ENDBRANCH  26  27
ENDBRANCH  23  26
ENDBRANCH  19  20
ENDBRANCH   3  19
TORSDOF 6
ENDMDL
MODEL 2
REMARK VINA RESULT:      -8.3      1.425      1.745
REMARK  Name = 
REMARK  6 active torsions:
REMARK  status: ('A' for Active; 'I' for Inactive)
REMARK    1  A    between atoms: C_2  and  C_18
REMARK    2  A    between atoms: N_3  and  C_4
REMARK    3  A    between atoms: C_4  and  C_5
REMARK    4  A    between atoms: C_8  and  C_9
REMARK    5  A    between atoms: C_9  and  N_10
REMARK    6  A    between atoms: C_21  and  N_22
REMARK                            x       y       z     vdW  Elec       q    Type
REMARK                         _______ _______ _______ _____ _____    ______ ____
ROOT
ATOM      1  O   UNL     1       8.813   8.241  19.193  0.00  0.00    +0.000 OA
ATOM      2  C   UNL     1       8.411   8.858  18.214  0.00  0.00    +0.000 C 
ATOM      3  N   UNL     1       7.694   8.285  17.192  0.00  0.00    +0.000 N 
ATOM      4  H   UNL     1       7.499   8.816  16.353  0.00  0.00    +0.000 HD
ENDROOT
BRANCH   2   5
ATOM      5  C   UNL     1       8.752  10.294  18.056  0.00  0.00    +0.000 A 
ATOM      6  C   UNL     1      10.028  10.706  18.450  0.00  0.00    +0.000 A 
ATOM      7  C   UNL     1      10.420  12.031  18.262  0.00  0.00    +0.000 A 
ATOM      8  C   UNL     1       9.554  12.958  17.669  0.00  0.00    +0.000 A 
ATOM      9  C   UNL     1       8.248  12.557  17.358  0.00  0.00    +0.000 A 
ATOM     10  C   UNL     1       7.851  11.226  17.532  0.00  0.00    +0.000 A 
BRANCH   8  11
ATOM     11  N   UNL     1       9.941  14.289  17.440  0.00  0.00    +0.000 N 
ATOM     12  C   UNL     1       9.483  15.393  18.168  0.00  0.00    +0.000 A 
ATOM     13  N   UNL     1       9.075  15.224  19.440  0.00  0.00    +0.000 NA
ATOM     14  C   UNL     1       8.652  16.306  20.109  0.00  0.00    +0.000 A 
ATOM     15  C   UNL     1       8.631  17.563  19.564  0.00  0.00    +0.000 A 
ATOM     16  C   UNL     1       9.066  17.643  18.264  0.00  0.00    +0.000 A 
ATOM     17  N   UNL     1       9.488  16.583  17.546  0.00  0.00    +0.000 NA
ATOM     18  H   UNL     1       9.965  14.554  16.463  0.00  0.00    +0.000 HD
ENDBRANCH   8  11
ENDBRANCH   2   5
BRANCH   3  19
ATOM     19  C   UNL     1       7.406   6.870  17.167  0.00  0.00    +0.000 C 
BRANCH  19  20
ATOM     20  C   UNL     1       6.038   6.582  17.727  0.00  0.00    +0.000 A 
ATOM     21  C   UNL     1       5.868   5.682  18.783  0.00  0.00    +0.000 A 
ATOM     22  C   UNL     1       4.595   5.434  19.307  0.00  0.00    +0.000 A 
ATOM     23  C   UNL     1       3.467   6.081  18.781  0.00  0.00    +0.000 A 
ATOM     24  C   UNL     1       3.637   6.973  17.715  0.00  0.00    +0.000 A 
ATOM     25  C   UNL     1       4.908   7.211  17.182  0.00  0.00    +0.000 A 
BRANCH  23  26
ATOM     26  C   UNL     1       2.095   5.842  19.370  0.00  0.00    +0.000 C 
BRANCH  26  27
ATOM     27  N   UNL     1       1.781   4.430  19.513  0.00  0.00    +0.000 N 
ATOM     28  C   UNL     1       1.574   3.797  20.791  0.00  0.00    +0.000 C 
ATOM     29  C   UNL     1       1.477   2.324  20.441  0.00  0.00    +0.000 C 
ATOM     30  C   UNL     1       0.875   2.328  19.042  0.00  0.00    +0.000 C 
ATOM     31  C   UNL     1       1.393   3.620  18.458  0.00  0.00    +0.000 C 
ATOM     32  O   UNL     1       1.406   3.903  17.271  0.00  0.00    +0.000 OA
ENDBRANCH  26  27
ENDBRANCH  23  26
ENDBRANCH  19  20
ENDBRANCH   3  19
TORSDOF 6
ENDMDL
MODEL 3
REMARK VINA RESULT:      -8.2      0.835      1.645
REMARK  Name = 
REMARK  6 active torsions:
REMARK  status: ('A' for Active; 'I' for Inactive)
REMARK    1  A    between atoms: C_2  and  C_18
REMARK    2  A    between atoms: N_3  and  C_4
REMARK    3  A    between atoms: C_4  and  C_5
REMARK    4  A    between atoms: C_8  and  C_9
REMARK    5  A    between atoms: C_9  and  N_10
REMARK    6  A    between atoms: C_21  and  N_22
REMARK                            x       y       z     vdW  Elec       q    Type
REMARK                         _______ _______ _______ _____ _____    ______ ____
ROOT
ATOM      1  O   UNL     1       8.370   7.177  18.976  0.00  0.00    +0.000 OA
ATOM      2  C   UNL     1       8.151   8.044  18.138  0.00  0.00    +0.000 C 
ATOM      3  N   UNL     1       7.571   7.797  16.917  0.00  0.00    +0.000 N 
ATOM      4  H   UNL     1       7.532   8.530  16.220  0.00  0.00    +0.000 HD
ENDROOT
BRANCH   2   5
ATOM      5  C   UNL     1       8.578   9.442  18.394  0.00  0.00    +0.000 A 
ATOM      6  C   UNL     1       8.237  10.411  17.446  0.00  0.00    +0.000 A 
ATOM      7  C   UNL     1       8.557  11.749  17.672  0.00  0.00    +0.000 A 
ATOM      8  C   UNL     1       9.211  12.141  18.848  0.00  0.00    +0.000 A 
ATOM      9  C   UNL     1       9.627  11.153  19.750  0.00  0.00    +0.000 A 
ATOM     10  C   UNL     1       9.296   9.810  19.537  0.00  0.00    +0.000 A 
BRANCH   8  11
ATOM     11  N   UNL     1       9.514  13.489  19.110  0.00  0.00    +0.000 N 
ATOM     12  C   UNL     1       8.622  14.555  18.952  0.00  0.00    +0.000 A 
ATOM     13  N   UNL     1       7.298  14.332  19.057  0.00  0.00    +0.000 NA
ATOM     14  C   UNL     1       6.475  15.379  18.910  0.00  0.00    +0.000 A 
ATOM     15  C   UNL     1       6.919  16.654  18.675  0.00  0.00    +0.000 A 
ATOM     16  C   UNL     1       8.282  16.790  18.585  0.00  0.00    +0.000 A 
ATOM     17  N   UNL     1       9.150  15.766  18.712  0.00  0.00    +0.000 NA
ATOM     18  H   UNL     1      10.416  13.788  18.760  0.00  0.00    +0.000 HD
ENDBRANCH   8  11
ENDBRANCH   2   5
BRANCH   3  19
ATOM     19  C   UNL     1       7.225   6.460  16.498  0.00  0.00    +0.000 C 
BRANCH  19  20
ATOM     20  C   UNL     1       5.825   6.101  16.923  0.00  0.00    +0.000 A 
ATOM     21  C   UNL     1       5.401   4.768  16.949  0.00  0.00    +0.000 A 
ATOM     22  C   UNL     1       4.105   4.444  17.361  0.00  0.00    +0.000 A 
ATOM     23  C   UNL     1       3.207   5.447  17.754  0.00  0.00    +0.000 A 
ATOM     24  C   UNL     1       3.629   6.782  17.716  0.00  0.00    +0.000 A 
ATOM     25  C   UNL     1       4.921   7.108  17.291  0.00  0.00    +0.000 A 
BRANCH  23  26
ATOM     26  C   UNL     1       1.817   5.095  18.235  0.00  0.00    +0.000 C 
BRANCH  26  27
ATOM     27  N   UNL     1       1.828   4.317  19.463  0.00  0.00    +0.000 N 
ATOM     28  C   UNL     1       2.256   4.855  20.730  0.00  0.00    +0.000 C 
ATOM     29  C   UNL     1       2.275   3.639  21.637  0.00  0.00    +0.000 C 
ATOM     30  C   UNL     1       1.174   2.753  21.071  0.00  0.00    +0.000 C 
ATOM     31  C   UNL     1       1.192   3.093  19.600  0.00  0.00    +0.000 C 
ATOM     32  O   UNL     1       0.684   2.425  18.715  0.00  0.00    +0.000 OA
ENDBRANCH  26  27
ENDBRANCH  23  26
ENDBRANCH  19  20
ENDBRANCH   3  19
TORSDOF 6
ENDMDL
MODEL 4
REMARK VINA RESULT:      -8.0      1.539      2.285
REMARK  Name = 
REMARK  6 active torsions:
REMARK  status: ('A' for Active; 'I' for Inactive)
REMARK    1  A    between atoms: C_2  and  C_18
REMARK    2  A    between atoms: N_3  and  C_4
REMARK    3  A    between atoms: C_4  and  C_5
REMARK    4  A    between atoms: C_8  and  C_9
REMARK    5  A    between atoms: C_9  and  N_10
REMARK    6  A    between atoms: C_21  and  N_22
REMARK                            x       y       z     vdW  Elec       q    Type
REMARK                         _______ _______ _______ _____ _____    ______ ____
ROOT
ATOM      1  O   UNL     1       8.521   7.422  18.983  0.00  0.00    +0.000 OA
ATOM      2  C   UNL     1       8.191   8.201  18.097  0.00  0.00    +0.000 C 
ATOM      3  N   UNL     1       7.618   7.810  16.911  0.00  0.00    +0.000 N 
ATOM      4  H   UNL     1       7.484   8.485  16.169  0.00  0.00    +0.000 HD
ENDROOT
BRANCH   2   5
ATOM      5  C   UNL     1       8.467   9.651  18.250  0.00  0.00    +0.000 A 
ATOM      6  C   UNL     1       7.727  10.540  17.464  0.00  0.00    +0.000 A 
ATOM      7  C   UNL     1       7.902  11.915  17.617  0.00  0.00    +0.000 A 
ATOM      8  C   UNL     1       8.804  12.423  18.561  0.00  0.00    +0.000 A 
ATOM      9  C   UNL     1       9.603  11.524  19.281  0.00  0.00    +0.000 A 
ATOM     10  C   UNL     1       9.424  10.143  19.142  0.00  0.00    +0.000 A 
BRANCH   8  11
ATOM     11  N   UNL     1       8.971  13.804  18.754  0.00  0.00    +0.000 N 
ATOM     12  C   UNL     1      10.123  14.526  18.421  0.00  0.00    +0.000 A 
ATOM     13  N   UNL     1      10.920  14.080  17.432  0.00  0.00    +0.000 NA
ATOM     14  C   UNL     1      12.010  14.802  17.134  0.00  0.00    +0.000 A 
ATOM     15  C   UNL     1      12.333  15.970  17.776  0.00  0.00    +0.000 A 
ATOM     16  C   UNL     1      11.464  16.350  18.769  0.00  0.00    +0.000 A 
ATOM     17  N   UNL     1      10.363  15.651  19.113  0.00  0.00    +0.000 NA
ATOM     18  H   UNL     1       8.646  14.141  19.652  0.00  0.00    +0.000 HD
ENDBRANCH   8  11
ENDBRANCH   2   5
BRANCH   3  19
ATOM     19  C   UNL     1       7.413   6.417  16.590  0.00  0.00    +0.000 C 
BRANCH  19  20
ATOM     20  C   UNL     1       6.018   5.975  16.947  0.00  0.00    +0.000 A 
ATOM     21  C   UNL     1       5.086   6.881  17.464  0.00  0.00    +0.000 A 
ATOM     22  C   UNL     1       3.789   6.464  17.777  0.00  0.00    +0.000 A 
ATOM     23  C   UNL     1       3.399   5.131  17.580  0.00  0.00    +0.000 A 
ATOM     24  C   UNL     1       4.336   4.223  17.074  0.00  0.00    +0.000 A 
ATOM     25  C   UNL     1       5.638   4.636  16.773  0.00  0.00    +0.000 A 
BRANCH  23  26
ATOM     26  C   UNL     1       1.985   4.688  17.883  0.00  0.00    +0.000 C 
BRANCH  26  27
ATOM     27  N   UNL     1       1.864   4.038  19.178  0.00  0.00    +0.000 N 
ATOM     28  C   UNL     1       1.553   4.754  20.389  0.00  0.00    +0.000 C 
ATOM     29  C   UNL     1       1.730   3.706  21.471  0.00  0.00    +0.000 C 
ATOM     30  C   UNL     1       1.362   2.404  20.771  0.00  0.00    +0.000 C 
ATOM     31  C   UNL     1       1.770   2.665  19.341  0.00  0.00    +0.000 C 
ATOM     32  O   UNL     1       1.929   1.811  18.485  0.00  0.00    +0.000 OA
ENDBRANCH  26  27
ENDBRANCH  23  26
ENDBRANCH  19  20
ENDBRANCH   3  19
TORSDOF 6
ENDMDL
MODEL 5
REMARK VINA RESULT:      -7.9      3.282      4.999
REMARK  Name = 
REMARK  6 active torsions:
REMARK  status: ('A' for Active; 'I' for Inactive)
REMARK    1  A    between atoms: C_2  and  C_18
REMARK    2  A    between atoms: N_3  and  C_4
REMARK    3  A    between atoms: C_4  and  C_5
REMARK    4  A    between atoms: C_8  and  C_9
REMARK    5  A    between atoms: C_9  and  N_10
REMARK    6  A    between atoms: C_21  and  N_22
REMARK                            x       y       z     vdW  Elec       q    Type
REMARK                         _______ _______ _______ _____ _____    ______ ____
ROOT
ATOM      1  O   UNL     1       0.958  12.850  20.593  0.00  0.00    +0.000 OA
ATOM      2  C   UNL     1       1.558  12.830  19.525  0.00  0.00    +0.000 C 
ATOM      3  N   UNL     1       1.341  11.893  18.544  0.00  0.00    +0.000 N 
ATOM      4  H   UNL     1       1.954  11.853  17.740  0.00  0.00    +0.000 HD
ENDROOT
BRANCH   2   5
ATOM      5  C   UNL     1       2.632  13.820  19.265  0.00  0.00    +0.000 A 
ATOM      6  C   UNL     1       3.424  14.219  20.345  0.00  0.00    +0.000 A 
ATOM      7  C   UNL     1       4.488  15.097  20.142  0.00  0.00    +0.000 A 
ATOM      8  C   UNL     1       4.785  15.579  18.860  0.00  0.00    +0.000 A 
ATOM      9  C   UNL     1       3.933  15.244  17.800  0.00  0.00    +0.000 A 
ATOM     10  C   UNL     1       2.871  14.353  17.994  0.00  0.00    +0.000 A 
BRANCH   8  11
ATOM     11  N   UNL     1       5.872  16.439  18.628  0.00  0.00    +0.000 N 
ATOM     12  C   UNL     1       7.208  16.032  18.534  0.00  0.00    +0.000 A 
ATOM     13  N   UNL     1       7.492  14.780  18.130  0.00  0.00    +0.000 NA
ATOM     14  C   UNL     1       8.783  14.429  18.042  0.00  0.00    +0.000 A 
ATOM     15  C   UNL     1       9.813  15.286  18.328  0.00  0.00    +0.000 A 
ATOM     16  C   UNL     1       9.432  16.543  18.731  0.00  0.00    +0.000 A 
ATOM     17  N   UNL     1       8.148  16.938  18.847  0.00  0.00    +0.000 NA
ATOM     18  H   UNL     1       5.849  17.295  19.169  0.00  0.00    +0.000 HD
ENDBRANCH   8  11
ENDBRANCH   2   5
BRANCH   3  19
ATOM     19  C   UNL     1       0.412  10.803  18.728  0.00  0.00    +0.000 C 
BRANCH  19  20
ATOM     20  C   UNL     1       1.134   9.490  18.881  0.00  0.00    +0.000 A 
ATOM     21  C   UNL     1       1.786   8.897  17.795  0.00  0.00    +0.000 A 
ATOM     22  C   UNL     1       2.467   7.687  17.951  0.00  0.00    +0.000 A 
ATOM     23  C   UNL     1       2.509   7.045  19.198  0.00  0.00    +0.000 A 
ATOM     24  C   UNL     1       1.847   7.634  20.282  0.00  0.00    +0.000 A 
ATOM     25  C   UNL     1       1.153   8.838  20.122  0.00  0.00    +0.000 A 
BRANCH  23  26
ATOM     26  C   UNL     1       3.278   5.755  19.377  0.00  0.00    +0.000 C 
BRANCH  26  27
ATOM     27  N   UNL     1       2.425   4.639  19.750  0.00  0.00    +0.000 N 
ATOM     28  C   UNL     1       2.170   4.269  21.120  0.00  0.00    +0.000 C 
ATOM     29  C   UNL     1       1.409   2.963  20.994  0.00  0.00    +0.000 C 
ATOM     30  C   UNL     1       0.657   3.112  19.678  0.00  0.00    +0.000 C 
ATOM     31  C   UNL     1       1.574   3.995  18.866  0.00  0.00    +0.000 C 
ATOM     32  O   UNL     1       1.523   4.142  17.656  0.00  0.00    +0.000 OA
ENDBRANCH  26  27
ENDBRANCH  23  26
ENDBRANCH  19  20
ENDBRANCH   3  19
TORSDOF 6
ENDMDL
MODEL 6
REMARK VINA RESULT:      -7.9      4.721      6.647
REMARK  Name = 
REMARK  6 active torsions:
REMARK  status: ('A' for Active; 'I' for Inactive)
REMARK    1  A    between atoms: C_2  and  C_18
REMARK    2  A    between atoms: N_3  and  C_4
REMARK    3  A    between atoms: C_4  and  C_5
REMARK    4  A    between atoms: C_8  and  C_9
REMARK    5  A    between atoms: C_9  and  N_10
REMARK    6  A    between atoms: C_21  and  N_22
REMARK                            x       y       z     vdW  Elec       q    Type
REMARK                         _______ _______ _______ _____ _____    ______ ____
ROOT
ATOM      1  O   UNL     1      -0.387   9.981  19.556  0.00  0.00    +0.000 OA
ATOM      2  C   UNL     1       0.702  10.345  19.986  0.00  0.00    +0.000 C 
ATOM      3  N   UNL     1       1.539   9.544  20.724  0.00  0.00    +0.000 N 
ATOM      4  H   UNL     1       2.363   9.939  21.156  0.00  0.00    +0.000 HD
ENDROOT
BRANCH   2   5
ATOM      5  C   UNL     1       1.148  11.744  19.771  0.00  0.00    +0.000 A 
ATOM      6  C   UNL     1       1.688  12.070  18.523  0.00  0.00    +0.000 A 
ATOM      7  C   UNL     1       2.061  13.385  18.249  0.00  0.00    +0.000 A 
ATOM      8  C   UNL     1       1.892  14.394  19.206  0.00  0.00    +0.000 A 
ATOM      9  C   UNL     1       1.432  14.042  20.482  0.00  0.00    +0.000 A 
ATOM     10  C   UNL     1       1.043  12.726  20.761  0.00  0.00    +0.000 A 
BRANCH   8  11
ATOM     11  N   UNL     1       2.231  15.731  18.938  0.00  0.00    +0.000 N 
ATOM     12  C   UNL     1       1.391  16.660  18.315  0.00  0.00    +0.000 A 
ATOM     13  N   UNL     1       0.056  16.514  18.411  0.00  0.00    +0.000 NA
ATOM     14  C   UNL     1      -0.717  17.430  17.810  0.00  0.00    +0.000 A 
ATOM     15  C   UNL     1      -0.212  18.503  17.123  0.00  0.00    +0.000 A 
ATOM     16  C   UNL     1       1.159  18.574  17.079  0.00  0.00    +0.000 A 
ATOM     17  N   UNL     1       1.978  17.672  17.656  0.00  0.00    +0.000 NA
ATOM     18  H   UNL     1       3.162  15.856  18.560  0.00  0.00    +0.000 HD
ENDBRANCH   8  11
ENDBRANCH   2   5
BRANCH   3  19
ATOM     19  C   UNL     1       1.163   8.204  21.107  0.00  0.00    +0.000 C 
BRANCH  19  20
ATOM     20  C   UNL     1       1.784   7.181  20.191  0.00  0.00    +0.000 A 
ATOM     21  C   UNL     1       1.779   5.822  20.523  0.00  0.00    +0.000 A 
ATOM     22  C   UNL     1       2.344   4.879  19.659  0.00  0.00    +0.000 A 
ATOM     23  C   UNL     1       2.927   5.278  18.447  0.00  0.00    +0.000 A 
ATOM     24  C   UNL     1       2.942   6.640  18.122  0.00  0.00    +0.000 A 
ATOM     25  C   UNL     1       2.389   7.585  18.993  0.00  0.00    +0.000 A 
BRANCH  23  26
ATOM     26  C   UNL     1       3.505   4.255  17.494  0.00  0.00    +0.000 C 
BRANCH  26  27
ATOM     27  N   UNL     1       4.911   4.485  17.206  0.00  0.00    +0.000 N 
ATOM     28  C   UNL     1       5.372   5.099  15.986  0.00  0.00    +0.000 C 
ATOM     29  C   UNL     1       6.879   4.941  16.063  0.00  0.00    +0.000 C 
ATOM     30  C   UNL     1       7.167   4.983  17.558  0.00  0.00    +0.000 C 
ATOM     31  C   UNL     1       5.914   4.391  18.158  0.00  0.00    +0.000 C 
ATOM     32  O   UNL     1       5.810   3.963  19.295  0.00  0.00    +0.000 OA
ENDBRANCH  26  27
ENDBRANCH  23  26
ENDBRANCH  19  20
ENDBRANCH   3  19
TORSDOF 6
ENDMDL
MODEL 7
REMARK VINA RESULT:      -7.9      1.032      1.527
REMARK  Name = 
REMARK  6 active torsions:
REMARK  status: ('A' for Active; 'I' for Inactive)
REMARK    1  A    between atoms: C_2  and  C_18
REMARK    2  A    between atoms: N_3  and  C_4
REMARK    3  A    between atoms: C_4  and  C_5
REMARK    4  A    between atoms: C_8  and  C_9
REMARK    5  A    between atoms: C_9  and  N_10
REMARK    6  A    between atoms: C_21  and  N_22
REMARK                            x       y       z     vdW  Elec       q    Type
REMARK                         _______ _______ _______ _____ _____    ______ ____
ROOT
ATOM      1  O   UNL     1       8.689   7.688  19.100  0.00  0.00    +0.000 OA
ATOM      2  C   UNL     1       8.292   8.507  18.279  0.00  0.00    +0.000 C 
ATOM      3  N   UNL     1       7.453   8.197  17.237  0.00  0.00    +0.000 N 
ATOM      4  H   UNL     1       7.262   8.886  16.521  0.00  0.00    +0.000 HD
ENDROOT
BRANCH   2   5
ATOM      5  C   UNL     1       8.772   9.909  18.345  0.00  0.00    +0.000 A 
ATOM      6  C   UNL     1       8.180  10.840  17.487  0.00  0.00    +0.000 A 
ATOM      7  C   UNL     1       8.549  12.183  17.555  0.00  0.00    +0.000 A 
ATOM      8  C   UNL     1       9.503  12.619  18.484  0.00  0.00    +0.000 A 
ATOM      9  C   UNL     1      10.154  11.665  19.279  0.00  0.00    +0.000 A 
ATOM     10  C   UNL     1       9.779  10.318  19.225  0.00  0.00    +0.000 A 
BRANCH   8  11
ATOM     11  N   UNL     1       9.865  13.972  18.592  0.00  0.00    +0.000 N 
ATOM     12  C   UNL     1       8.978  15.018  18.867  0.00  0.00    +0.000 A 
ATOM     13  N   UNL     1       7.853  14.767  19.563  0.00  0.00    +0.000 NA
ATOM     14  C   UNL     1       7.032  15.796  19.817  0.00  0.00    +0.000 A 
ATOM     15  C   UNL     1       7.294  17.080  19.417  0.00  0.00    +0.000 A 
ATOM     16  C   UNL     1       8.464  17.245  18.716  0.00  0.00    +0.000 A 
ATOM     17  N   UNL     1       9.315  16.240  18.425  0.00  0.00    +0.000 NA
ATOM     18  H   UNL     1      10.502  14.291  17.872  0.00  0.00    +0.000 HD
ENDBRANCH   8  11
ENDBRANCH   2   5
BRANCH   3  19
ATOM     19  C   UNL     1       7.016   6.843  16.991  0.00  0.00    +0.000 C 
BRANCH  19  20
ATOM     20  C   UNL     1       5.735   6.542  17.725  0.00  0.00    +0.000 A 
ATOM     21  C   UNL     1       4.530   7.141  17.344  0.00  0.00    +0.000 A 
ATOM     22  C   UNL     1       3.344   6.842  18.022  0.00  0.00    +0.000 A 
ATOM     23  C   UNL     1       3.341   5.940  19.096  0.00  0.00    +0.000 A 
ATOM     24  C   UNL     1       4.551   5.350  19.484  0.00  0.00    +0.000 A 
ATOM     25  C   UNL     1       5.740   5.659  18.815  0.00  0.00    +0.000 A 
BRANCH  23  26
ATOM     26  C   UNL     1       2.053   5.587  19.805  0.00  0.00    +0.000 C 
BRANCH  26  27
ATOM     27  N   UNL     1       1.661   4.202  19.606  0.00  0.00    +0.000 N 
ATOM     28  C   UNL     1       1.375   3.646  18.307  0.00  0.00    +0.000 C 
ATOM     29  C   UNL     1       0.834   2.266  18.628  0.00  0.00    +0.000 C 
ATOM     30  C   UNL     1       1.560   1.888  19.912  0.00  0.00    +0.000 C 
ATOM     31  C   UNL     1       1.779   3.224  20.580  0.00  0.00    +0.000 C 
ATOM     32  O   UNL     1       2.062   3.388  21.755  0.00  0.00    +0.000 OA
ENDBRANCH  26  27
ENDBRANCH  23  26
ENDBRANCH  19  20
ENDBRANCH   3  19
TORSDOF 6
ENDMDL
MODEL 8
REMARK VINA RESULT:      -7.8      7.456      9.644
REMARK  Name = 
REMARK  6 active torsions:
REMARK  status: ('A' for Active; 'I' for Inactive)
REMARK    1  A    between atoms: C_2  and  C_18
REMARK    2  A    between atoms: N_3  and  C_4
REMARK    3  A    between atoms: C_4  and  C_5
REMARK    4  A    between atoms: C_8  and  C_9
REMARK    5  A    between atoms: C_9  and  N_10
REMARK    6  A    between atoms: C_21  and  N_22
REMARK                            x       y       z     vdW  Elec       q    Type
REMARK                         _______ _______ _______ _____ _____    ______ ____
ROOT
ATOM      1  O   UNL     1      -1.310  10.187  17.967  0.00  0.00    +0.000 OA
ATOM      2  C   UNL     1      -0.673  10.807  18.810  0.00  0.00    +0.000 C 
ATOM      3  N   UNL     1       0.698  10.879  18.831  0.00  0.00    +0.000 N 
ATOM      4  H   UNL     1       1.169  11.300  19.622  0.00  0.00    +0.000 HD
ENDROOT
BRANCH   2   5
ATOM      5  C   UNL     1      -1.387  11.480  19.925  0.00  0.00    +0.000 A 
ATOM      6  C   UNL     1      -2.454  12.321  19.599  0.00  0.00    +0.000 A 
ATOM      7  C   UNL     1      -3.198  12.924  20.612  0.00  0.00    +0.000 A 
ATOM      8  C   UNL     1      -2.898  12.690  21.960  0.00  0.00    +0.000 A 
ATOM      9  C   UNL     1      -1.772  11.916  22.275  0.00  0.00    +0.000 A 
ATOM     10  C   UNL     1      -1.029  11.297  21.264  0.00  0.00    +0.000 A 
BRANCH   8  11
ATOM     11  N   UNL     1      -3.655  13.262  22.996  0.00  0.00    +0.000 N 
ATOM     12  C   UNL     1      -5.053  13.296  23.041  0.00  0.00    +0.000 A 
ATOM     13  N   UNL     1      -5.759  12.346  22.399  0.00  0.00    +0.000 NA
ATOM     14  C   UNL     1      -7.096  12.405  22.472  0.00  0.00    +0.000 A 
ATOM     15  C   UNL     1      -7.766  13.371  23.178  0.00  0.00    +0.000 A 
ATOM     16  C   UNL     1      -6.967  14.297  23.802  0.00  0.00    +0.000 A 
ATOM     17  N   UNL     1      -5.620  14.287  23.747  0.00  0.00    +0.000 NA
ATOM     18  H   UNL     1      -3.316  14.163  23.312  0.00  0.00    +0.000 HD
ENDBRANCH   8  11
ENDBRANCH   2   5
BRANCH   3  19
ATOM     19  C   UNL     1       1.511  10.165  17.875  0.00  0.00    +0.000 C 
BRANCH  19  20
ATOM     20  C   UNL     1       1.981   8.848  18.436  0.00  0.00    +0.000 A 
ATOM     21  C   UNL     1       1.624   8.448  19.728  0.00  0.00    +0.000 A 
ATOM     22  C   UNL     1       2.052   7.217  20.233  0.00  0.00    +0.000 A 
ATOM     23  C   UNL     1       2.849   6.362  19.456  0.00  0.00    +0.000 A 
ATOM     24  C   UNL     1       3.216   6.770  18.168  0.00  0.00    +0.000 A 
ATOM     25  C   UNL     1       2.799   8.008  17.667  0.00  0.00    +0.000 A 
BRANCH  23  26
ATOM     26  C   UNL     1       3.282   5.014  19.988  0.00  0.00    +0.000 C 
BRANCH  26  27
ATOM     27  N   UNL     1       2.689   3.905  19.259  0.00  0.00    +0.000 N 
ATOM     28  C   UNL     1       3.450   3.036  18.397  0.00  0.00    +0.000 C 
ATOM     29  C   UNL     1       2.385   2.187  17.728  0.00  0.00    +0.000 C 
ATOM     30  C   UNL     1       1.286   2.100  18.778  0.00  0.00    +0.000 C 
ATOM     31  C   UNL     1       1.420   3.411  19.515  0.00  0.00    +0.000 C 
ATOM     32  O   UNL     1       0.573   3.902  20.242  0.00  0.00    +0.000 OA
ENDBRANCH  26  27
ENDBRANCH  23  26
ENDBRANCH  19  20
ENDBRANCH   3  19
TORSDOF 6
ENDMDL
MODEL 9
REMARK VINA RESULT:      -7.8      3.393      5.132
REMARK  Name = 
REMARK  6 active torsions:
REMARK  status: ('A' for Active; 'I' for Inactive)
REMARK    1  A    between atoms: C_2  and  C_18
REMARK    2  A    between atoms: N_3  and  C_4
REMARK    3  A    between atoms: C_4  and  C_5
REMARK    4  A    between atoms: C_8  and  C_9
REMARK    5  A    between atoms: C_9  and  N_10
REMARK    6  A    between atoms: C_21  and  N_22
REMARK                            x       y       z     vdW  Elec       q    Type
REMARK                         _______ _______ _______ _____ _____    ______ ____
ROOT
ATOM      1  O   UNL     1       1.442  12.010  21.297  0.00  0.00    +0.000 OA
ATOM      2  C   UNL     1       1.557  12.326  20.118  0.00  0.00    +0.000 C 
ATOM      3  N   UNL     1       1.021  11.606  19.078  0.00  0.00    +0.000 N 
ATOM      4  H   UNL     1       1.256  11.847  18.124  0.00  0.00    +0.000 HD
ENDROOT
BRANCH   2   5
ATOM      5  C   UNL     1       2.366  13.514  19.750  0.00  0.00    +0.000 A 
ATOM      6  C   UNL     1       3.051  14.176  20.773  0.00  0.00    +0.000 A 
ATOM      7  C   UNL     1       3.878  15.257  20.470  0.00  0.00    +0.000 A 
ATOM      8  C   UNL     1       4.043  15.686  19.146  0.00  0.00    +0.000 A 
ATOM      9  C   UNL     1       3.285  15.072  18.140  0.00  0.00    +0.000 A 
ATOM     10  C   UNL     1       2.464  13.978  18.434  0.00  0.00    +0.000 A 
BRANCH   8  11
ATOM     11  N   UNL     1       4.897  16.752  18.816  0.00  0.00    +0.000 N 
ATOM     12  C   UNL     1       6.275  16.637  18.602  0.00  0.00    +0.000 A 
ATOM     13  N   UNL     1       6.783  15.466  18.175  0.00  0.00    +0.000 NA
ATOM     14  C   UNL     1       8.107  15.396  17.972  0.00  0.00    +0.000 A 
ATOM     15  C   UNL     1       8.951  16.459  18.163  0.00  0.00    +0.000 A 
ATOM     16  C   UNL     1       8.347  17.613  18.597  0.00  0.00    +0.000 A 
ATOM     17  N   UNL     1       7.023  17.729  18.828  0.00  0.00    +0.000 NA
ATOM     18  H   UNL     1       4.738  17.594  19.355  0.00  0.00    +0.000 HD
ENDBRANCH   8  11
ENDBRANCH   2   5
BRANCH   3  19
ATOM     19  C   UNL     1       0.319  10.364  19.298  0.00  0.00    +0.000 C 
BRANCH  19  20
ATOM     20  C   UNL     1       1.228   9.180  19.093  0.00  0.00    +0.000 A 
ATOM     21  C   UNL     1       1.905   8.994  17.884  0.00  0.00    +0.000 A 
ATOM     22  C   UNL     1       2.759   7.901  17.710  0.00  0.00    +0.000 A 
ATOM     23  C   UNL     1       2.951   6.971  18.743  0.00  0.00    +0.000 A 
ATOM     24  C   UNL     1       2.263   7.152  19.949  0.00  0.00    +0.000 A 
ATOM     25  C   UNL     1       1.397   8.238  20.119  0.00  0.00    +0.000 A 
BRANCH  23  26
ATOM     26  C   UNL     1       3.903   5.809  18.570  0.00  0.00    +0.000 C 
BRANCH  26  27
ATOM     27  N   UNL     1       3.227   4.522  18.571  0.00  0.00    +0.000 N 
ATOM     28  C   UNL     1       1.973   4.294  17.900  0.00  0.00    +0.000 C 
ATOM     29  C   UNL     1       1.586   2.896  18.345  0.00  0.00    +0.000 C 
ATOM     30  C   UNL     1       2.927   2.205  18.557  0.00  0.00    +0.000 C 
ATOM     31  C   UNL     1       3.828   3.341  18.977  0.00  0.00    +0.000 C 
ATOM     32  O   UNL     1       4.911   3.218  19.525  0.00  0.00    +0.000 OA
ENDBRANCH  26  27
ENDBRANCH  23  26
ENDBRANCH  19  20
ENDBRANCH   3  19
TORSDOF 6
ENDMDL
