MODEL 1
REMARK VINA RESULT:      -8.4      0.000      0.000
REMARK  Name = 
REMARK  4 active torsions:
REMARK  status: ('A' for Active; 'I' for Inactive)
REMARK    1  A    between atoms: C_1  and  C_2
REMARK    2  A    between atoms: C_4  and  C_5
REMARK    3  A    between atoms: C_5  and  N_6
REMARK    4  A    between atoms: C_7  and  C_9
REMARK                            x       y       z     vdW  Elec       q    Type
REMARK                         _______ _______ _______ _____ _____    ______ ____
ROOT
ATOM      1  N   UNL     1       5.275   5.391  17.719  0.00  0.00    +0.000 N 
ATOM      2  C   UNL     1       4.122   6.074  18.016  0.00  0.00    +0.000 C 
ATOM      3  O   UNL     1       3.822   7.181  17.591  0.00  0.00    +0.000 OA
ATOM      4  H   UNL     1       5.386   4.464  18.143  0.00  0.00    +0.000 HD
ENDROOT
BRANCH   2   5
ATOM      5  C   UNL     1       3.129   5.436  18.904  0.00  0.00    +0.000 A 
ATOM      6  C   UNL     1       2.356   6.254  19.751  0.00  0.00    +0.000 A 
ATOM      7  C   UNL     1       1.367   5.707  20.557  0.00  0.00    +0.000 A 
ATOM      8  F   UNL     1       0.638   6.517  21.336  0.00  0.00    +0.000 F 
ATOM      9  C   UNL     1       1.097   4.339  20.566  0.00  0.00    +0.000 A 
ATOM     10  C   UNL     1       1.881   3.543  19.728  0.00  0.00    +0.000 A 
ATOM     11  N   UNL     1       1.887   2.196  19.478  0.00  0.00    +0.000 N 
ATOM     12  C   UNL     1       2.864   1.941  18.558  0.00  0.00    +0.000 A 
ATOM     13  N   UNL     1       3.486   3.037  18.194  0.00  0.00    +0.000 NA
ATOM     14  C   UNL     1       2.888   4.054  18.907  0.00  0.00    +0.000 A 
ATOM     15  H   UNL     1       1.268   1.513  19.890  0.00  0.00    +0.000 HD
ENDBRANCH   2   5
BRANCH   1  16
ATOM     16  C   UNL     1       6.360   5.771  16.772  0.00  0.00    +0.000 C 
ATOM     17  C   UNL     1       7.253   4.561  16.405  0.00  0.00    +0.000 C 
ATOM     18  C   UNL     1       6.631   3.569  15.430  0.00  0.00    +0.000 C 
ATOM     19  C   UNL     1       5.987   4.222  14.209  0.00  0.00    +0.000 C 
ATOM     20  C   UNL     1       5.206   5.514  14.448  0.00  0.00    +0.000 C 
ATOM     21  C   UNL     1       5.821   6.445  15.485  0.00  0.00    +0.000 C 
BRANCH  16  25
ATOM     22  C   UNL     1       8.740   9.959  18.177  0.00  0.00    +0.000 C 
ATOM     23  C   UNL     1       8.187   8.605  18.026  0.00  0.00    +0.000 A 
ATOM     24  N   UNL     1       7.349   8.124  17.131  0.00  0.00    +0.000 NA
ATOM     25  C   UNL     1       7.235   6.803  17.516  0.00  0.00    +0.000 A 
ATOM     26  N   UNL     1       7.963   6.485  18.602  0.00  0.00    +0.000 NA
ATOM     27  O   UNL     1       8.595   7.679  18.936  0.00  0.00    +0.000 OA
ENDBRANCH  16  25
ENDBRANCH   1  16
TORSDOF 3
ENDMDL
MODEL 2
REMARK VINA RESULT:      -8.1      2.007      3.740
REMARK  Name = 
REMARK  4 active torsions:
REMARK  status: ('A' for Active; 'I' for Inactive)
REMARK    1  A    between atoms: C_1  and  C_2
REMARK    2  A    between atoms: C_4  and  C_5
REMARK    3  A    between atoms: C_5  and  N_6
REMARK    4  A    between atoms: C_7  and  C_9
REMARK                            x       y       z     vdW  Elec       q    Type
REMARK                         _______ _______ _______ _____ _____    ______ ____
ROOT
ATOM      1  N   UNL     1       5.149   5.410  17.692  0.00  0.00    +0.000 N 
ATOM      2  C   UNL     1       4.804   4.545  18.702  0.00  0.00    +0.000 C 
ATOM      3  O   UNL     1       5.524   3.672  19.166  0.00  0.00    +0.000 OA
ATOM      4  H   UNL     1       4.443   6.098  17.412  0.00  0.00    +0.000 HD
ENDROOT
BRANCH   2   5
ATOM      5  C   UNL     1       3.465   4.666  19.312  0.00  0.00    +0.000 A 
ATOM      6  C   UNL     1       3.122   5.871  19.956  0.00  0.00    +0.000 A 
ATOM      7  C   UNL     1       1.855   6.055  20.489  0.00  0.00    +0.000 A 
ATOM      8  F   UNL     1       1.557   7.221  21.078  0.00  0.00    +0.000 F 
ATOM      9  C   UNL     1       0.873   5.068  20.414  0.00  0.00    +0.000 A 
ATOM     10  C   UNL     1       1.235   3.877  19.781  0.00  0.00    +0.000 A 
ATOM     11  N   UNL     1       0.540   2.724  19.521  0.00  0.00    +0.000 N 
ATOM     12  C   UNL     1       1.375   1.866  18.865  0.00  0.00    +0.000 A 
ATOM     13  N   UNL     1       2.562   2.392  18.678  0.00  0.00    +0.000 NA
ATOM     14  C   UNL     1       2.500   3.650  19.238  0.00  0.00    +0.000 A 
ATOM     15  H   UNL     1      -0.424   2.545  19.761  0.00  0.00    +0.000 HD
ENDBRANCH   2   5
BRANCH   1  16
ATOM     16  C   UNL     1       6.462   5.556  17.005  0.00  0.00    +0.000 C 
ATOM     17  C   UNL     1       6.756   7.030  16.634  0.00  0.00    +0.000 C 
ATOM     18  C   UNL     1       7.167   7.922  17.798  0.00  0.00    +0.000 C 
ATOM     19  C   UNL     1       8.243   7.312  18.695  0.00  0.00    +0.000 C 
ATOM     20  C   UNL     1       8.124   5.819  18.998  0.00  0.00    +0.000 C 
ATOM     21  C   UNL     1       7.637   4.971  17.829  0.00  0.00    +0.000 C 
BRANCH  16  25
ATOM     22  C   UNL     1       6.849   3.991  12.254  0.00  0.00    +0.000 C 
ATOM     23  C   UNL     1       6.571   4.174  13.686  0.00  0.00    +0.000 A 
ATOM     24  N   UNL     1       6.930   5.141  14.505  0.00  0.00    +0.000 NA
ATOM     25  C   UNL     1       6.353   4.746  15.696  0.00  0.00    +0.000 A 
ATOM     26  N   UNL     1       5.677   3.585  15.617  0.00  0.00    +0.000 NA
ATOM     27  O   UNL     1       5.820   3.210  14.285  0.00  0.00    +0.000 OA
ENDBRANCH  16  25
ENDBRANCH   1  16
TORSDOF 3
ENDMDL
MODEL 3
REMARK VINA RESULT:      -8.1      1.873      2.414
REMARK  Name = 
REMARK  4 active torsions:
REMARK  status: ('A' for Active; 'I' for Inactive)
REMARK    1  A    between atoms: C_1  and  C_2
REMARK    2  A    between atoms: C_4  and  C_5
REMARK    3  A    between atoms: C_5  and  N_6
REMARK    4  A    between atoms: C_7  and  C_9
REMARK                            x       y       z     vdW  Elec       q    Type
REMARK                         _______ _______ _______ _____ _____    ______ ____
ROOT
ATOM      1  N   UNL     1       5.079   5.379  17.632  0.00  0.00    +0.000 N 
ATOM      2  C   UNL     1       5.052   4.466  18.657  0.00  0.00    +0.000 C 
ATOM      3  O   UNL     1       5.956   3.692  18.942  0.00  0.00    +0.000 OA
ATOM      4  H   UNL     1       4.249   5.970  17.518  0.00  0.00    +0.000 HD
ENDROOT
BRANCH   2   5
ATOM      5  C   UNL     1       3.855   4.403  19.520  0.00  0.00    +0.000 A 
ATOM      6  C   UNL     1       3.539   3.183  20.149  0.00  0.00    +0.000 A 
ATOM      7  C   UNL     1       2.461   3.092  21.018  0.00  0.00    +0.000 A 
ATOM      8  F   UNL     1       2.200   1.920  21.613  0.00  0.00    +0.000 F 
ATOM      9  C   UNL     1       1.651   4.189  21.305  0.00  0.00    +0.000 A 
ATOM     10  C   UNL     1       1.974   5.387  20.664  0.00  0.00    +0.000 A 
ATOM     11  N   UNL     1       1.418   6.639  20.716  0.00  0.00    +0.000 N 
ATOM     12  C   UNL     1       2.135   7.454  19.887  0.00  0.00    +0.000 A 
ATOM     13  N   UNL     1       3.121   6.812  19.308  0.00  0.00    +0.000 NA
ATOM     14  C   UNL     1       3.045   5.519  19.779  0.00  0.00    +0.000 A 
ATOM     15  H   UNL     1       0.627   6.914  21.278  0.00  0.00    +0.000 HD
ENDBRANCH   2   5
BRANCH   1  16
ATOM     16  C   UNL     1       6.201   5.704  16.709  0.00  0.00    +0.000 C 
ATOM     17  C   UNL     1       7.047   4.452  16.367  0.00  0.00    +0.000 C 
ATOM     18  C   UNL     1       6.403   3.485  15.383  0.00  0.00    +0.000 C 
ATOM     19  C   UNL     1       5.818   4.160  14.144  0.00  0.00    +0.000 C 
ATOM     20  C   UNL     1       5.091   5.487  14.359  0.00  0.00    +0.000 C 
ATOM     21  C   UNL     1       5.724   6.395  15.406  0.00  0.00    +0.000 C 
BRANCH  16  25
ATOM     22  C   UNL     1       8.655   9.815  18.211  0.00  0.00    +0.000 C 
ATOM     23  C   UNL     1       8.086   8.472  18.022  0.00  0.00    +0.000 A 
ATOM     24  N   UNL     1       7.220   8.033  17.132  0.00  0.00    +0.000 NA
ATOM     25  C   UNL     1       7.105   6.699  17.468  0.00  0.00    +0.000 A 
ATOM     26  N   UNL     1       7.859   6.333  18.520  0.00  0.00    +0.000 NA
ATOM     27  O   UNL     1       8.510   7.508  18.884  0.00  0.00    +0.000 OA
ENDBRANCH  16  25
ENDBRANCH   1  16
TORSDOF 3
ENDMDL
MODEL 4
REMARK VINA RESULT:      -8.0      1.075      1.084
REMARK  Name = 
REMARK  4 active torsions:
REMARK  status: ('A' for Active; 'I' for Inactive)
REMARK    1  A    between atoms: C_1  and  C_2
REMARK    2  A    between atoms: C_4  and  C_5
REMARK    3  A    between atoms: C_5  and  N_6
REMARK    4  A    between atoms: C_7  and  C_9
REMARK                            x       y       z     vdW  Elec       q    Type
REMARK                         _______ _______ _______ _____ _____    ______ ____
ROOT
ATOM      1  N   UNL     1       4.945   5.531  17.443  0.00  0.00    +0.000 N 
ATOM      2  C   UNL     1       4.757   4.755  18.560  0.00  0.00    +0.000 C 
ATOM      3  O   UNL     1       5.583   3.994  19.043  0.00  0.00    +0.000 OA
ATOM      4  H   UNL     1       4.164   6.130  17.158  0.00  0.00    +0.000 HD
ENDROOT
BRANCH   2   5
ATOM      5  C   UNL     1       3.466   4.840  19.271  0.00  0.00    +0.000 A 
ATOM      6  C   UNL     1       3.115   6.053  19.894  0.00  0.00    +0.000 A 
ATOM      7  C   UNL     1       1.885   6.200  20.520  0.00  0.00    +0.000 A 
ATOM      8  F   UNL     1       1.578   7.375  21.087  0.00  0.00    +0.000 F 
ATOM      9  C   UNL     1       0.951   5.166  20.562  0.00  0.00    +0.000 A 
ATOM     10  C   UNL     1       1.321   3.967  19.948  0.00  0.00    +0.000 A 
ATOM     11  N   UNL     1       0.666   2.774  19.789  0.00  0.00    +0.000 N 
ATOM     12  C   UNL     1       1.489   1.929  19.100  0.00  0.00    +0.000 A 
ATOM     13  N   UNL     1       2.630   2.501  18.799  0.00  0.00    +0.000 NA
ATOM     14  C   UNL     1       2.549   3.777  19.313  0.00  0.00    +0.000 A 
ATOM     15  H   UNL     1      -0.265   2.560  20.113  0.00  0.00    +0.000 HD
ENDBRANCH   2   5
BRANCH   1  16
ATOM     16  C   UNL     1       6.182   5.702  16.631  0.00  0.00    +0.000 C 
ATOM     17  C   UNL     1       6.951   4.368  16.466  0.00  0.00    +0.000 C 
ATOM     18  C   UNL     1       6.336   3.383  15.481  0.00  0.00    +0.000 C 
ATOM     19  C   UNL     1       5.943   4.008  14.144  0.00  0.00    +0.000 C 
ATOM     20  C   UNL     1       5.310   5.399  14.191  0.00  0.00    +0.000 C 
ATOM     21  C   UNL     1       5.904   6.330  15.241  0.00  0.00    +0.000 C 
BRANCH  16  25
ATOM     22  C   UNL     1       8.633   9.773  18.241  0.00  0.00    +0.000 C 
ATOM     23  C   UNL     1       8.061   8.436  18.020  0.00  0.00    +0.000 A 
ATOM     24  N   UNL     1       7.204   8.019  17.112  0.00  0.00    +0.000 NA
ATOM     25  C   UNL     1       7.081   6.678  17.419  0.00  0.00    +0.000 A 
ATOM     26  N   UNL     1       7.822   6.289  18.473  0.00  0.00    +0.000 NA
ATOM     27  O   UNL     1       8.472   7.454  18.867  0.00  0.00    +0.000 OA
ENDBRANCH  16  25
ENDBRANCH   1  16
TORSDOF 3
ENDMDL
MODEL 5
REMARK VINA RESULT:      -7.9      3.138      6.393
REMARK  Name = 
REMARK  4 active torsions:
REMARK  status: ('A' for Active; 'I' for Inactive)
REMARK    1  A    between atoms: C_1  and  C_2
REMARK    2  A    between atoms: C_4  and  C_5
REMARK    3  A    between atoms: C_5  and  N_6
REMARK    4  A    between atoms: C_7  and  C_9
REMARK                            x       y       z     vdW  Elec       q    Type
REMARK                         _______ _______ _______ _____ _____    ______ ____
ROOT
ATOM      1  N   UNL     1       3.433   4.787  19.253  0.00  0.00    +0.000 N 
ATOM      2  C   UNL     1       3.518   4.496  17.914  0.00  0.00    +0.000 C 
ATOM      3  O   UNL     1       2.568   4.291  17.170  0.00  0.00    +0.000 OA
ATOM      4  H   UNL     1       4.316   4.945  19.749  0.00  0.00    +0.000 HD
ENDROOT
BRANCH   2   5
ATOM      5  C   UNL     1       4.852   4.439  17.284  0.00  0.00    +0.000 A 
ATOM      6  C   UNL     1       4.947   4.043  15.936  0.00  0.00    +0.000 A 
ATOM      7  C   UNL     1       6.171   4.035  15.283  0.00  0.00    +0.000 A 
ATOM      8  F   UNL     1       6.222   3.670  13.995  0.00  0.00    +0.000 F 
ATOM      9  C   UNL     1       7.350   4.413  15.923  0.00  0.00    +0.000 A 
ATOM     10  C   UNL     1       7.238   4.792  17.263  0.00  0.00    +0.000 A 
ATOM     11  N   UNL     1       8.162   5.224  18.178  0.00  0.00    +0.000 N 
ATOM     12  C   UNL     1       7.510   5.469  19.353  0.00  0.00    +0.000 A 
ATOM     13  N   UNL     1       6.224   5.229  19.254  0.00  0.00    +0.000 NA
ATOM     14  C   UNL     1       6.027   4.809  17.956  0.00  0.00    +0.000 A 
ATOM     15  H   UNL     1       9.149   5.352  18.011  0.00  0.00    +0.000 HD
ENDBRANCH   2   5
BRANCH   1  16
ATOM     16  C   UNL     1       2.213   5.008  20.079  0.00  0.00    +0.000 C 
ATOM     17  C   UNL     1       0.977   4.292  19.481  0.00  0.00    +0.000 C 
ATOM     18  C   UNL     1       0.943   2.783  19.679  0.00  0.00    +0.000 C 
ATOM     19  C   UNL     1       1.251   2.339  21.108  0.00  0.00    +0.000 C 
ATOM     20  C   UNL     1       2.361   3.091  21.841  0.00  0.00    +0.000 C 
ATOM     21  C   UNL     1       2.407   4.588  21.558  0.00  0.00    +0.000 C 
BRANCH  16  25
ATOM     22  C   UNL     1       0.751   9.672  21.213  0.00  0.00    +0.000 C 
ATOM     23  C   UNL     1       1.297   8.445  20.613  0.00  0.00    +0.000 A 
ATOM     24  N   UNL     1       1.314   7.210  21.071  0.00  0.00    +0.000 NA
ATOM     25  C   UNL     1       1.946   6.528  20.050  0.00  0.00    +0.000 A 
ATOM     26  N   UNL     1       2.309   7.307  19.015  0.00  0.00    +0.000 NA
ATOM     27  O   UNL     1       1.875   8.576  19.389  0.00  0.00    +0.000 OA
ENDBRANCH  16  25
ENDBRANCH   1  16
TORSDOF 3
ENDMDL
MODEL 6
REMARK VINA RESULT:      -7.8      3.292      5.296
REMARK  Name = 
REMARK  4 active torsions:
REMARK  status: ('A' for Active; 'I' for Inactive)
REMARK    1  A    between atoms: C_1  and  C_2
REMARK    2  A    between atoms: C_4  and  C_5
REMARK    3  A    between atoms: C_5  and  N_6
REMARK    4  A    between atoms: C_7  and  C_9
REMARK                            x       y       z     vdW  Elec       q    Type
REMARK                         _______ _______ _______ _____ _____    ______ ____
ROOT
ATOM      1  N   UNL     1       2.649   6.271  19.888  0.00  0.00    +0.000 N 
ATOM      2  C   UNL     1       2.156   7.359  19.212  0.00  0.00    +0.000 C 
ATOM      3  O   UNL     1       2.184   7.514  17.998  0.00  0.00    +0.000 OA
ATOM      4  H   UNL     1       2.546   6.274  20.908  0.00  0.00    +0.000 HD
ENDROOT
BRANCH   2   5
ATOM      5  C   UNL     1       1.512   8.441  19.983  0.00  0.00    +0.000 A 
ATOM      6  C   UNL     1       1.016   8.152  21.269  0.00  0.00    +0.000 A 
ATOM      7  C   UNL     1       0.461   9.150  22.057  0.00  0.00    +0.000 A 
ATOM      8  F   UNL     1       0.016   8.843  23.282  0.00  0.00    +0.000 F 
ATOM      9  C   UNL     1       0.369  10.470  21.618  0.00  0.00    +0.000 A 
ATOM     10  C   UNL     1       0.856  10.736  20.336  0.00  0.00    +0.000 A 
ATOM     11  N   UNL     1       0.938  11.890  19.602  0.00  0.00    +0.000 N 
ATOM     12  C   UNL     1       1.511  11.588  18.400  0.00  0.00    +0.000 A 
ATOM     13  N   UNL     1       1.812  10.314  18.312  0.00  0.00    +0.000 NA
ATOM     14  C   UNL     1       1.417   9.759  19.511  0.00  0.00    +0.000 A 
ATOM     15  H   UNL     1       0.638  12.806  19.902  0.00  0.00    +0.000 HD
ENDBRANCH   2   5
BRANCH   1  16
ATOM     16  C   UNL     1       3.232   5.019  19.331  0.00  0.00    +0.000 C 
ATOM     17  C   UNL     1       3.127   3.840  20.330  0.00  0.00    +0.000 C 
ATOM     18  C   UNL     1       1.738   3.233  20.471  0.00  0.00    +0.000 C 
ATOM     19  C   UNL     1       1.050   2.942  19.138  0.00  0.00    +0.000 C 
ATOM     20  C   UNL     1       1.223   3.981  18.031  0.00  0.00    +0.000 C 
ATOM     21  C   UNL     1       2.605   4.620  17.970  0.00  0.00    +0.000 C 
BRANCH  16  25
ATOM     22  C   UNL     1       7.583   6.732  17.512  0.00  0.00    +0.000 C 
ATOM     23  C   UNL     1       6.498   6.083  18.263  0.00  0.00    +0.000 A 
ATOM     24  N   UNL     1       5.193   6.144  18.093  0.00  0.00    +0.000 NA
ATOM     25  C   UNL     1       4.729   5.312  19.093  0.00  0.00    +0.000 A 
ATOM     26  N   UNL     1       5.701   4.770  19.849  0.00  0.00    +0.000 NA
ATOM     27  O   UNL     1       6.872   5.279  19.295  0.00  0.00    +0.000 OA
ENDBRANCH  16  25
ENDBRANCH   1  16
TORSDOF 3
ENDMDL
MODEL 7
REMARK VINA RESULT:      -7.7      3.378      5.354
REMARK  Name = 
REMARK  4 active torsions:
REMARK  status: ('A' for Active; 'I' for Inactive)
REMARK    1  A    between atoms: C_1  and  C_2
REMARK    2  A    between atoms: C_4  and  C_5
REMARK    3  A    between atoms: C_5  and  N_6
REMARK    4  A    between atoms: C_7  and  C_9
REMARK                            x       y       z     vdW  Elec       q    Type
REMARK                         _______ _______ _______ _____ _____    ______ ____
ROOT
ATOM      1  N   UNL     1       2.670   6.195  19.424  0.00  0.00    +0.000 N 
ATOM      2  C   UNL     1       2.709   7.238  18.531  0.00  0.00    +0.000 C 
ATOM      3  O   UNL     1       3.200   7.197  17.412  0.00  0.00    +0.000 OA
ATOM      4  H   UNL     1       2.216   6.374  20.325  0.00  0.00    +0.000 HD
ENDROOT
BRANCH   2   5
ATOM      5  C   UNL     1       2.096   8.525  18.918  0.00  0.00    +0.000 A 
ATOM      6  C   UNL     1       2.301   9.646  18.092  0.00  0.00    +0.000 A 
ATOM      7  C   UNL     1       1.694  10.860  18.380  0.00  0.00    +0.000 A 
ATOM      8  F   UNL     1       1.897  11.902  17.563  0.00  0.00    +0.000 F 
ATOM      9  C   UNL     1       0.863  11.025  19.488  0.00  0.00    +0.000 A 
ATOM     10  C   UNL     1       0.680   9.904  20.301  0.00  0.00    +0.000 A 
ATOM     11  N   UNL     1      -0.060   9.701  21.437  0.00  0.00    +0.000 N 
ATOM     12  C   UNL     1       0.113   8.404  21.827  0.00  0.00    +0.000 A 
ATOM     13  N   UNL     1       0.912   7.754  21.014  0.00  0.00    +0.000 NA
ATOM     14  C   UNL     1       1.277   8.668  20.049  0.00  0.00    +0.000 A 
ATOM     15  H   UNL     1      -0.641  10.386  21.896  0.00  0.00    +0.000 HD
ENDBRANCH   2   5
BRANCH   1  16
ATOM     16  C   UNL     1       3.114   4.787  19.224  0.00  0.00    +0.000 C 
ATOM     17  C   UNL     1       2.930   3.938  20.506  0.00  0.00    +0.000 C 
ATOM     18  C   UNL     1       1.495   3.534  20.815  0.00  0.00    +0.000 C 
ATOM     19  C   UNL     1       0.740   2.964  19.615  0.00  0.00    +0.000 C 
ATOM     20  C   UNL     1       0.974   3.643  18.266  0.00  0.00    +0.000 C 
ATOM     21  C   UNL     1       2.408   4.101  18.027  0.00  0.00    +0.000 C 
BRANCH  16  25
ATOM     22  C   UNL     1       7.588   4.505  16.972  0.00  0.00    +0.000 C 
ATOM     23  C   UNL     1       6.449   4.703  17.881  0.00  0.00    +0.000 A 
ATOM     24  N   UNL     1       5.163   4.502  17.687  0.00  0.00    +0.000 NA
ATOM     25  C   UNL     1       4.623   4.855  18.908  0.00  0.00    +0.000 A 
ATOM     26  N   UNL     1       5.534   5.262  19.811  0.00  0.00    +0.000 NA
ATOM     27  O   UNL     1       6.743   5.159  19.129  0.00  0.00    +0.000 OA
ENDBRANCH  16  25
ENDBRANCH   1  16
TORSDOF 3
ENDMDL
MODEL 8
REMARK VINA RESULT:      -7.6      2.663      4.426
REMARK  Name = 
REMARK  4 active torsions:
REMARK  status: ('A' for Active; 'I' for Inactive)
REMARK    1  A    between atoms: C_1  and  C_2
REMARK    2  A    between atoms: C_4  and  C_5
REMARK    3  A    between atoms: C_5  and  N_6
REMARK    4  A    between atoms: C_7  and  C_9
REMARK                            x       y       z     vdW  Elec       q    Type
REMARK                         _______ _______ _______ _____ _____    ______ ____
ROOT
ATOM      1  N   UNL     1       4.994   5.039  17.143  0.00  0.00    +0.000 N 
ATOM      2  C   UNL     1       4.456   3.819  17.471  0.00  0.00    +0.000 C 
ATOM      3  O   UNL     1       4.971   2.733  17.244  0.00  0.00    +0.000 OA
ATOM      4  H   UNL     1       4.451   5.869  17.404  0.00  0.00    +0.000 HD
ENDROOT
BRANCH   2   5
ATOM      5  C   UNL     1       3.159   3.782  18.174  0.00  0.00    +0.000 A 
ATOM      6  C   UNL     1       2.330   2.657  18.004  0.00  0.00    +0.000 A 
ATOM      7  C   UNL     1       1.131   2.548  18.694  0.00  0.00    +0.000 A 
ATOM      8  F   UNL     1       0.375   1.455  18.521  0.00  0.00    +0.000 F 
ATOM      9  C   UNL     1       0.696   3.535  19.577  0.00  0.00    +0.000 A 
ATOM     10  C   UNL     1       1.527   4.648  19.725  0.00  0.00    +0.000 A 
ATOM     11  N   UNL     1       1.426   5.777  20.496  0.00  0.00    +0.000 N 
ATOM     12  C   UNL     1       2.528   6.548  20.261  0.00  0.00    +0.000 A 
ATOM     13  N   UNL     1       3.337   5.989  19.393  0.00  0.00    +0.000 NA
ATOM     14  C   UNL     1       2.737   4.798  19.045  0.00  0.00    +0.000 A 
ATOM     15  H   UNL     1       0.676   5.993  21.135  0.00  0.00    +0.000 HD
ENDBRANCH   2   5
BRANCH   1  16
ATOM     16  C   UNL     1       6.323   5.335  16.540  0.00  0.00    +0.000 C 
ATOM     17  C   UNL     1       6.589   6.859  16.452  0.00  0.00    +0.000 C 
ATOM     18  C   UNL     1       6.940   7.532  17.772  0.00  0.00    +0.000 C 
ATOM     19  C   UNL     1       8.004   6.791  18.581  0.00  0.00    +0.000 C 
ATOM     20  C   UNL     1       7.915   5.265  18.604  0.00  0.00    +0.000 C 
ATOM     21  C   UNL     1       7.488   4.634  17.285  0.00  0.00    +0.000 C 
BRANCH  16  25
ATOM     22  C   UNL     1       4.809   3.434  12.150  0.00  0.00    +0.000 C 
ATOM     23  C   UNL     1       5.546   3.983  13.299  0.00  0.00    +0.000 A 
ATOM     24  N   UNL     1       5.107   4.398  14.469  0.00  0.00    +0.000 NA
ATOM     25  C   UNL     1       6.276   4.775  15.102  0.00  0.00    +0.000 A 
ATOM     26  N   UNL     1       7.381   4.607  14.355  0.00  0.00    +0.000 NA
ATOM     27  O   UNL     1       6.896   4.079  13.162  0.00  0.00    +0.000 OA
ENDBRANCH  16  25
ENDBRANCH   1  16
TORSDOF 3
ENDMDL
MODEL 9
REMARK VINA RESULT:      -7.6      2.860      4.732
REMARK  Name = 
REMARK  4 active torsions:
REMARK  status: ('A' for Active; 'I' for Inactive)
REMARK    1  A    between atoms: C_1  and  C_2
REMARK    2  A    between atoms: C_4  and  C_5
REMARK    3  A    between atoms: C_5  and  N_6
REMARK    4  A    between atoms: C_7  and  C_9
REMARK                            x       y       z     vdW  Elec       q    Type
REMARK                         _______ _______ _______ _____ _____    ______ ____
ROOT
ATOM      1  N   UNL     1       2.630   5.739  19.076  0.00  0.00    +0.000 N 
ATOM      2  C   UNL     1       2.225   6.236  20.290  0.00  0.00    +0.000 C 
ATOM      3  O   UNL     1       2.422   5.707  21.375  0.00  0.00    +0.000 OA
ATOM      4  H   UNL     1       2.402   6.299  18.248  0.00  0.00    +0.000 HD
ENDROOT
BRANCH   2   5
ATOM      5  C   UNL     1       1.507   7.526  20.324  0.00  0.00    +0.000 A 
ATOM      6  C   UNL     1       0.685   7.813  21.431  0.00  0.00    +0.000 A 
ATOM      7  C   UNL     1       0.041   9.037  21.538  0.00  0.00    +0.000 A 
ATOM      8  F   UNL     1      -0.719   9.283  22.614  0.00  0.00    +0.000 F 
ATOM      9  C   UNL     1       0.176  10.029  20.567  0.00  0.00    +0.000 A 
ATOM     10  C   UNL     1       0.987   9.722  19.472  0.00  0.00    +0.000 A 
ATOM     11  N   UNL     1       1.347  10.441  18.362  0.00  0.00    +0.000 N 
ATOM     12  C   UNL     1       2.172   9.662  17.603  0.00  0.00    +0.000 A 
ATOM     13  N   UNL     1       2.373   8.488  18.153  0.00  0.00    +0.000 NA
ATOM     14  C   UNL     1       1.647   8.501  19.324  0.00  0.00    +0.000 A 
ATOM     15  H   UNL     1       1.063  11.386  18.150  0.00  0.00    +0.000 HD
ENDBRANCH   2   5
BRANCH   1  16
ATOM     16  C   UNL     1       3.456   4.532  18.797  0.00  0.00    +0.000 C 
ATOM     17  C   UNL     1       3.325   3.474  19.921  0.00  0.00    +0.000 C 
ATOM     18  C   UNL     1       2.020   2.689  19.923  0.00  0.00    +0.000 C 
ATOM     19  C   UNL     1       1.621   2.147  18.552  0.00  0.00    +0.000 C 
ATOM     20  C   UNL     1       1.853   3.065  17.352  0.00  0.00    +0.000 C 
ATOM     21  C   UNL     1       3.133   3.890  17.423  0.00  0.00    +0.000 C 
BRANCH  16  25
ATOM     22  C   UNL     1       7.689   7.031  17.797  0.00  0.00    +0.000 C 
ATOM     23  C   UNL     1       6.640   6.123  18.283  0.00  0.00    +0.000 A 
ATOM     24  N   UNL     1       5.349   6.098  18.022  0.00  0.00    +0.000 NA
ATOM     25  C   UNL     1       4.922   5.013  18.762  0.00  0.00    +0.000 A 
ATOM     26  N   UNL     1       5.901   4.402  19.453  0.00  0.00    +0.000 NA
ATOM     27  O   UNL     1       7.039   5.137  19.132  0.00  0.00    +0.000 OA
ENDBRANCH  16  25
ENDBRANCH   1  16
TORSDOF 3
ENDMDL
