MODEL 1
REMARK VINA RESULT:      -8.6      0.000      0.000
REMARK  Name = 
REMARK  5 active torsions:
REMARK  status: ('A' for Active; 'I' for Inactive)
REMARK    1  A    between atoms: C_2  and  C_3
REMARK    2  A    between atoms: C_3  and  C_4
REMARK    3  A    between atoms: C_4  and  N_5
REMARK    4  A    between atoms: N_17  and  C_18
REMARK    5  A    between atoms: C_23  and  C_24
REMARK                            x       y       z     vdW  Elec       q    Type
REMARK                         _______ _______ _______ _____ _____    ______ ____
ROOT
ATOM      1  O   UNL     1      -0.500   7.831  21.277  0.00  0.00    +0.000 OA
ATOM      2  C   UNL     1       0.581   8.371  21.489  0.00  0.00    +0.000 C 
ATOM      3  N   UNL     1       1.809   7.957  20.990  0.00  0.00    +0.000 N 
ATOM      4  H   UNL     1       2.637   8.366  21.410  0.00  0.00    +0.000 HD
ENDROOT
BRANCH   3   5
ATOM      5  C   UNL     1       2.017   6.865  20.116  0.00  0.00    +0.000 A 
ATOM      6  C   UNL     1       2.524   7.010  18.828  0.00  0.00    +0.000 A 
ATOM      7  C   UNL     1       2.649   5.904  17.986  0.00  0.00    +0.000 A 
ATOM      8  C   UNL     1       2.266   4.630  18.414  0.00  0.00    +0.000 A 
ATOM      9 CL   UNL     1       2.416   3.358  17.259  0.00  0.00    +0.000 Cl
ATOM     10  C   UNL     1       1.786   4.445  19.714  0.00  0.00    +0.000 A 
ATOM     11  C   UNL     1       1.692   5.578  20.565  0.00  0.00    +0.000 A 
BRANCH  10  12
ATOM     12  C   UNL     1       1.343   3.117  20.272  0.00  0.00    +0.000 C 
ATOM     13  F   UNL     1       0.962   3.095  21.574  0.00  0.00    +0.000 F 
ATOM     14  F   UNL     1       0.288   2.604  19.574  0.00  0.00    +0.000 F 
ATOM     15  F   UNL     1       2.329   2.177  20.171  0.00  0.00    +0.000 F 
ENDBRANCH  10  12
ENDBRANCH   3   5
BRANCH   2  16
ATOM     16  C   UNL     1       0.672   9.637  22.317  0.00  0.00    +0.000 C 
BRANCH  16  17
ATOM     17  C   UNL     1       0.810  10.867  21.416  0.00  0.00    +0.000 C 
BRANCH  17  18
ATOM     18  N   UNL     1      -0.492  11.446  21.066  0.00  0.00    +0.000 N 
ATOM     19  C   UNL     1      -1.062  12.334  21.967  0.00  0.00    +0.000 A 
ATOM     20  O   UNL     1      -0.518  12.691  23.012  0.00  0.00    +0.000 OA
ATOM     21  N   UNL     1      -2.291  12.836  21.644  0.00  0.00    +0.000 N 
ATOM     22  C   UNL     1      -2.974  12.647  20.475  0.00  0.00    +0.000 A 
ATOM     23  O   UNL     1      -4.056  13.179  20.261  0.00  0.00    +0.000 OA
ATOM     24  C   UNL     1      -2.321  11.779  19.483  0.00  0.00    +0.000 A 
ATOM     25  C   UNL     1      -2.927  11.589  18.233  0.00  0.00    +0.000 A 
ATOM     26  C   UNL     1      -2.311  10.780  17.283  0.00  0.00    +0.000 A 
ATOM     27  C   UNL     1      -1.109  10.149  17.591  0.00  0.00    +0.000 A 
ATOM     28  C   UNL     1      -0.511  10.339  18.844  0.00  0.00    +0.000 A 
ATOM     29  C   UNL     1      -1.101  11.175  19.804  0.00  0.00    +0.000 A 
ATOM     30  H   UNL     1      -2.707  13.465  22.316  0.00  0.00    +0.000 HD
ENDBRANCH  17  18
ENDBRANCH  16  17
ENDBRANCH   2  16
TORSDOF 5
ENDMDL
MODEL 2
REMARK VINA RESULT:      -8.4      4.641      8.562
REMARK  Name = 
REMARK  5 active torsions:
REMARK  status: ('A' for Active; 'I' for Inactive)
REMARK    1  A    between atoms: C_2  and  C_3
REMARK    2  A    between atoms: C_3  and  C_4
REMARK    3  A    between atoms: C_4  and  N_5
REMARK    4  A    between atoms: N_17  and  C_18
REMARK    5  A    between atoms: C_23  and  C_24
REMARK                            x       y       z     vdW  Elec       q    Type
REMARK                         _______ _______ _______ _____ _____    ______ ____
ROOT
ATOM      1  O   UNL     1       2.053   7.313  19.339  0.00  0.00    +0.000 OA
ATOM      2  C   UNL     1       2.622   7.923  18.440  0.00  0.00    +0.000 C 
ATOM      3  N   UNL     1       2.205   9.125  17.882  0.00  0.00    +0.000 N 
ATOM      4  H   UNL     1       2.649   9.407  17.016  0.00  0.00    +0.000 HD
ENDROOT
BRANCH   3   5
ATOM      5  C   UNL     1       1.074   9.870  18.285  0.00  0.00    +0.000 A 
ATOM      6  C   UNL     1       1.098  10.773  19.343  0.00  0.00    +0.000 A 
ATOM      7  C   UNL     1      -0.066  11.435  19.738  0.00  0.00    +0.000 A 
ATOM      8  C   UNL     1      -1.279  11.205  19.083  0.00  0.00    +0.000 A 
ATOM      9 CL   UNL     1      -2.653  12.042  19.704  0.00  0.00    +0.000 Cl
ATOM     10  C   UNL     1      -1.330  10.331  17.993  0.00  0.00    +0.000 A 
ATOM     11  C   UNL     1      -0.130   9.688  17.590  0.00  0.00    +0.000 A 
BRANCH  10  12
ATOM     12  C   UNL     1      -2.585  10.010  17.223  0.00  0.00    +0.000 C 
ATOM     13  F   UNL     1      -3.388  11.055  16.895  0.00  0.00    +0.000 F 
ATOM     14  F   UNL     1      -2.306   9.380  16.045  0.00  0.00    +0.000 F 
ATOM     15  F   UNL     1      -3.386   9.145  17.911  0.00  0.00    +0.000 F 
ENDBRANCH  10  12
ENDBRANCH   3   5
BRANCH   2  16
ATOM     16  C   UNL     1       3.931   7.422  17.863  0.00  0.00    +0.000 C 
BRANCH  16  17
ATOM     17  C   UNL     1       3.729   6.087  17.138  0.00  0.00    +0.000 C 
BRANCH  17  18
ATOM     18  N   UNL     1       4.017   4.938  18.004  0.00  0.00    +0.000 N 
ATOM     19  C   UNL     1       5.315   4.802  18.477  0.00  0.00    +0.000 A 
ATOM     20  O   UNL     1       6.215   5.610  18.246  0.00  0.00    +0.000 OA
ATOM     21  N   UNL     1       5.577   3.707  19.252  0.00  0.00    +0.000 N 
ATOM     22  C   UNL     1       4.672   2.788  19.707  0.00  0.00    +0.000 A 
ATOM     23  O   UNL     1       4.999   1.862  20.438  0.00  0.00    +0.000 OA
ATOM     24  C   UNL     1       3.280   2.991  19.280  0.00  0.00    +0.000 A 
ATOM     25  C   UNL     1       2.282   2.130  19.758  0.00  0.00    +0.000 A 
ATOM     26  C   UNL     1       0.961   2.321  19.369  0.00  0.00    +0.000 A 
ATOM     27  C   UNL     1       0.643   3.353  18.491  0.00  0.00    +0.000 A 
ATOM     28  C   UNL     1       1.645   4.207  18.013  0.00  0.00    +0.000 A 
ATOM     29  C   UNL     1       2.979   4.050  18.416  0.00  0.00    +0.000 A 
ATOM     30  H   UNL     1       6.528   3.605  19.574  0.00  0.00    +0.000 HD
ENDBRANCH  17  18
ENDBRANCH  16  17
ENDBRANCH   2  16
TORSDOF 5
ENDMDL
MODEL 3
REMARK VINA RESULT:      -8.2      1.456      2.441
REMARK  Name = 
REMARK  5 active torsions:
REMARK  status: ('A' for Active; 'I' for Inactive)
REMARK    1  A    between atoms: C_2  and  C_3
REMARK    2  A    between atoms: C_3  and  C_4
REMARK    3  A    between atoms: C_4  and  N_5
REMARK    4  A    between atoms: N_17  and  C_18
REMARK    5  A    between atoms: C_23  and  C_24
REMARK                            x       y       z     vdW  Elec       q    Type
REMARK                         _______ _______ _______ _____ _____    ______ ____
ROOT
ATOM      1  O   UNL     1      -0.568   7.723  21.326  0.00  0.00    +0.000 OA
ATOM      2  C   UNL     1       0.475   8.349  21.480  0.00  0.00    +0.000 C 
ATOM      3  N   UNL     1       1.713   8.010  20.948  0.00  0.00    +0.000 N 
ATOM      4  H   UNL     1       2.521   8.493  21.323  0.00  0.00    +0.000 HD
ENDROOT
BRANCH   3   5
ATOM      5  C   UNL     1       1.971   6.907  20.103  0.00  0.00    +0.000 A 
ATOM      6  C   UNL     1       2.524   7.037  18.833  0.00  0.00    +0.000 A 
ATOM      7  C   UNL     1       2.699   5.918  18.016  0.00  0.00    +0.000 A 
ATOM      8  C   UNL     1       2.321   4.646  18.453  0.00  0.00    +0.000 A 
ATOM      9 CL   UNL     1       2.536   3.357  17.328  0.00  0.00    +0.000 Cl
ATOM     10  C   UNL     1       1.796   4.476  19.737  0.00  0.00    +0.000 A 
ATOM     11  C   UNL     1       1.650   5.622  20.563  0.00  0.00    +0.000 A 
BRANCH  10  12
ATOM     12  C   UNL     1       1.353   3.151  20.302  0.00  0.00    +0.000 C 
ATOM     13  F   UNL     1       2.259   2.140  20.279  0.00  0.00    +0.000 F 
ATOM     14  F   UNL     1       0.964   3.263  21.606  0.00  0.00    +0.000 F 
ATOM     15  F   UNL     1       0.259   2.666  19.643  0.00  0.00    +0.000 F 
ENDBRANCH  10  12
ENDBRANCH   3   5
BRANCH   2  16
ATOM     16  C   UNL     1       0.500   9.646  22.263  0.00  0.00    +0.000 C 
BRANCH  16  17
ATOM     17  C   UNL     1       0.935  10.812  21.369  0.00  0.00    +0.000 C 
BRANCH  17  18
ATOM     18  N   UNL     1      -0.060  11.117  20.333  0.00  0.00    +0.000 N 
ATOM     19  C   UNL     1       0.226  10.723  19.034  0.00  0.00    +0.000 A 
ATOM     20  O   UNL     1       1.239  10.099  18.716  0.00  0.00    +0.000 OA
ATOM     21  N   UNL     1      -0.693  11.046  18.076  0.00  0.00    +0.000 N 
ATOM     22  C   UNL     1      -1.919  11.618  18.274  0.00  0.00    +0.000 A 
ATOM     23  O   UNL     1      -2.695  11.828  17.350  0.00  0.00    +0.000 OA
ATOM     24  C   UNL     1      -2.257  11.947  19.666  0.00  0.00    +0.000 A 
ATOM     25  C   UNL     1      -3.523  12.475  19.960  0.00  0.00    +0.000 A 
ATOM     26  C   UNL     1      -3.856  12.779  21.275  0.00  0.00    +0.000 A 
ATOM     27  C   UNL     1      -2.922  12.576  22.287  0.00  0.00    +0.000 A 
ATOM     28  C   UNL     1      -1.658  12.053  21.988  0.00  0.00    +0.000 A 
ATOM     29  C   UNL     1      -1.312  11.712  20.671  0.00  0.00    +0.000 A 
ATOM     30  H   UNL     1      -0.467  10.774  17.130  0.00  0.00    +0.000 HD
ENDBRANCH  17  18
ENDBRANCH  16  17
ENDBRANCH   2  16
TORSDOF 5
ENDMDL
MODEL 4
REMARK VINA RESULT:      -8.2      4.661      8.634
REMARK  Name = 
REMARK  5 active torsions:
REMARK  status: ('A' for Active; 'I' for Inactive)
REMARK    1  A    between atoms: C_2  and  C_3
REMARK    2  A    between atoms: C_3  and  C_4
REMARK    3  A    between atoms: C_4  and  N_5
REMARK    4  A    between atoms: N_17  and  C_18
REMARK    5  A    between atoms: C_23  and  C_24
REMARK                            x       y       z     vdW  Elec       q    Type
REMARK                         _______ _______ _______ _____ _____    ______ ____
ROOT
ATOM      1  O   UNL     1       2.448   8.909  17.030  0.00  0.00    +0.000 OA
ATOM      2  C   UNL     1       2.640   8.340  18.100  0.00  0.00    +0.000 C 
ATOM      3  N   UNL     1       1.922   8.546  19.271  0.00  0.00    +0.000 N 
ATOM      4  H   UNL     1       2.317   8.168  20.124  0.00  0.00    +0.000 HD
ENDROOT
BRANCH   3   5
ATOM      5  C   UNL     1       0.819   9.418  19.417  0.00  0.00    +0.000 A 
ATOM      6  C   UNL     1       0.052   9.858  18.342  0.00  0.00    +0.000 A 
ATOM      7  C   UNL     1      -0.987  10.770  18.538  0.00  0.00    +0.000 A 
ATOM      8  C   UNL     1      -1.279  11.262  19.812  0.00  0.00    +0.000 A 
ATOM      9 CL   UNL     1      -2.549  12.425  19.911  0.00  0.00    +0.000 Cl
ATOM     10  C   UNL     1      -0.552  10.812  20.918  0.00  0.00    +0.000 A 
ATOM     11  C   UNL     1       0.484   9.865  20.703  0.00  0.00    +0.000 A 
BRANCH  10  12
ATOM     12  C   UNL     1      -0.782  11.283  22.331  0.00  0.00    +0.000 C 
ATOM     13  F   UNL     1      -0.350  12.532  22.640  0.00  0.00    +0.000 F 
ATOM     14  F   UNL     1      -2.107  11.263  22.660  0.00  0.00    +0.000 F 
ATOM     15  F   UNL     1      -0.176  10.460  23.238  0.00  0.00    +0.000 F 
ENDBRANCH  10  12
ENDBRANCH   3   5
BRANCH   2  16
ATOM     16  C   UNL     1       3.700   7.266  18.234  0.00  0.00    +0.000 C 
BRANCH  16  17
ATOM     17  C   UNL     1       3.213   5.944  17.633  0.00  0.00    +0.000 C 
BRANCH  17  18
ATOM     18  N   UNL     1       3.677   4.782  18.401  0.00  0.00    +0.000 N 
ATOM     19  C   UNL     1       4.990   4.374  18.216  0.00  0.00    +0.000 A 
ATOM     20  O   UNL     1       5.790   4.956  17.482  0.00  0.00    +0.000 OA
ATOM     21  N   UNL     1       5.396   3.269  18.910  0.00  0.00    +0.000 N 
ATOM     22  C   UNL     1       4.683   2.586  19.856  0.00  0.00    +0.000 A 
ATOM     23  O   UNL     1       5.153   1.630  20.459  0.00  0.00    +0.000 OA
ATOM     24  C   UNL     1       3.323   3.082  20.117  0.00  0.00    +0.000 A 
ATOM     25  C   UNL     1       2.552   2.476  21.119  0.00  0.00    +0.000 A 
ATOM     26  C   UNL     1       1.269   2.946  21.382  0.00  0.00    +0.000 A 
ATOM     27  C   UNL     1       0.754   3.999  20.632  0.00  0.00    +0.000 A 
ATOM     28  C   UNL     1       1.527   4.597  19.629  0.00  0.00    +0.000 A 
ATOM     29  C   UNL     1       2.834   4.158  19.368  0.00  0.00    +0.000 A 
ATOM     30  H   UNL     1       6.346   2.967  18.753  0.00  0.00    +0.000 HD
ENDBRANCH  17  18
ENDBRANCH  16  17
ENDBRANCH   2  16
TORSDOF 5
ENDMDL
MODEL 5
REMARK VINA RESULT:      -8.1      4.820      8.460
REMARK  Name = 
REMARK  5 active torsions:
REMARK  status: ('A' for Active; 'I' for Inactive)
REMARK    1  A    between atoms: C_2  and  C_3
REMARK    2  A    between atoms: C_3  and  C_4
REMARK    3  A    between atoms: C_4  and  N_5
REMARK    4  A    between atoms: N_17  and  C_18
REMARK    5  A    between atoms: C_23  and  C_24
REMARK                            x       y       z     vdW  Elec       q    Type
REMARK                         _______ _______ _______ _____ _____    ______ ____
ROOT
ATOM      1  O   UNL     1       1.574   4.577  19.523  0.00  0.00    +0.000 OA
ATOM      2  C   UNL     1       2.688   4.958  19.866  0.00  0.00    +0.000 C 
ATOM      3  N   UNL     1       3.133   6.274  19.867  0.00  0.00    +0.000 N 
ATOM      4  H   UNL     1       4.131   6.421  19.973  0.00  0.00    +0.000 HD
ENDROOT
BRANCH   3   5
ATOM      5  C   UNL     1       2.362   7.404  19.512  0.00  0.00    +0.000 A 
ATOM      6  C   UNL     1       2.316   7.914  18.218  0.00  0.00    +0.000 A 
ATOM      7  C   UNL     1       1.587   9.071  17.937  0.00  0.00    +0.000 A 
ATOM      8  C   UNL     1       0.891   9.743  18.945  0.00  0.00    +0.000 A 
ATOM      9 CL   UNL     1       0.077  11.190  18.479  0.00  0.00    +0.000 Cl
ATOM     10  C   UNL     1       0.887   9.236  20.248  0.00  0.00    +0.000 A 
ATOM     11  C   UNL     1       1.612   8.044  20.509  0.00  0.00    +0.000 A 
BRANCH  10  12
ATOM     12  C   UNL     1       0.174   9.884  21.406  0.00  0.00    +0.000 C 
ATOM     13  F   UNL     1      -1.114  10.260  21.202  0.00  0.00    +0.000 F 
ATOM     14  F   UNL     1       0.147   9.070  22.502  0.00  0.00    +0.000 F 
ATOM     15  F   UNL     1       0.816  11.017  21.818  0.00  0.00    +0.000 F 
ENDBRANCH  10  12
ENDBRANCH   3   5
BRANCH   2  16
ATOM     16  C   UNL     1       3.718   3.982  20.398  0.00  0.00    +0.000 C 
BRANCH  16  17
ATOM     17  C   UNL     1       4.276   3.112  19.267  0.00  0.00    +0.000 C 
BRANCH  17  18
ATOM     18  N   UNL     1       4.725   3.913  18.122  0.00  0.00    +0.000 N 
ATOM     19  C   UNL     1       3.976   3.839  16.956  0.00  0.00    +0.000 A 
ATOM     20  O   UNL     1       2.942   3.179  16.848  0.00  0.00    +0.000 OA
ATOM     21  N   UNL     1       4.427   4.561  15.887  0.00  0.00    +0.000 N 
ATOM     22  C   UNL     1       5.474   5.440  15.873  0.00  0.00    +0.000 A 
ATOM     23  O   UNL     1       5.774   6.078  14.872  0.00  0.00    +0.000 OA
ATOM     24  C   UNL     1       6.207   5.586  17.140  0.00  0.00    +0.000 A 
ATOM     25  C   UNL     1       7.253   6.516  17.225  0.00  0.00    +0.000 A 
ATOM     26  C   UNL     1       7.944   6.670  18.422  0.00  0.00    +0.000 A 
ATOM     27  C   UNL     1       7.606   5.883  19.519  0.00  0.00    +0.000 A 
ATOM     28  C   UNL     1       6.564   4.951  19.427  0.00  0.00    +0.000 A 
ATOM     29  C   UNL     1       5.834   4.802  18.238  0.00  0.00    +0.000 A 
ATOM     30  H   UNL     1       3.887   4.485  15.037  0.00  0.00    +0.000 HD
ENDBRANCH  17  18
ENDBRANCH  16  17
ENDBRANCH   2  16
TORSDOF 5
ENDMDL
MODEL 6
REMARK VINA RESULT:      -8.1      8.030     10.542
REMARK  Name = 
REMARK  5 active torsions:
REMARK  status: ('A' for Active; 'I' for Inactive)
REMARK    1  A    between atoms: C_2  and  C_3
REMARK    2  A    between atoms: C_3  and  C_4
REMARK    3  A    between atoms: C_4  and  N_5
REMARK    4  A    between atoms: N_17  and  C_18
REMARK    5  A    between atoms: C_23  and  C_24
REMARK                            x       y       z     vdW  Elec       q    Type
REMARK                         _______ _______ _______ _____ _____    ______ ____
ROOT
ATOM      1  O   UNL     1       7.575   9.534  17.491  0.00  0.00    +0.000 OA
ATOM      2  C   UNL     1       8.280   8.891  18.261  0.00  0.00    +0.000 C 
ATOM      3  N   UNL     1       9.273   9.411  19.081  0.00  0.00    +0.000 N 
ATOM      4  H   UNL     1       9.911   8.747  19.506  0.00  0.00    +0.000 HD
ENDROOT
BRANCH   3   5
ATOM      5  C   UNL     1       9.612  10.778  19.197  0.00  0.00    +0.000 A 
ATOM      6  C   UNL     1      10.426  11.438  18.282  0.00  0.00    +0.000 A 
ATOM      7  C   UNL     1      10.780  12.774  18.480  0.00  0.00    +0.000 A 
ATOM      8  C   UNL     1      10.329  13.475  19.601  0.00  0.00    +0.000 A 
ATOM      9 CL   UNL     1      10.884  15.101  19.759  0.00  0.00    +0.000 Cl
ATOM     10  C   UNL     1       9.481  12.853  20.521  0.00  0.00    +0.000 A 
ATOM     11  C   UNL     1       9.111  11.502  20.288  0.00  0.00    +0.000 A 
BRANCH  10  12
ATOM     12  C   UNL     1       8.944  13.518  21.762  0.00  0.00    +0.000 C 
ATOM     13  F   UNL     1       8.088  14.556  21.580  0.00  0.00    +0.000 F 
ATOM     14  F   UNL     1       8.280  12.632  22.561  0.00  0.00    +0.000 F 
ATOM     15  F   UNL     1       9.951  14.016  22.539  0.00  0.00    +0.000 F 
ENDBRANCH  10  12
ENDBRANCH   3   5
BRANCH   2  16
ATOM     16  C   UNL     1       8.085   7.398  18.437  0.00  0.00    +0.000 C 
BRANCH  16  17
ATOM     17  C   UNL     1       7.271   6.816  17.277  0.00  0.00    +0.000 C 
BRANCH  17  18
ATOM     18  N   UNL     1       6.294   5.819  17.731  0.00  0.00    +0.000 N 
ATOM     19  C   UNL     1       6.780   4.582  18.130  0.00  0.00    +0.000 A 
ATOM     20  O   UNL     1       7.977   4.296  18.163  0.00  0.00    +0.000 OA
ATOM     21  N   UNL     1       5.855   3.652  18.515  0.00  0.00    +0.000 N 
ATOM     22  C   UNL     1       4.509   3.844  18.659  0.00  0.00    +0.000 A 
ATOM     23  O   UNL     1       3.765   2.956  19.056  0.00  0.00    +0.000 OA
ATOM     24  C   UNL     1       4.012   5.187  18.325  0.00  0.00    +0.000 A 
ATOM     25  C   UNL     1       2.654   5.483  18.510  0.00  0.00    +0.000 A 
ATOM     26  C   UNL     1       2.177   6.754  18.209  0.00  0.00    +0.000 A 
ATOM     27  C   UNL     1       3.048   7.716  17.706  0.00  0.00    +0.000 A 
ATOM     28  C   UNL     1       4.403   7.413  17.519  0.00  0.00    +0.000 A 
ATOM     29  C   UNL     1       4.911   6.147  17.844  0.00  0.00    +0.000 A 
ATOM     30  H   UNL     1       6.216   2.748  18.783  0.00  0.00    +0.000 HD
ENDBRANCH  17  18
ENDBRANCH  16  17
ENDBRANCH   2  16
TORSDOF 5
ENDMDL
MODEL 7
REMARK VINA RESULT:      -8.0      4.666      8.624
REMARK  Name = 
REMARK  5 active torsions:
REMARK  status: ('A' for Active; 'I' for Inactive)
REMARK    1  A    between atoms: C_2  and  C_3
REMARK    2  A    between atoms: C_3  and  C_4
REMARK    3  A    between atoms: C_4  and  N_5
REMARK    4  A    between atoms: N_17  and  C_18
REMARK    5  A    between atoms: C_23  and  C_24
REMARK                            x       y       z     vdW  Elec       q    Type
REMARK                         _______ _______ _______ _____ _____    ______ ____
ROOT
ATOM      1  O   UNL     1       2.771   9.233  17.057  0.00  0.00    +0.000 OA
ATOM      2  C   UNL     1       2.755   8.473  18.020  0.00  0.00    +0.000 C 
ATOM      3  N   UNL     1       1.864   8.525  19.083  0.00  0.00    +0.000 N 
ATOM      4  H   UNL     1       2.094   7.974  19.903  0.00  0.00    +0.000 HD
ENDROOT
BRANCH   3   5
ATOM      5  C   UNL     1       0.794   9.439  19.216  0.00  0.00    +0.000 A 
ATOM      6  C   UNL     1       0.665  10.303  20.300  0.00  0.00    +0.000 A 
ATOM      7  C   UNL     1      -0.446  11.142  20.411  0.00  0.00    +0.000 A 
ATOM      8  C   UNL     1      -1.452  11.130  19.442  0.00  0.00    +0.000 A 
ATOM      9 CL   UNL     1      -2.798  12.171  19.725  0.00  0.00    +0.000 Cl
ATOM     10  C   UNL     1      -1.335  10.300  18.323  0.00  0.00    +0.000 A 
ATOM     11  C   UNL     1      -0.186   9.474  18.214  0.00  0.00    +0.000 A 
BRANCH  10  12
ATOM     12  C   UNL     1      -2.364  10.209  17.225  0.00  0.00    +0.000 C 
ATOM     13  F   UNL     1      -2.001   9.548  16.097  0.00  0.00    +0.000 F 
ATOM     14  F   UNL     1      -3.507   9.598  17.655  0.00  0.00    +0.000 F 
ATOM     15  F   UNL     1      -2.758  11.447  16.804  0.00  0.00    +0.000 F 
ENDBRANCH  10  12
ENDBRANCH   3   5
BRANCH   2  16
ATOM     16  C   UNL     1       3.727   7.313  18.115  0.00  0.00    +0.000 C 
BRANCH  16  17
ATOM     17  C   UNL     1       3.057   6.006  17.682  0.00  0.00    +0.000 C 
BRANCH  17  18
ATOM     18  N   UNL     1       3.563   4.849  18.432  0.00  0.00    +0.000 N 
ATOM     19  C   UNL     1       4.882   4.477  18.221  0.00  0.00    +0.000 A 
ATOM     20  O   UNL     1       5.654   5.085  17.479  0.00  0.00    +0.000 OA
ATOM     21  N   UNL     1       5.328   3.377  18.898  0.00  0.00    +0.000 N 
ATOM     22  C   UNL     1       4.648   2.667  19.849  0.00  0.00    +0.000 A 
ATOM     23  O   UNL     1       5.153   1.719  20.436  0.00  0.00    +0.000 OA
ATOM     24  C   UNL     1       3.281   3.126  20.138  0.00  0.00    +0.000 A 
ATOM     25  C   UNL     1       2.543   2.492  21.147  0.00  0.00    +0.000 A 
ATOM     26  C   UNL     1       1.253   2.926  21.436  0.00  0.00    +0.000 A 
ATOM     27  C   UNL     1       0.699   3.973  20.704  0.00  0.00    +0.000 A 
ATOM     28  C   UNL     1       1.439   4.599  19.694  0.00  0.00    +0.000 A 
ATOM     29  C   UNL     1       2.752   4.196  19.407  0.00  0.00    +0.000 A 
ATOM     30  H   UNL     1       6.283   3.100  18.723  0.00  0.00    +0.000 HD
ENDBRANCH  17  18
ENDBRANCH  16  17
ENDBRANCH   2  16
TORSDOF 5
ENDMDL
MODEL 8
REMARK VINA RESULT:      -8.0      2.015      3.160
REMARK  Name = 
REMARK  5 active torsions:
REMARK  status: ('A' for Active; 'I' for Inactive)
REMARK    1  A    between atoms: C_2  and  C_3
REMARK    2  A    between atoms: C_3  and  C_4
REMARK    3  A    between atoms: C_4  and  N_5
REMARK    4  A    between atoms: N_17  and  C_18
REMARK    5  A    between atoms: C_23  and  C_24
REMARK                            x       y       z     vdW  Elec       q    Type
REMARK                         _______ _______ _______ _____ _____    ______ ____
ROOT
ATOM      1  O   UNL     1       2.643   8.214  17.017  0.00  0.00    +0.000 OA
ATOM      2  C   UNL     1       2.171   8.569  18.093  0.00  0.00    +0.000 C 
ATOM      3  N   UNL     1       2.162   7.821  19.263  0.00  0.00    +0.000 N 
ATOM      4  H   UNL     1       1.561   8.146  20.011  0.00  0.00    +0.000 HD
ENDROOT
BRANCH   3   5
ATOM      5  C   UNL     1       2.733   6.537  19.424  0.00  0.00    +0.000 A 
ATOM      6  C   UNL     1       4.069   6.262  19.149  0.00  0.00    +0.000 A 
ATOM      7  C   UNL     1       4.565   4.962  19.265  0.00  0.00    +0.000 A 
ATOM      8  C   UNL     1       3.732   3.910  19.656  0.00  0.00    +0.000 A 
ATOM      9 CL   UNL     1       4.452   2.344  19.706  0.00  0.00    +0.000 Cl
ATOM     10  C   UNL     1       2.394   4.159  19.974  0.00  0.00    +0.000 A 
ATOM     11  C   UNL     1       1.915   5.492  19.875  0.00  0.00    +0.000 A 
BRANCH  10  12
ATOM     12  C   UNL     1       1.413   3.097  20.400  0.00  0.00    +0.000 C 
ATOM     13  F   UNL     1       1.451   1.921  19.724  0.00  0.00    +0.000 F 
ATOM     14  F   UNL     1       1.566   2.768  21.716  0.00  0.00    +0.000 F 
ATOM     15  F   UNL     1       0.123   3.533  20.288  0.00  0.00    +0.000 F 
ENDBRANCH  10  12
ENDBRANCH   3   5
BRANCH   2  16
ATOM     16  C   UNL     1       1.570   9.949  18.265  0.00  0.00    +0.000 C 
BRANCH  16  17
ATOM     17  C   UNL     1       0.040   9.884  18.232  0.00  0.00    +0.000 C 
BRANCH  17  18
ATOM     18  N   UNL     1      -0.575  10.871  19.127  0.00  0.00    +0.000 N 
ATOM     19  C   UNL     1      -1.203  11.962  18.543  0.00  0.00    +0.000 A 
ATOM     20  O   UNL     1      -1.307  12.120  17.327  0.00  0.00    +0.000 OA
ATOM     21  N   UNL     1      -1.739  12.891  19.390  0.00  0.00    +0.000 N 
ATOM     22  C   UNL     1      -1.824  12.808  20.752  0.00  0.00    +0.000 A 
ATOM     23  O   UNL     1      -2.367  13.676  21.423  0.00  0.00    +0.000 OA
ATOM     24  C   UNL     1      -1.241  11.602  21.359  0.00  0.00    +0.000 A 
ATOM     25  C   UNL     1      -1.347  11.412  22.745  0.00  0.00    +0.000 A 
ATOM     26  C   UNL     1      -0.809  10.269  23.327  0.00  0.00    +0.000 A 
ATOM     27  C   UNL     1      -0.151   9.335  22.532  0.00  0.00    +0.000 A 
ATOM     28  C   UNL     1      -0.044   9.533  21.150  0.00  0.00    +0.000 A 
ATOM     29  C   UNL     1      -0.605  10.664  20.538  0.00  0.00    +0.000 A 
ATOM     30  H   UNL     1      -2.175  13.692  18.956  0.00  0.00    +0.000 HD
ENDBRANCH  17  18
ENDBRANCH  16  17
ENDBRANCH   2  16
TORSDOF 5
ENDMDL
MODEL 9
REMARK VINA RESULT:      -8.0      1.963      2.452
REMARK  Name = 
REMARK  5 active torsions:
REMARK  status: ('A' for Active; 'I' for Inactive)
REMARK    1  A    between atoms: C_2  and  C_3
REMARK    2  A    between atoms: C_3  and  C_4
REMARK    3  A    between atoms: C_4  and  N_5
REMARK    4  A    between atoms: N_17  and  C_18
REMARK    5  A    between atoms: C_23  and  C_24
REMARK                            x       y       z     vdW  Elec       q    Type
REMARK                         _______ _______ _______ _____ _____    ______ ____
ROOT
ATOM      1  O   UNL     1       1.827   9.249  17.369  0.00  0.00    +0.000 OA
ATOM      2  C   UNL     1       1.702   8.887  18.534  0.00  0.00    +0.000 C 
ATOM      3  N   UNL     1       2.209   7.716  19.082  0.00  0.00    +0.000 N 
ATOM      4  H   UNL     1       1.856   7.445  19.993  0.00  0.00    +0.000 HD
ENDROOT
BRANCH   3   5
ATOM      5  C   UNL     1       2.992   6.759  18.396  0.00  0.00    +0.000 A 
ATOM      6  C   UNL     1       4.030   7.105  17.537  0.00  0.00    +0.000 A 
ATOM      7  C   UNL     1       4.730   6.119  16.837  0.00  0.00    +0.000 A 
ATOM      8  C   UNL     1       4.402   4.769  16.980  0.00  0.00    +0.000 A 
ATOM      9 CL   UNL     1       5.303   3.657  16.018  0.00  0.00    +0.000 Cl
ATOM     10  C   UNL     1       3.388   4.386  17.863  0.00  0.00    +0.000 A 
ATOM     11  C   UNL     1       2.706   5.400  18.586  0.00  0.00    +0.000 A 
BRANCH  10  12
ATOM     12  C   UNL     1       2.954   2.960  18.087  0.00  0.00    +0.000 C 
ATOM     13  F   UNL     1       2.465   2.291  17.012  0.00  0.00    +0.000 F 
ATOM     14  F   UNL     1       3.977   2.191  18.562  0.00  0.00    +0.000 F 
ATOM     15  F   UNL     1       1.975   2.878  19.036  0.00  0.00    +0.000 F 
ENDBRANCH  10  12
ENDBRANCH   3   5
BRANCH   2  16
ATOM     16  C   UNL     1       0.990   9.758  19.550  0.00  0.00    +0.000 C 
BRANCH  16  17
ATOM     17  C   UNL     1       0.683  11.139  18.962  0.00  0.00    +0.000 C 
BRANCH  17  18
ATOM     18  N   UNL     1      -0.696  11.562  19.231  0.00  0.00    +0.000 N 
ATOM     19  C   UNL     1      -0.904  12.427  20.296  0.00  0.00    +0.000 A 
ATOM     20  O   UNL     1       0.002  12.887  20.991  0.00  0.00    +0.000 OA
ATOM     21  N   UNL     1      -2.198  12.783  20.558  0.00  0.00    +0.000 N 
ATOM     22  C   UNL     1      -3.302  12.469  19.814  0.00  0.00    +0.000 A 
ATOM     23  O   UNL     1      -4.419  12.876  20.107  0.00  0.00    +0.000 OA
ATOM     24  C   UNL     1      -3.062  11.629  18.631  0.00  0.00    +0.000 A 
ATOM     25  C   UNL     1      -4.133  11.319  17.781  0.00  0.00    +0.000 A 
ATOM     26  C   UNL     1      -3.913  10.535  16.653  0.00  0.00    +0.000 A 
ATOM     27  C   UNL     1      -2.637  10.047  16.390  0.00  0.00    +0.000 A 
ATOM     28  C   UNL     1      -1.572  10.357  17.246  0.00  0.00    +0.000 A 
ATOM     29  C   UNL     1      -1.765  11.170  18.372  0.00  0.00    +0.000 A 
ATOM     30  H   UNL     1      -2.342  13.395  21.347  0.00  0.00    +0.000 HD
ENDBRANCH  17  18
ENDBRANCH  16  17
ENDBRANCH   2  16
TORSDOF 5
ENDMDL
