MODEL 1
REMARK VINA RESULT:      -7.0      0.000      0.000
REMARK  Name = 
REMARK  5 active torsions:
REMARK  status: ('A' for Active; 'I' for Inactive)
REMARK    1  A    between atoms: C_1  and  N_2
REMARK    2  A    between atoms: C_6  and  C_7
REMARK    3  A    between atoms: C_7  and  C_8
REMARK    4  A    between atoms: C_8  and  C_9
REMARK    5  A    between atoms: C_21  and  C_22
REMARK                            x       y       z     vdW  Elec       q    Type
REMARK                         _______ _______ _______ _____ _____    ______ ____
ROOT
ATOM      1  C   UNL     1      -0.665  11.566  18.856  0.00  0.00    +0.000 A 
ATOM      2  C   UNL     1      -1.054  10.434  18.102  0.00  0.00    +0.000 A 
ATOM      3  C   UNL     1      -2.384  10.179  17.753  0.00  0.00    +0.000 A 
ATOM      4  C   UNL     1      -3.399  11.030  18.182  0.00  0.00    +0.000 A 
ATOM      5  C   UNL     1      -3.085  12.154  18.940  0.00  0.00    +0.000 A 
ATOM      6  C   UNL     1      -1.735  12.414  19.240  0.00  0.00    +0.000 A 
ATOM      7  C   UNL     1      -1.519  13.657  19.988  0.00  0.00    +0.000 C 
ATOM      8  O   UNL     1      -1.042  14.653  19.463  0.00  0.00    +0.000 OA
ATOM      9  C   UNL     1      -1.958  13.715  21.388  0.00  0.00    +0.000 A 
ATOM     10  C   UNL     1      -0.985  14.175  22.290  0.00  0.00    +0.000 A 
ATOM     11  C   UNL     1      -1.264  14.236  23.646  0.00  0.00    +0.000 A 
ATOM     12  C   UNL     1      -2.525  13.861  24.094  0.00  0.00    +0.000 A 
ATOM     13  C   UNL     1      -3.528  13.431  23.196  0.00  0.00    +0.000 A 
ATOM     14  C   UNL     1      -3.253  13.351  21.799  0.00  0.00    +0.000 A 
ATOM     15  C   UNL     1      -4.359  12.889  20.851  0.00  0.00    +0.000 C 
ATOM     16  N   UNL     1      -4.121  12.989  19.408  0.00  0.00    +0.000 N 
ATOM     17  H   UNL     1      -3.921  13.959  19.149  0.00  0.00    +0.000 HD
ENDROOT
BRANCH   1  18
ATOM     18  C   UNL     1       0.902  11.781  19.237  0.00  0.00    +0.000 C 
ATOM     19  C   UNL     1       1.960  11.172  18.262  0.00  0.00    +0.000 C 
ATOM     20  O   UNL     1       2.633  12.438  18.105  0.00  0.00    +0.000 OA
ATOM     21  C   UNL     1       1.584  13.117  18.818  0.00  0.00    +0.000 C 
BRANCH  18  22
ATOM     22  C   UNL     1       1.153  11.445  20.731  0.00  0.00    +0.000 C 
BRANCH  22  28
ATOM     23  C   UNL     1      -0.942  10.623  22.982  0.00  0.00    +0.000 C 
ATOM     24  N   UNL     1      -0.161   9.748  22.148  0.00  0.00    +0.000 N 
ATOM     25  C   UNL     1      -0.161   8.389  22.236  0.00  0.00    +0.000 A 
ATOM     26  N   UNL     1       0.658   7.892  21.342  0.00  0.00    +0.000 NA
ATOM     27  N   UNL     1       1.212   8.944  20.661  0.00  0.00    +0.000 NA
ATOM     28  C   UNL     1       0.725  10.070  21.148  0.00  0.00    +0.000 A 
ENDBRANCH  22  28
ENDBRANCH  18  22
ENDBRANCH   1  18
BRANCH  13  29
ATOM     29  C   UNL     1      -4.892  13.078  23.760  0.00  0.00    +0.000 C 
ATOM     30  F   UNL     1      -5.657  12.336  22.916  0.00  0.00    +0.000 F 
ATOM     31  F   UNL     1      -4.809  12.364  24.914  0.00  0.00    +0.000 F 
ATOM     32  F   UNL     1      -5.628  14.186  24.051  0.00  0.00    +0.000 F 
ENDBRANCH  13  29
TORSDOF 4
ENDMDL
MODEL 2
REMARK VINA RESULT:      -7.0      3.279      6.533
REMARK  Name = 
REMARK  5 active torsions:
REMARK  status: ('A' for Active; 'I' for Inactive)
REMARK    1  A    between atoms: C_1  and  N_2
REMARK    2  A    between atoms: C_6  and  C_7
REMARK    3  A    between atoms: C_7  and  C_8
REMARK    4  A    between atoms: C_8  and  C_9
REMARK    5  A    between atoms: C_21  and  C_22
REMARK                            x       y       z     vdW  Elec       q    Type
REMARK                         _______ _______ _______ _____ _____    ______ ____
ROOT
ATOM      1  C   UNL     1      -4.974  13.450  22.146  0.00  0.00    +0.000 A 
ATOM      2  C   UNL     1      -5.736  13.128  23.293  0.00  0.00    +0.000 A 
ATOM      3  C   UNL     1      -5.156  12.684  24.486  0.00  0.00    +0.000 A 
ATOM      4  C   UNL     1      -3.779  12.500  24.572  0.00  0.00    +0.000 A 
ATOM      5  C   UNL     1      -2.973  12.785  23.474  0.00  0.00    +0.000 A 
ATOM      6  C   UNL     1      -3.575  13.274  22.300  0.00  0.00    +0.000 A 
ATOM      7  C   UNL     1      -2.623  13.600  21.232  0.00  0.00    +0.000 C 
ATOM      8  O   UNL     1      -2.351  14.755  20.939  0.00  0.00    +0.000 OA
ATOM      9  C   UNL     1      -1.932  12.497  20.553  0.00  0.00    +0.000 A 
ATOM     10  C   UNL     1      -1.990  12.542  19.150  0.00  0.00    +0.000 A 
ATOM     11  C   UNL     1      -1.410  11.535  18.395  0.00  0.00    +0.000 A 
ATOM     12  C   UNL     1      -0.752  10.497  19.045  0.00  0.00    +0.000 A 
ATOM     13  C   UNL     1      -0.652  10.455  20.454  0.00  0.00    +0.000 A 
ATOM     14  C   UNL     1      -1.254  11.477  21.245  0.00  0.00    +0.000 A 
ATOM     15  C   UNL     1      -1.124  11.409  22.767  0.00  0.00    +0.000 C 
ATOM     16  N   UNL     1      -1.583  12.558  23.553  0.00  0.00    +0.000 N 
ATOM     17  H   UNL     1      -1.082  13.404  23.270  0.00  0.00    +0.000 HD
ENDROOT
BRANCH   1  18
ATOM     18  C   UNL     1      -5.727  13.942  20.790  0.00  0.00    +0.000 C 
ATOM     19  C   UNL     1      -7.238  14.320  20.914  0.00  0.00    +0.000 C 
ATOM     20  O   UNL     1      -7.022  15.622  20.332  0.00  0.00    +0.000 OA
ATOM     21  C   UNL     1      -5.596  15.439  20.378  0.00  0.00    +0.000 C 
BRANCH  18  22
ATOM     22  C   UNL     1      -5.410  12.986  19.610  0.00  0.00    +0.000 C 
BRANCH  22  28
ATOM     23  C   UNL     1      -5.214  10.554  17.566  0.00  0.00    +0.000 C 
ATOM     24  N   UNL     1      -5.956  10.608  18.798  0.00  0.00    +0.000 N 
ATOM     25  C   UNL     1      -6.757   9.610  19.263  0.00  0.00    +0.000 A 
ATOM     26  N   UNL     1      -7.290   9.974  20.404  0.00  0.00    +0.000 NA
ATOM     27  N   UNL     1      -6.838  11.235  20.686  0.00  0.00    +0.000 NA
ATOM     28  C   UNL     1      -6.035  11.627  19.716  0.00  0.00    +0.000 A 
ENDBRANCH  22  28
ENDBRANCH  18  22
ENDBRANCH   1  18
BRANCH  13  29
ATOM     29  C   UNL     1       0.118   9.309  21.083  0.00  0.00    +0.000 C 
ATOM     30  F   UNL     1      -0.674   8.400  21.713  0.00  0.00    +0.000 F 
ATOM     31  F   UNL     1       0.843   8.606  20.173  0.00  0.00    +0.000 F 
ATOM     32  F   UNL     1       1.004   9.743  22.022  0.00  0.00    +0.000 F 
ENDBRANCH  13  29
TORSDOF 4
ENDMDL
MODEL 3
REMARK VINA RESULT:      -6.9      2.319      3.357
REMARK  Name = 
REMARK  5 active torsions:
REMARK  status: ('A' for Active; 'I' for Inactive)
REMARK    1  A    between atoms: C_1  and  N_2
REMARK    2  A    between atoms: C_6  and  C_7
REMARK    3  A    between atoms: C_7  and  C_8
REMARK    4  A    between atoms: C_8  and  C_9
REMARK    5  A    between atoms: C_21  and  C_22
REMARK                            x       y       z     vdW  Elec       q    Type
REMARK                         _______ _______ _______ _____ _____    ______ ____
ROOT
ATOM      1  C   UNL     1      -1.339  11.334  19.743  0.00  0.00    +0.000 A 
ATOM      2  C   UNL     1      -1.385  10.403  18.680  0.00  0.00    +0.000 A 
ATOM      3  C   UNL     1      -2.438  10.358  17.760  0.00  0.00    +0.000 A 
ATOM      4  C   UNL     1      -3.522  11.222  17.890  0.00  0.00    +0.000 A 
ATOM      5  C   UNL     1      -3.546  12.152  18.924  0.00  0.00    +0.000 A 
ATOM      6  C   UNL     1      -2.453  12.209  19.809  0.00  0.00    +0.000 A 
ATOM      7  C   UNL     1      -2.558  13.269  20.819  0.00  0.00    +0.000 C 
ATOM      8  O   UNL     1      -1.882  14.286  20.761  0.00  0.00    +0.000 OA
ATOM      9  C   UNL     1      -3.558  13.123  21.883  0.00  0.00    +0.000 A 
ATOM     10  C   UNL     1      -3.063  13.308  23.185  0.00  0.00    +0.000 A 
ATOM     11  C   UNL     1      -3.900  13.155  24.278  0.00  0.00    +0.000 A 
ATOM     12  C   UNL     1      -5.237  12.843  24.067  0.00  0.00    +0.000 A 
ATOM     13  C   UNL     1      -5.761  12.689  22.764  0.00  0.00    +0.000 A 
ATOM     14  C   UNL     1      -4.910  12.830  21.628  0.00  0.00    +0.000 A 
ATOM     15  C   UNL     1      -5.507  12.665  20.230  0.00  0.00    +0.000 C 
ATOM     16  N   UNL     1      -4.666  12.996  19.076  0.00  0.00    +0.000 N 
ATOM     17  H   UNL     1      -4.355  13.969  19.131  0.00  0.00    +0.000 HD
ENDROOT
BRANCH   1  18
ATOM     18  C   UNL     1      -0.087  11.310  20.783  0.00  0.00    +0.000 C 
ATOM     19  C   UNL     1      -0.325  10.618  22.164  0.00  0.00    +0.000 C 
ATOM     20  O   UNL     1       0.813   9.749  21.992  0.00  0.00    +0.000 OA
ATOM     21  C   UNL     1       0.974  10.179  20.629  0.00  0.00    +0.000 C 
BRANCH  18  22
ATOM     22  C   UNL     1       0.569  12.712  20.883  0.00  0.00    +0.000 C 
BRANCH  22  28
ATOM     23  C   UNL     1       3.433  14.069  21.180  0.00  0.00    +0.000 C 
ATOM     24  N   UNL     1       2.788  13.634  19.969  0.00  0.00    +0.000 N 
ATOM     25  C   UNL     1       3.303  13.793  18.718  0.00  0.00    +0.000 A 
ATOM     26  N   UNL     1       2.470  13.295  17.837  0.00  0.00    +0.000 NA
ATOM     27  N   UNL     1       1.387  12.810  18.521  0.00  0.00    +0.000 NA
ATOM     28  C   UNL     1       1.571  13.017  19.811  0.00  0.00    +0.000 A 
ENDBRANCH  22  28
ENDBRANCH  18  22
ENDBRANCH   1  18
BRANCH  13  29
ATOM     29  C   UNL     1      -7.241  12.388  22.618  0.00  0.00    +0.000 C 
ATOM     30  F   UNL     1      -7.879  12.197  23.804  0.00  0.00    +0.000 F 
ATOM     31  F   UNL     1      -7.917  13.386  21.987  0.00  0.00    +0.000 F 
ATOM     32  F   UNL     1      -7.465  11.259  21.890  0.00  0.00    +0.000 F 
ENDBRANCH  13  29
TORSDOF 4
ENDMDL
MODEL 4
REMARK VINA RESULT:      -6.9      2.256      3.278
REMARK  Name = 
REMARK  5 active torsions:
REMARK  status: ('A' for Active; 'I' for Inactive)
REMARK    1  A    between atoms: C_1  and  N_2
REMARK    2  A    between atoms: C_6  and  C_7
REMARK    3  A    between atoms: C_7  and  C_8
REMARK    4  A    between atoms: C_8  and  C_9
REMARK    5  A    between atoms: C_21  and  C_22
REMARK                            x       y       z     vdW  Elec       q    Type
REMARK                         _______ _______ _______ _____ _____    ______ ____
ROOT
ATOM      1  C   UNL     1      -1.668  11.056  19.247  0.00  0.00    +0.000 A 
ATOM      2  C   UNL     1      -1.849  10.117  18.205  0.00  0.00    +0.000 A 
ATOM      3  C   UNL     1      -2.978  10.114  17.378  0.00  0.00    +0.000 A 
ATOM      4  C   UNL     1      -4.004  11.031  17.586  0.00  0.00    +0.000 A 
ATOM      5  C   UNL     1      -3.895  11.972  18.605  0.00  0.00    +0.000 A 
ATOM      6  C   UNL     1      -2.730  11.985  19.394  0.00  0.00    +0.000 A 
ATOM      7  C   UNL     1      -2.697  13.059  20.393  0.00  0.00    +0.000 C 
ATOM      8  O   UNL     1      -1.981  14.041  20.263  0.00  0.00    +0.000 OA
ATOM      9  C   UNL     1      -3.609  12.974  21.540  0.00  0.00    +0.000 A 
ATOM     10  C   UNL     1      -2.996  13.148  22.792  0.00  0.00    +0.000 A 
ATOM     11  C   UNL     1      -3.744  13.049  23.954  0.00  0.00    +0.000 A 
ATOM     12  C   UNL     1      -5.108  12.800  23.862  0.00  0.00    +0.000 A 
ATOM     13  C   UNL     1      -5.747  12.658  22.609  0.00  0.00    +0.000 A 
ATOM     14  C   UNL     1      -4.990  12.745  21.404  0.00  0.00    +0.000 A 
ATOM     15  C   UNL     1      -5.710  12.594  20.064  0.00  0.00    +0.000 C 
ATOM     16  N   UNL     1      -4.956  12.871  18.838  0.00  0.00    +0.000 N 
ATOM     17  H   UNL     1      -4.595  13.829  18.853  0.00  0.00    +0.000 HD
ENDROOT
BRANCH   1  18
ATOM     18  C   UNL     1      -0.335  10.981  20.177  0.00  0.00    +0.000 C 
ATOM     19  C   UNL     1      -0.498  11.363  21.683  0.00  0.00    +0.000 C 
ATOM     20  O   UNL     1       0.075  10.115  22.124  0.00  0.00    +0.000 OA
ATOM     21  C   UNL     1       0.064   9.601  20.781  0.00  0.00    +0.000 C 
BRANCH  18  22
ATOM     22  C   UNL     1       0.862  11.676  19.476  0.00  0.00    +0.000 C 
BRANCH  22  28
ATOM     23  C   UNL     1       0.657  14.731  18.606  0.00  0.00    +0.000 C 
ATOM     24  N   UNL     1       1.315  14.190  19.766  0.00  0.00    +0.000 N 
ATOM     25  C   UNL     1       2.021  14.926  20.670  0.00  0.00    +0.000 A 
ATOM     26  N   UNL     1       2.496  14.136  21.601  0.00  0.00    +0.000 NA
ATOM     27  N   UNL     1       2.103  12.859  21.298  0.00  0.00    +0.000 NA
ATOM     28  C   UNL     1       1.393  12.885  20.186  0.00  0.00    +0.000 A 
ENDBRANCH  22  28
ENDBRANCH  18  22
ENDBRANCH   1  18
BRANCH  13  29
ATOM     29  C   UNL     1      -7.247  12.428  22.593  0.00  0.00    +0.000 C 
ATOM     30  F   UNL     1      -7.618  11.285  21.955  0.00  0.00    +0.000 F 
ATOM     31  F   UNL     1      -7.775  12.346  23.843  0.00  0.00    +0.000 F 
ATOM     32  F   UNL     1      -7.913  13.436  21.965  0.00  0.00    +0.000 F 
ENDBRANCH  13  29
TORSDOF 4
ENDMDL
MODEL 5
REMARK VINA RESULT:      -6.8      0.563      1.095
REMARK  Name = 
REMARK  5 active torsions:
REMARK  status: ('A' for Active; 'I' for Inactive)
REMARK    1  A    between atoms: C_1  and  N_2
REMARK    2  A    between atoms: C_6  and  C_7
REMARK    3  A    between atoms: C_7  and  C_8
REMARK    4  A    between atoms: C_8  and  C_9
REMARK    5  A    between atoms: C_21  and  C_22
REMARK                            x       y       z     vdW  Elec       q    Type
REMARK                         _______ _______ _______ _____ _____    ______ ____
ROOT
ATOM      1  C   UNL     1      -0.568  11.422  18.807  0.00  0.00    +0.000 A 
ATOM      2  C   UNL     1      -0.983  10.260  18.117  0.00  0.00    +0.000 A 
ATOM      3  C   UNL     1      -2.325   9.992  17.826  0.00  0.00    +0.000 A 
ATOM      4  C   UNL     1      -3.324  10.862  18.253  0.00  0.00    +0.000 A 
ATOM      5  C   UNL     1      -2.984  12.016  18.950  0.00  0.00    +0.000 A 
ATOM      6  C   UNL     1      -1.624  12.287  19.192  0.00  0.00    +0.000 A 
ATOM      7  C   UNL     1      -1.382  13.562  19.878  0.00  0.00    +0.000 C 
ATOM      8  O   UNL     1      -0.925  14.533  19.294  0.00  0.00    +0.000 OA
ATOM      9  C   UNL     1      -1.772  13.681  21.288  0.00  0.00    +0.000 A 
ATOM     10  C   UNL     1      -0.769  14.177  22.135  0.00  0.00    +0.000 A 
ATOM     11  C   UNL     1      -1.001  14.297  23.496  0.00  0.00    +0.000 A 
ATOM     12  C   UNL     1      -2.246  13.944  24.003  0.00  0.00    +0.000 A 
ATOM     13  C   UNL     1      -3.279  13.477  23.160  0.00  0.00    +0.000 A 
ATOM     14  C   UNL     1      -3.052  13.336  21.759  0.00  0.00    +0.000 A 
ATOM     15  C   UNL     1      -4.191  12.834  20.871  0.00  0.00    +0.000 C 
ATOM     16  N   UNL     1      -4.003  12.872  19.418  0.00  0.00    +0.000 N 
ATOM     17  H   UNL     1      -3.813  13.830  19.110  0.00  0.00    +0.000 HD
ENDROOT
BRANCH   1  18
ATOM     18  C   UNL     1       1.012  11.652  19.125  0.00  0.00    +0.000 C 
ATOM     19  C   UNL     1       2.033  10.858  18.249  0.00  0.00    +0.000 C 
ATOM     20  O   UNL     1       2.737  12.060  17.873  0.00  0.00    +0.000 OA
ATOM     21  C   UNL     1       1.720  12.879  18.478  0.00  0.00    +0.000 C 
BRANCH  18  22
ATOM     22  C   UNL     1       1.282  11.562  20.649  0.00  0.00    +0.000 C 
BRANCH  22  28
ATOM     23  C   UNL     1       1.600   8.420  20.253  0.00  0.00    +0.000 C 
ATOM     24  N   UNL     1       0.696   9.106  21.137  0.00  0.00    +0.000 N 
ATOM     25  C   UNL     1      -0.231   8.494  21.925  0.00  0.00    +0.000 A 
ATOM     26  N   UNL     1      -0.895   9.398  22.602  0.00  0.00    +0.000 NA
ATOM     27  N   UNL     1      -0.402  10.625  22.245  0.00  0.00    +0.000 NA
ATOM     28  C   UNL     1       0.557  10.456  21.354  0.00  0.00    +0.000 A 
ENDBRANCH  22  28
ENDBRANCH  18  22
ENDBRANCH   1  18
BRANCH  13  29
ATOM     29  C   UNL     1      -4.622  13.150  23.787  0.00  0.00    +0.000 C 
ATOM     30  F   UNL     1      -5.443  12.431  22.974  0.00  0.00    +0.000 F 
ATOM     31  F   UNL     1      -4.501  12.426  24.931  0.00  0.00    +0.000 F 
ATOM     32  F   UNL     1      -5.318  14.272  24.118  0.00  0.00    +0.000 F 
ENDBRANCH  13  29
TORSDOF 4
ENDMDL
MODEL 6
REMARK VINA RESULT:      -6.8      1.513      2.217
REMARK  Name = 
REMARK  5 active torsions:
REMARK  status: ('A' for Active; 'I' for Inactive)
REMARK    1  A    between atoms: C_1  and  N_2
REMARK    2  A    between atoms: C_6  and  C_7
REMARK    3  A    between atoms: C_7  and  C_8
REMARK    4  A    between atoms: C_8  and  C_9
REMARK    5  A    between atoms: C_21  and  C_22
REMARK                            x       y       z     vdW  Elec       q    Type
REMARK                         _______ _______ _______ _____ _____    ______ ____
ROOT
ATOM      1  C   UNL     1      -2.279  10.833  18.512  0.00  0.00    +0.000 A 
ATOM      2  C   UNL     1      -2.830  10.114  17.426  0.00  0.00    +0.000 A 
ATOM      3  C   UNL     1      -4.053  10.453  16.838  0.00  0.00    +0.000 A 
ATOM      4  C   UNL     1      -4.806  11.511  17.341  0.00  0.00    +0.000 A 
ATOM      5  C   UNL     1      -4.327  12.250  18.418  0.00  0.00    +0.000 A 
ATOM      6  C   UNL     1      -3.073  11.918  18.964  0.00  0.00    +0.000 A 
ATOM      7  C   UNL     1      -2.642  12.804  20.051  0.00  0.00    +0.000 C 
ATOM      8  O   UNL     1      -1.760  13.636  19.896  0.00  0.00    +0.000 OA
ATOM      9  C   UNL     1      -3.347  12.727  21.336  0.00  0.00    +0.000 A 
ATOM     10  C   UNL     1      -2.513  12.589  22.457  0.00  0.00    +0.000 A 
ATOM     11  C   UNL     1      -3.062  12.465  23.724  0.00  0.00    +0.000 A 
ATOM     12  C   UNL     1      -4.443  12.503  23.869  0.00  0.00    +0.000 A 
ATOM     13  C   UNL     1      -5.296  12.677  22.756  0.00  0.00    +0.000 A 
ATOM     14  C   UNL     1      -4.748  12.794  21.444  0.00  0.00    +0.000 A 
ATOM     15  C   UNL     1      -5.696  12.989  20.260  0.00  0.00    +0.000 C 
ATOM     16  N   UNL     1      -5.112  13.293  18.950  0.00  0.00    +0.000 N 
ATOM     17  H   UNL     1      -4.554  14.149  19.002  0.00  0.00    +0.000 HD
ENDROOT
BRANCH   1  18
ATOM     18  C   UNL     1      -0.859  10.362  19.153  0.00  0.00    +0.000 C 
ATOM     19  C   UNL     1       0.276   9.970  18.154  0.00  0.00    +0.000 C 
ATOM     20  O   UNL     1       1.205  10.896  18.752  0.00  0.00    +0.000 OA
ATOM     21  C   UNL     1       0.162  11.463  19.565  0.00  0.00    +0.000 C 
BRANCH  18  22
ATOM     22  C   UNL     1      -1.087   9.328  20.287  0.00  0.00    +0.000 C 
BRANCH  22  28
ATOM     23  C   UNL     1       1.729   7.867  20.547  0.00  0.00    +0.000 C 
ATOM     24  N   UNL     1       1.096   8.730  21.508  0.00  0.00    +0.000 N 
ATOM     25  C   UNL     1       1.600   9.019  22.741  0.00  0.00    +0.000 A 
ATOM     26  N   UNL     1       0.782   9.827  23.369  0.00  0.00    +0.000 NA
ATOM     27  N   UNL     1      -0.281  10.066  22.538  0.00  0.00    +0.000 NA
ATOM     28  C   UNL     1      -0.100   9.400  21.413  0.00  0.00    +0.000 A 
ENDBRANCH  22  28
ENDBRANCH  18  22
ENDBRANCH   1  18
BRANCH  13  29
ATOM     29  C   UNL     1      -6.792  12.749  23.004  0.00  0.00    +0.000 C 
ATOM     30  F   UNL     1      -7.353  13.926  22.618  0.00  0.00    +0.000 F 
ATOM     31  F   UNL     1      -7.476  11.775  22.346  0.00  0.00    +0.000 F 
ATOM     32  F   UNL     1      -7.099  12.606  24.322  0.00  0.00    +0.000 F 
ENDBRANCH  13  29
TORSDOF 4
ENDMDL
MODEL 7
REMARK VINA RESULT:      -6.8      1.878      2.690
REMARK  Name = 
REMARK  5 active torsions:
REMARK  status: ('A' for Active; 'I' for Inactive)
REMARK    1  A    between atoms: C_1  and  N_2
REMARK    2  A    between atoms: C_6  and  C_7
REMARK    3  A    between atoms: C_7  and  C_8
REMARK    4  A    between atoms: C_8  and  C_9
REMARK    5  A    between atoms: C_21  and  C_22
REMARK                            x       y       z     vdW  Elec       q    Type
REMARK                         _______ _______ _______ _____ _____    ______ ____
ROOT
ATOM      1  C   UNL     1      -1.598  10.944  19.212  0.00  0.00    +0.000 A 
ATOM      2  C   UNL     1      -1.845   9.992  18.196  0.00  0.00    +0.000 A 
ATOM      3  C   UNL     1      -2.997  10.015  17.402  0.00  0.00    +0.000 A 
ATOM      4  C   UNL     1      -3.981  10.975  17.619  0.00  0.00    +0.000 A 
ATOM      5  C   UNL     1      -3.807  11.932  18.613  0.00  0.00    +0.000 A 
ATOM      6  C   UNL     1      -2.619  11.916  19.369  0.00  0.00    +0.000 A 
ATOM      7  C   UNL     1      -2.517  13.009  20.343  0.00  0.00    +0.000 C 
ATOM      8  O   UNL     1      -1.768  13.959  20.171  0.00  0.00    +0.000 OA
ATOM      9  C   UNL     1      -3.397  12.982  21.517  0.00  0.00    +0.000 A 
ATOM     10  C   UNL     1      -2.742  13.159  22.747  0.00  0.00    +0.000 A 
ATOM     11  C   UNL     1      -3.459  13.112  23.932  0.00  0.00    +0.000 A 
ATOM     12  C   UNL     1      -4.834  12.915  23.883  0.00  0.00    +0.000 A 
ATOM     13  C   UNL     1      -5.514  12.772  22.653  0.00  0.00    +0.000 A 
ATOM     14  C   UNL     1      -4.790  12.805  21.425  0.00  0.00    +0.000 A 
ATOM     15  C   UNL     1      -5.554  12.655  20.110  0.00  0.00    +0.000 C 
ATOM     16  N   UNL     1      -4.825  12.876  18.857  0.00  0.00    +0.000 N 
ATOM     17  H   UNL     1      -4.428  13.819  18.841  0.00  0.00    +0.000 HD
ENDROOT
BRANCH   1  18
ATOM     18  C   UNL     1      -0.242  10.837  20.106  0.00  0.00    +0.000 C 
ATOM     19  C   UNL     1       0.877  11.890  19.825  0.00  0.00    +0.000 C 
ATOM     20  O   UNL     1       0.931  12.290  21.210  0.00  0.00    +0.000 OA
ATOM     21  C   UNL     1      -0.235  11.505  21.513  0.00  0.00    +0.000 C 
BRANCH  18  22
ATOM     22  C   UNL     1       0.266   9.372  20.155  0.00  0.00    +0.000 C 
BRANCH  22  28
ATOM     23  C   UNL     1       2.217   6.861  20.024  0.00  0.00    +0.000 C 
ATOM     24  N   UNL     1       2.098   7.931  19.070  0.00  0.00    +0.000 N 
ATOM     25  C   UNL     1       2.868   8.063  17.953  0.00  0.00    +0.000 A 
ATOM     26  N   UNL     1       2.511   9.142  17.301  0.00  0.00    +0.000 NA
ATOM     27  N   UNL     1       1.496   9.733  18.007  0.00  0.00    +0.000 NA
ATOM     28  C   UNL     1       1.246   9.008  19.080  0.00  0.00    +0.000 A 
ENDBRANCH  22  28
ENDBRANCH  18  22
ENDBRANCH   1  18
BRANCH  13  29
ATOM     29  C   UNL     1      -7.022  12.600  22.684  0.00  0.00    +0.000 C 
ATOM     30  F   UNL     1      -7.702  13.655  22.160  0.00  0.00    +0.000 F 
ATOM     31  F   UNL     1      -7.436  11.507  21.991  0.00  0.00    +0.000 F 
ATOM     32  F   UNL     1      -7.493  12.448  23.952  0.00  0.00    +0.000 F 
ENDBRANCH  13  29
TORSDOF 4
ENDMDL
MODEL 8
REMARK VINA RESULT:      -6.7      3.576      6.782
REMARK  Name = 
REMARK  5 active torsions:
REMARK  status: ('A' for Active; 'I' for Inactive)
REMARK    1  A    between atoms: C_1  and  N_2
REMARK    2  A    between atoms: C_6  and  C_7
REMARK    3  A    between atoms: C_7  and  C_8
REMARK    4  A    between atoms: C_8  and  C_9
REMARK    5  A    between atoms: C_21  and  C_22
REMARK                            x       y       z     vdW  Elec       q    Type
REMARK                         _______ _______ _______ _____ _____    ______ ____
ROOT
ATOM      1  C   UNL     1      -2.335  12.024  22.524  0.00  0.00    +0.000 A 
ATOM      2  C   UNL     1      -1.531  11.115  23.250  0.00  0.00    +0.000 A 
ATOM      3  C   UNL     1      -0.417  10.479  22.691  0.00  0.00    +0.000 A 
ATOM      4  C   UNL     1      -0.080  10.694  21.358  0.00  0.00    +0.000 A 
ATOM      5  C   UNL     1      -0.839  11.565  20.585  0.00  0.00    +0.000 A 
ATOM      6  C   UNL     1      -1.928  12.228  21.181  0.00  0.00    +0.000 A 
ATOM      7  C   UNL     1      -2.615  13.169  20.289  0.00  0.00    +0.000 C 
ATOM      8  O   UNL     1      -2.496  14.380  20.411  0.00  0.00    +0.000 OA
ATOM      9  C   UNL     1      -3.408  12.627  19.180  0.00  0.00    +0.000 A 
ATOM     10  C   UNL     1      -4.715  13.135  19.087  0.00  0.00    +0.000 A 
ATOM     11  C   UNL     1      -5.576  12.670  18.106  0.00  0.00    +0.000 A 
ATOM     12  C   UNL     1      -5.121  11.717  17.203  0.00  0.00    +0.000 A 
ATOM     13  C   UNL     1      -3.799  11.223  17.258  0.00  0.00    +0.000 A 
ATOM     14  C   UNL     1      -2.904  11.680  18.269  0.00  0.00    +0.000 A 
ATOM     15  C   UNL     1      -1.477  11.132  18.300  0.00  0.00    +0.000 C 
ATOM     16  N   UNL     1      -0.519  11.747  19.223  0.00  0.00    +0.000 N 
ATOM     17  H   UNL     1      -0.427  12.747  19.024  0.00  0.00    +0.000 HD
ENDROOT
BRANCH   1  18
ATOM     18  C   UNL     1      -3.627  12.707  23.241  0.00  0.00    +0.000 C 
ATOM     19  C   UNL     1      -3.853  12.384  24.752  0.00  0.00    +0.000 C 
ATOM     20  O   UNL     1      -3.899  13.782  25.106  0.00  0.00    +0.000 OA
ATOM     21  C   UNL     1      -3.483  14.161  23.782  0.00  0.00    +0.000 C 
BRANCH  18  22
ATOM     22  C   UNL     1      -4.894  12.538  22.362  0.00  0.00    +0.000 C 
BRANCH  22  28
ATOM     23  C   UNL     1      -6.426  15.313  22.069  0.00  0.00    +0.000 C 
ATOM     24  N   UNL     1      -6.794  14.189  22.888  0.00  0.00    +0.000 N 
ATOM     25  C   UNL     1      -7.862  14.163  23.733  0.00  0.00    +0.000 A 
ATOM     26  N   UNL     1      -7.916  12.999  24.333  0.00  0.00    +0.000 NA
ATOM     27  N   UNL     1      -6.860  12.253  23.882  0.00  0.00    +0.000 NA
ATOM     28  C   UNL     1      -6.174  12.969  23.012  0.00  0.00    +0.000 A 
ENDBRANCH  22  28
ENDBRANCH  18  22
ENDBRANCH   1  18
BRANCH  13  29
ATOM     29  C   UNL     1      -3.368  10.213  16.210  0.00  0.00    +0.000 C 
ATOM     30  F   UNL     1      -4.302   9.996  15.245  0.00  0.00    +0.000 F 
ATOM     31  F   UNL     1      -2.237  10.590  15.557  0.00  0.00    +0.000 F 
ATOM     32  F   UNL     1      -3.105   8.993  16.753  0.00  0.00    +0.000 F 
ENDBRANCH  13  29
TORSDOF 4
ENDMDL
MODEL 9
REMARK VINA RESULT:      -6.6      8.591     11.391
REMARK  Name = 
REMARK  5 active torsions:
REMARK  status: ('A' for Active; 'I' for Inactive)
REMARK    1  A    between atoms: C_1  and  N_2
REMARK    2  A    between atoms: C_6  and  C_7
REMARK    3  A    between atoms: C_7  and  C_8
REMARK    4  A    between atoms: C_8  and  C_9
REMARK    5  A    between atoms: C_21  and  C_22
REMARK                            x       y       z     vdW  Elec       q    Type
REMARK                         _______ _______ _______ _____ _____    ______ ____
ROOT
ATOM      1  C   UNL     1       6.206  14.248  22.331  0.00  0.00    +0.000 A 
ATOM      2  C   UNL     1       5.413  13.316  23.039  0.00  0.00    +0.000 A 
ATOM      3  C   UNL     1       5.939  12.149  23.602  0.00  0.00    +0.000 A 
ATOM      4  C   UNL     1       7.287  11.838  23.443  0.00  0.00    +0.000 A 
ATOM      5  C   UNL     1       8.119  12.706  22.745  0.00  0.00    +0.000 A 
ATOM      6  C   UNL     1       7.576  13.897  22.227  0.00  0.00    +0.000 A 
ATOM      7  C   UNL     1       8.559  14.763  21.566  0.00  0.00    +0.000 C 
ATOM      8  O   UNL     1       8.960  15.796  22.081  0.00  0.00    +0.000 OA
ATOM      9  C   UNL     1       9.121  14.328  20.281  0.00  0.00    +0.000 A 
ATOM     10  C   UNL     1       9.068  15.291  19.260  0.00  0.00    +0.000 A 
ATOM     11  C   UNL     1       9.530  14.987  17.989  0.00  0.00    +0.000 A 
ATOM     12  C   UNL     1      10.066  13.728  17.749  0.00  0.00    +0.000 A 
ATOM     13  C   UNL     1      10.161  12.759  18.774  0.00  0.00    +0.000 A 
ATOM     14  C   UNL     1       9.679  13.052  20.083  0.00  0.00    +0.000 A 
ATOM     15  C   UNL     1       9.801  11.986  21.173  0.00  0.00    +0.000 C 
ATOM     16  N   UNL     1       9.474  12.366  22.551  0.00  0.00    +0.000 N 
ATOM     17  H   UNL     1      10.068  13.142  22.854  0.00  0.00    +0.000 HD
ENDROOT
BRANCH   1  18
ATOM     18  C   UNL     1       5.514  15.574  21.689  0.00  0.00    +0.000 C 
ATOM     19  C   UNL     1       4.128  16.002  22.270  0.00  0.00    +0.000 C 
ATOM     20  O   UNL     1       4.592  17.338  22.554  0.00  0.00    +0.000 OA
ATOM     21  C   UNL     1       5.946  16.967  22.237  0.00  0.00    +0.000 C 
BRANCH  18  22
ATOM     22  C   UNL     1       5.560  15.520  20.140  0.00  0.00    +0.000 C 
BRANCH  22  28
ATOM     23  C   UNL     1       2.940  13.893  19.350  0.00  0.00    +0.000 C 
ATOM     24  N   UNL     1       3.220  15.282  19.099  0.00  0.00    +0.000 N 
ATOM     25  C   UNL     1       2.400  16.127  18.413  0.00  0.00    +0.000 A 
ATOM     26  N   UNL     1       2.946  17.316  18.357  0.00  0.00    +0.000 NA
ATOM     27  N   UNL     1       4.149  17.249  19.009  0.00  0.00    +0.000 NA
ATOM     28  C   UNL     1       4.323  16.020  19.455  0.00  0.00    +0.000 A 
ENDBRANCH  22  28
ENDBRANCH  18  22
ENDBRANCH   1  18
BRANCH  13  29
ATOM     29  C   UNL     1      10.797  11.423  18.439  0.00  0.00    +0.000 C 
ATOM     30  F   UNL     1      11.964  11.193  19.099  0.00  0.00    +0.000 F 
ATOM     31  F   UNL     1       9.988  10.371  18.734  0.00  0.00    +0.000 F 
ATOM     32  F   UNL     1      11.093  11.314  17.115  0.00  0.00    +0.000 F 
ENDBRANCH  13  29
TORSDOF 4
ENDMDL
