MODEL 1
REMARK VINA RESULT:      -8.1      0.000      0.000
REMARK  Name = 
REMARK  5 active torsions:
REMARK  status: ('A' for Active; 'I' for Inactive)
REMARK    1  A    between atoms: C_1  and  N_2
REMARK    2  A    between atoms: C_3  and  C_5
REMARK    3  A    between atoms: C_9  and  N_10
REMARK    4  A    between atoms: C_17  and  C_18
REMARK    5  A    between atoms: C_18  and  C_19
REMARK                            x       y       z     vdW  Elec       q    Type
REMARK                         _______ _______ _______ _____ _____    ______ ____
ROOT
ATOM      1  N   UNL     1       0.600   9.191  18.978  0.00  0.00    +0.000 N 
ATOM      2  C   UNL     1       1.793   9.315  18.294  0.00  0.00    +0.000 C 
ATOM      3  O   UNL     1       2.117  10.296  17.627  0.00  0.00    +0.000 OA
ATOM      4  N   UNL     1       2.633   8.202  18.380  0.00  0.00    +0.000 N 
ATOM      5  C   UNL     1       2.353   7.005  19.171  0.00  0.00    +0.000 C 
ATOM      6  C   UNL     1       3.540   6.061  19.375  0.00  0.00    +0.000 C 
ATOM      7  C   UNL     1       4.226   5.745  18.071  0.00  0.00    +0.000 A 
ATOM      8  C   UNL     1       4.832   4.497  17.793  0.00  0.00    +0.000 A 
ATOM      9  C   UNL     1       5.360   4.285  16.507  0.00  0.00    +0.000 A 
ATOM     10  C   UNL     1       5.340   5.292  15.542  0.00  0.00    +0.000 A 
ATOM     11  C   UNL     1       4.815   6.544  15.850  0.00  0.00    +0.000 A 
ATOM     12  C   UNL     1       4.260   6.783  17.112  0.00  0.00    +0.000 A 
ATOM     13  C   UNL     1       3.771   8.172  17.463  0.00  0.00    +0.000 C 
ATOM     14  H   UNL     1       0.524   8.442  19.641  0.00  0.00    +0.000 HD
ENDROOT
BRANCH   1  19
ATOM     15  C   UNL     1      -4.697  11.791  17.933  0.00  0.00    +0.000 A 
ATOM     16  C   UNL     1      -4.036  10.622  17.603  0.00  0.00    +0.000 A 
ATOM     17  C   UNL     1      -2.758  10.641  18.215  0.00  0.00    +0.000 A 
ATOM     18  C   UNL     1      -1.679   9.741  18.211  0.00  0.00    +0.000 A 
ATOM     19  C   UNL     1      -0.519  10.047  18.923  0.00  0.00    +0.000 A 
ATOM     20  C   UNL     1      -0.456  11.242  19.656  0.00  0.00    +0.000 A 
ATOM     21  C   UNL     1      -1.519  12.158  19.673  0.00  0.00    +0.000 A 
ATOM     22  C   UNL     1      -2.659  11.829  18.933  0.00  0.00    +0.000 A 
ATOM     23  N   UNL     1      -3.839  12.509  18.740  0.00  0.00    +0.000 N 
ATOM     24  H   UNL     1      -4.063  13.418  19.125  0.00  0.00    +0.000 HD
BRANCH  15  27
ATOM     25  C   UNL     1      -7.210  14.200  16.600  0.00  0.00    +0.000 C 
ATOM     26  N   UNL     1      -5.997  13.540  16.995  0.00  0.00    +0.000 N 
ATOM     27  C   UNL     1      -6.002  12.287  17.558  0.00  0.00    +0.000 C 
ATOM     28  O   UNL     1      -7.027  11.635  17.730  0.00  0.00    +0.000 OA
ATOM     29  H   UNL     1      -5.116  13.998  16.812  0.00  0.00    +0.000 HD
ENDBRANCH  15  27
ENDBRANCH   1  19
BRANCH   8  30
ATOM     30  C   UNL     1       4.872   3.344  18.788  0.00  0.00    +0.000 C 
BRANCH  30  31
ATOM     31  C   UNL     1       3.643   2.469  18.603  0.00  0.00    +0.000 C 
ATOM     32  N   UNL     1       2.623   1.743  18.450  0.00  0.00    +0.000 NA
ENDBRANCH  30  31
ENDBRANCH   8  30
TORSDOF 4
ENDMDL
MODEL 2
REMARK VINA RESULT:      -7.9      3.063     10.724
REMARK  Name = 
REMARK  5 active torsions:
REMARK  status: ('A' for Active; 'I' for Inactive)
REMARK    1  A    between atoms: C_1  and  N_2
REMARK    2  A    between atoms: C_3  and  C_5
REMARK    3  A    between atoms: C_9  and  N_10
REMARK    4  A    between atoms: C_17  and  C_18
REMARK    5  A    between atoms: C_18  and  C_19
REMARK                            x       y       z     vdW  Elec       q    Type
REMARK                         _______ _______ _______ _____ _____    ______ ____
ROOT
ATOM      1  N   UNL     1       0.266  10.178  19.625  0.00  0.00    +0.000 N 
ATOM      2  C   UNL     1       0.189  10.853  20.827  0.00  0.00    +0.000 C 
ATOM      3  O   UNL     1       1.028  10.780  21.723  0.00  0.00    +0.000 OA
ATOM      4  N   UNL     1      -0.960  11.631  20.986  0.00  0.00    +0.000 N 
ATOM      5  C   UNL     1      -1.995  11.807  19.970  0.00  0.00    +0.000 C 
ATOM      6  C   UNL     1      -2.987  12.942  20.234  0.00  0.00    +0.000 C 
ATOM      7  C   UNL     1      -3.552  12.869  21.629  0.00  0.00    +0.000 A 
ATOM      8  C   UNL     1      -4.872  13.261  21.955  0.00  0.00    +0.000 A 
ATOM      9  C   UNL     1      -5.321  13.061  23.273  0.00  0.00    +0.000 A 
ATOM     10  C   UNL     1      -4.475  12.539  24.253  0.00  0.00    +0.000 A 
ATOM     11  C   UNL     1      -3.154  12.232  23.943  0.00  0.00    +0.000 A 
ATOM     12  C   UNL     1      -2.681  12.397  22.636  0.00  0.00    +0.000 A 
ATOM     13  C   UNL     1      -1.220  12.141  22.331  0.00  0.00    +0.000 C 
ATOM     14  H   UNL     1      -0.364  10.459  18.896  0.00  0.00    +0.000 HD
ENDROOT
BRANCH   1  19
ATOM     15  C   UNL     1       3.770   5.329  19.270  0.00  0.00    +0.000 A 
ATOM     16  C   UNL     1       2.830   5.866  20.131  0.00  0.00    +0.000 A 
ATOM     17  C   UNL     1       2.366   7.087  19.585  0.00  0.00    +0.000 A 
ATOM     18  C   UNL     1       1.439   8.047  20.029  0.00  0.00    +0.000 A 
ATOM     19  C   UNL     1       1.189   9.179  19.254  0.00  0.00    +0.000 A 
ATOM     20  C   UNL     1       1.850   9.332  18.025  0.00  0.00    +0.000 A 
ATOM     21  C   UNL     1       2.783   8.390  17.562  0.00  0.00    +0.000 A 
ATOM     22  C   UNL     1       3.023   7.277  18.373  0.00  0.00    +0.000 A 
ATOM     23  N   UNL     1       3.871   6.207  18.209  0.00  0.00    +0.000 N 
ATOM     24  H   UNL     1       4.497   6.067  17.427  0.00  0.00    +0.000 HD
BRANCH  15  27
ATOM     25  C   UNL     1       4.546   1.767  20.046  0.00  0.00    +0.000 C 
ATOM     26  N   UNL     1       3.897   3.034  19.857  0.00  0.00    +0.000 N 
ATOM     27  C   UNL     1       4.565   4.126  19.356  0.00  0.00    +0.000 C 
ATOM     28  O   UNL     1       5.741   4.087  19.007  0.00  0.00    +0.000 OA
ATOM     29  H   UNL     1       2.911   3.107  20.059  0.00  0.00    +0.000 HD
ENDBRANCH  15  27
ENDBRANCH   1  19
BRANCH   8  30
ATOM     30  C   UNL     1      -5.859  13.816  20.935  0.00  0.00    +0.000 C 
BRANCH  30  31
ATOM     31  C   UNL     1      -6.766  12.700  20.444  0.00  0.00    +0.000 C 
ATOM     32  N   UNL     1      -7.518  11.775  20.035  0.00  0.00    +0.000 NA
ENDBRANCH  30  31
ENDBRANCH   8  30
TORSDOF 4
ENDMDL
MODEL 3
REMARK VINA RESULT:      -7.8      2.966     10.594
REMARK  Name = 
REMARK  5 active torsions:
REMARK  status: ('A' for Active; 'I' for Inactive)
REMARK    1  A    between atoms: C_1  and  N_2
REMARK    2  A    between atoms: C_3  and  C_5
REMARK    3  A    between atoms: C_9  and  N_10
REMARK    4  A    between atoms: C_17  and  C_18
REMARK    5  A    between atoms: C_18  and  C_19
REMARK                            x       y       z     vdW  Elec       q    Type
REMARK                         _______ _______ _______ _____ _____    ______ ____
ROOT
ATOM      1  N   UNL     1       0.648   9.580  19.564  0.00  0.00    +0.000 N 
ATOM      2  C   UNL     1       0.577  10.369  20.694  0.00  0.00    +0.000 C 
ATOM      3  O   UNL     1       1.386  10.337  21.620  0.00  0.00    +0.000 OA
ATOM      4  N   UNL     1      -0.531  11.219  20.744  0.00  0.00    +0.000 N 
ATOM      5  C   UNL     1      -1.527  11.352  19.683  0.00  0.00    +0.000 C 
ATOM      6  C   UNL     1      -2.461  12.558  19.809  0.00  0.00    +0.000 C 
ATOM      7  C   UNL     1      -3.066  12.648  21.185  0.00  0.00    +0.000 A 
ATOM      8  C   UNL     1      -4.370  13.139  21.432  0.00  0.00    +0.000 A 
ATOM      9  C   UNL     1      -4.864  13.089  22.747  0.00  0.00    +0.000 A 
ATOM     10  C   UNL     1      -4.075  12.618  23.798  0.00  0.00    +0.000 A 
ATOM     11  C   UNL     1      -2.766  12.214  23.560  0.00  0.00    +0.000 A 
ATOM     12  C   UNL     1      -2.250  12.228  22.259  0.00  0.00    +0.000 A 
ATOM     13  C   UNL     1      -0.798  11.867  22.027  0.00  0.00    +0.000 C 
ATOM     14  H   UNL     1       0.054   9.824  18.792  0.00  0.00    +0.000 HD
ENDROOT
BRANCH   1  19
ATOM     15  C   UNL     1       4.718   5.770  17.366  0.00  0.00    +0.000 A 
ATOM     16  C   UNL     1       4.165   6.995  17.039  0.00  0.00    +0.000 A 
ATOM     17  C   UNL     1       3.221   7.342  18.036  0.00  0.00    +0.000 A 
ATOM     18  C   UNL     1       2.365   8.445  18.206  0.00  0.00    +0.000 A 
ATOM     19  C   UNL     1       1.524   8.503  19.317  0.00  0.00    +0.000 A 
ATOM     20  C   UNL     1       1.562   7.469  20.265  0.00  0.00    +0.000 A 
ATOM     21  C   UNL     1       2.404   6.356  20.115  0.00  0.00    +0.000 A 
ATOM     22  C   UNL     1       3.220   6.321  18.981  0.00  0.00    +0.000 A 
ATOM     23  N   UNL     1       4.127   5.380  18.549  0.00  0.00    +0.000 N 
ATOM     24  H   UNL     1       4.339   4.510  19.020  0.00  0.00    +0.000 HD
BRANCH  15  27
ATOM     25  C   UNL     1       6.343   4.006  14.512  0.00  0.00    +0.000 C 
ATOM     26  N   UNL     1       5.487   4.813  15.336  0.00  0.00    +0.000 N 
ATOM     27  C   UNL     1       5.699   4.956  16.686  0.00  0.00    +0.000 C 
ATOM     28  O   UNL     1       6.644   4.436  17.272  0.00  0.00    +0.000 OA
ATOM     29  H   UNL     1       4.735   5.323  14.896  0.00  0.00    +0.000 HD
ENDBRANCH  15  27
ENDBRANCH   1  19
BRANCH   8  30
ATOM     30  C   UNL     1      -5.297  13.647  20.333  0.00  0.00    +0.000 C 
BRANCH  30  31
ATOM     31  C   UNL     1      -6.374  12.611  20.056  0.00  0.00    +0.000 C 
ATOM     32  N   UNL     1      -7.267  11.751  19.827  0.00  0.00    +0.000 NA
ENDBRANCH  30  31
ENDBRANCH   8  30
TORSDOF 4
ENDMDL
MODEL 4
REMARK VINA RESULT:      -7.6      3.400     11.033
REMARK  Name = 
REMARK  5 active torsions:
REMARK  status: ('A' for Active; 'I' for Inactive)
REMARK    1  A    between atoms: C_1  and  N_2
REMARK    2  A    between atoms: C_3  and  C_5
REMARK    3  A    between atoms: C_9  and  N_10
REMARK    4  A    between atoms: C_17  and  C_18
REMARK    5  A    between atoms: C_18  and  C_19
REMARK                            x       y       z     vdW  Elec       q    Type
REMARK                         _______ _______ _______ _____ _____    ______ ____
ROOT
ATOM      1  N   UNL     1       0.170  10.363  19.817  0.00  0.00    +0.000 N 
ATOM      2  C   UNL     1       0.056  10.913  21.077  0.00  0.00    +0.000 C 
ATOM      3  O   UNL     1       0.826  10.690  22.010  0.00  0.00    +0.000 OA
ATOM      4  N   UNL     1      -1.049  11.751  21.249  0.00  0.00    +0.000 N 
ATOM      5  C   UNL     1      -2.000  12.103  20.197  0.00  0.00    +0.000 C 
ATOM      6  C   UNL     1      -2.933  13.273  20.522  0.00  0.00    +0.000 C 
ATOM      7  C   UNL     1      -3.594  13.097  21.864  0.00  0.00    +0.000 A 
ATOM      8  C   UNL     1      -4.905  13.546  22.150  0.00  0.00    +0.000 A 
ATOM      9  C   UNL     1      -5.453  13.243  23.410  0.00  0.00    +0.000 A 
ATOM     10  C   UNL     1      -4.711  12.564  24.377  0.00  0.00    +0.000 A 
ATOM     11  C   UNL     1      -3.394  12.198  24.116  0.00  0.00    +0.000 A 
ATOM     12  C   UNL     1      -2.824  12.463  22.865  0.00  0.00    +0.000 A 
ATOM     13  C   UNL     1      -1.366  12.137  22.624  0.00  0.00    +0.000 C 
ATOM     14  H   UNL     1      -0.390  10.761  19.085  0.00  0.00    +0.000 HD
ENDROOT
BRANCH   1  19
ATOM     15  C   UNL     1       3.575   5.458  19.293  0.00  0.00    +0.000 A 
ATOM     16  C   UNL     1       2.708   6.023  20.212  0.00  0.00    +0.000 A 
ATOM     17  C   UNL     1       2.221   7.241  19.679  0.00  0.00    +0.000 A 
ATOM     18  C   UNL     1       1.342   8.221  20.172  0.00  0.00    +0.000 A 
ATOM     19  C   UNL     1       1.051   9.344  19.397  0.00  0.00    +0.000 A 
ATOM     20  C   UNL     1       1.621   9.466  18.121  0.00  0.00    +0.000 A 
ATOM     21  C   UNL     1       2.505   8.504  17.608  0.00  0.00    +0.000 A 
ATOM     22  C   UNL     1       2.789   7.401  18.419  0.00  0.00    +0.000 A 
ATOM     23  N   UNL     1       3.609   6.316  18.213  0.00  0.00    +0.000 N 
ATOM     24  H   UNL     1       4.174   6.154  17.389  0.00  0.00    +0.000 HD
BRANCH  15  27
ATOM     25  C   UNL     1       4.235   1.795  19.489  0.00  0.00    +0.000 C 
ATOM     26  N   UNL     1       3.618   3.089  19.397  0.00  0.00    +0.000 N 
ATOM     27  C   UNL     1       4.358   4.245  19.343  0.00  0.00    +0.000 C 
ATOM     28  O   UNL     1       5.585   4.253  19.335  0.00  0.00    +0.000 OA
ATOM     29  H   UNL     1       2.612   3.140  19.327  0.00  0.00    +0.000 HD
ENDBRANCH  15  27
ENDBRANCH   1  19
BRANCH   8  30
ATOM     30  C   UNL     1      -5.783  14.271  21.138  0.00  0.00    +0.000 C 
BRANCH  30  31
ATOM     31  C   UNL     1      -6.556  15.379  21.835  0.00  0.00    +0.000 C 
ATOM     32  N   UNL     1      -7.197  16.297  22.414  0.00  0.00    +0.000 NA
ENDBRANCH  30  31
ENDBRANCH   8  30
TORSDOF 4
ENDMDL
MODEL 5
REMARK VINA RESULT:      -7.6      3.103     10.805
REMARK  Name = 
REMARK  5 active torsions:
REMARK  status: ('A' for Active; 'I' for Inactive)
REMARK    1  A    between atoms: C_1  and  N_2
REMARK    2  A    between atoms: C_3  and  C_5
REMARK    3  A    between atoms: C_9  and  N_10
REMARK    4  A    between atoms: C_17  and  C_18
REMARK    5  A    between atoms: C_18  and  C_19
REMARK                            x       y       z     vdW  Elec       q    Type
REMARK                         _______ _______ _______ _____ _____    ______ ____
ROOT
ATOM      1  N   UNL     1       0.720   9.608  19.600  0.00  0.00    +0.000 N 
ATOM      2  C   UNL     1       0.625  10.340  20.765  0.00  0.00    +0.000 C 
ATOM      3  O   UNL     1       1.394  10.237  21.720  0.00  0.00    +0.000 OA
ATOM      4  N   UNL     1      -0.458  11.222  20.813  0.00  0.00    +0.000 N 
ATOM      5  C   UNL     1      -1.404  11.439  19.722  0.00  0.00    +0.000 C 
ATOM      6  C   UNL     1      -2.307  12.667  19.871  0.00  0.00    +0.000 C 
ATOM      7  C   UNL     1      -2.966  12.707  21.225  0.00  0.00    +0.000 A 
ATOM      8  C   UNL     1      -4.265  13.226  21.443  0.00  0.00    +0.000 A 
ATOM      9  C   UNL     1      -4.815  13.125  22.733  0.00  0.00    +0.000 A 
ATOM     10  C   UNL     1      -4.085  12.578  23.789  0.00  0.00    +0.000 A 
ATOM     11  C   UNL     1      -2.779  12.144  23.584  0.00  0.00    +0.000 A 
ATOM     12  C   UNL     1      -2.208  12.208  22.308  0.00  0.00    +0.000 A 
ATOM     13  C   UNL     1      -0.759  11.813  22.116  0.00  0.00    +0.000 C 
ATOM     14  H   UNL     1       0.167   9.909  18.818  0.00  0.00    +0.000 HD
ENDROOT
BRANCH   1  19
ATOM     15  C   UNL     1       4.707   5.751  17.331  0.00  0.00    +0.000 A 
ATOM     16  C   UNL     1       4.178   6.992  17.024  0.00  0.00    +0.000 A 
ATOM     17  C   UNL     1       3.243   7.342  18.029  0.00  0.00    +0.000 A 
ATOM     18  C   UNL     1       2.411   8.459  18.219  0.00  0.00    +0.000 A 
ATOM     19  C   UNL     1       1.574   8.517  19.334  0.00  0.00    +0.000 A 
ATOM     20  C   UNL     1       1.593   7.468  20.265  0.00  0.00    +0.000 A 
ATOM     21  C   UNL     1       2.412   6.341  20.096  0.00  0.00    +0.000 A 
ATOM     22  C   UNL     1       3.224   6.306  18.959  0.00  0.00    +0.000 A 
ATOM     23  N   UNL     1       4.111   5.354  18.510  0.00  0.00    +0.000 N 
ATOM     24  H   UNL     1       4.307   4.473  18.966  0.00  0.00    +0.000 HD
BRANCH  15  27
ATOM     25  C   UNL     1       6.272   3.975  14.451  0.00  0.00    +0.000 C 
ATOM     26  N   UNL     1       5.436   4.790  15.288  0.00  0.00    +0.000 N 
ATOM     27  C   UNL     1       5.669   4.927  16.635  0.00  0.00    +0.000 C 
ATOM     28  O   UNL     1       6.617   4.397  17.207  0.00  0.00    +0.000 OA
ATOM     29  H   UNL     1       4.683   5.308  14.860  0.00  0.00    +0.000 HD
ENDBRANCH  15  27
ENDBRANCH   1  19
BRANCH   8  30
ATOM     30  C   UNL     1      -5.129  13.817  20.335  0.00  0.00    +0.000 C 
BRANCH  30  31
ATOM     31  C   UNL     1      -5.284  15.313  20.553  0.00  0.00    +0.000 C 
ATOM     32  N   UNL     1      -5.414  16.553  20.734  0.00  0.00    +0.000 NA
ENDBRANCH  30  31
ENDBRANCH   8  30
TORSDOF 4
ENDMDL
MODEL 6
REMARK VINA RESULT:      -7.6      3.817     10.767
REMARK  Name = 
REMARK  5 active torsions:
REMARK  status: ('A' for Active; 'I' for Inactive)
REMARK    1  A    between atoms: C_1  and  N_2
REMARK    2  A    between atoms: C_3  and  C_5
REMARK    3  A    between atoms: C_9  and  N_10
REMARK    4  A    between atoms: C_17  and  C_18
REMARK    5  A    between atoms: C_18  and  C_19
REMARK                            x       y       z     vdW  Elec       q    Type
REMARK                         _______ _______ _______ _____ _____    ______ ____
ROOT
ATOM      1  N   UNL     1      -0.162  10.587  20.533  0.00  0.00    +0.000 N 
ATOM      2  C   UNL     1       0.219  11.791  21.089  0.00  0.00    +0.000 C 
ATOM      3  O   UNL     1       1.385  12.137  21.272  0.00  0.00    +0.000 OA
ATOM      4  N   UNL     1      -0.840  12.615  21.477  0.00  0.00    +0.000 N 
ATOM      5  C   UNL     1      -2.254  12.308  21.272  0.00  0.00    +0.000 C 
ATOM      6  C   UNL     1      -3.216  13.480  21.479  0.00  0.00    +0.000 C 
ATOM      7  C   UNL     1      -2.960  14.182  22.787  0.00  0.00    +0.000 A 
ATOM      8  C   UNL     1      -3.982  14.776  23.565  0.00  0.00    +0.000 A 
ATOM      9  C   UNL     1      -3.638  15.321  24.815  0.00  0.00    +0.000 A 
ATOM     10  C   UNL     1      -2.316  15.328  25.260  0.00  0.00    +0.000 A 
ATOM     11  C   UNL     1      -1.304  14.815  24.454  0.00  0.00    +0.000 A 
ATOM     12  C   UNL     1      -1.615  14.243  23.214  0.00  0.00    +0.000 A 
ATOM     13  C   UNL     1      -0.498  13.766  22.310  0.00  0.00    +0.000 C 
ATOM     14  H   UNL     1      -1.121  10.490  20.251  0.00  0.00    +0.000 HD
ENDROOT
BRANCH   1  19
ATOM     15  C   UNL     1       3.519   6.586  18.011  0.00  0.00    +0.000 A 
ATOM     16  C   UNL     1       2.945   7.805  17.698  0.00  0.00    +0.000 A 
ATOM     17  C   UNL     1       2.149   8.220  18.793  0.00  0.00    +0.000 A 
ATOM     18  C   UNL     1       1.341   9.348  19.019  0.00  0.00    +0.000 A 
ATOM     19  C   UNL     1       0.656   9.479  20.227  0.00  0.00    +0.000 A 
ATOM     20  C   UNL     1       0.806   8.493  21.214  0.00  0.00    +0.000 A 
ATOM     21  C   UNL     1       1.603   7.356  21.011  0.00  0.00    +0.000 A 
ATOM     22  C   UNL     1       2.259   7.247  19.781  0.00  0.00    +0.000 A 
ATOM     23  N   UNL     1       3.086   6.267  19.282  0.00  0.00    +0.000 N 
ATOM     24  H   UNL     1       3.347   5.416  19.764  0.00  0.00    +0.000 HD
BRANCH  15  27
ATOM     25  C   UNL     1       5.719   5.533  15.192  0.00  0.00    +0.000 C 
ATOM     26  N   UNL     1       4.872   6.270  16.089  0.00  0.00    +0.000 N 
ATOM     27  C   UNL     1       4.388   5.717  17.250  0.00  0.00    +0.000 C 
ATOM     28  O   UNL     1       4.668   4.580  17.617  0.00  0.00    +0.000 OA
ATOM     29  H   UNL     1       4.666   7.234  15.875  0.00  0.00    +0.000 HD
ENDBRANCH  15  27
ENDBRANCH   1  19
BRANCH   8  30
ATOM     30  C   UNL     1      -5.450  14.786  23.154  0.00  0.00    +0.000 C 
BRANCH  30  31
ATOM     31  C   UNL     1      -6.109  13.487  23.587  0.00  0.00    +0.000 C 
ATOM     32  N   UNL     1      -6.655  12.409  23.947  0.00  0.00    +0.000 NA
ENDBRANCH  30  31
ENDBRANCH   8  30
TORSDOF 4
ENDMDL
MODEL 7
REMARK VINA RESULT:      -7.5      7.230     10.598
REMARK  Name = 
REMARK  5 active torsions:
REMARK  status: ('A' for Active; 'I' for Inactive)
REMARK    1  A    between atoms: C_1  and  N_2
REMARK    2  A    between atoms: C_3  and  C_5
REMARK    3  A    between atoms: C_9  and  N_10
REMARK    4  A    between atoms: C_17  and  C_18
REMARK    5  A    between atoms: C_18  and  C_19
REMARK                            x       y       z     vdW  Elec       q    Type
REMARK                         _______ _______ _______ _____ _____    ______ ____
ROOT
ATOM      1  N   UNL     1       7.362   8.505  17.412  0.00  0.00    +0.000 N 
ATOM      2  C   UNL     1       8.375   8.809  18.299  0.00  0.00    +0.000 C 
ATOM      3  O   UNL     1       8.938   7.990  19.024  0.00  0.00    +0.000 OA
ATOM      4  N   UNL     1       8.718  10.162  18.350  0.00  0.00    +0.000 N 
ATOM      5  C   UNL     1       8.133  11.203  17.508  0.00  0.00    +0.000 C 
ATOM      6  C   UNL     1       8.876  12.541  17.508  0.00  0.00    +0.000 C 
ATOM      7  C   UNL     1       9.155  13.020  18.909  0.00  0.00    +0.000 A 
ATOM      8  C   UNL     1       9.172  14.386  19.276  0.00  0.00    +0.000 A 
ATOM      9  C   UNL     1       9.351  14.710  20.632  0.00  0.00    +0.000 A 
ATOM     10  C   UNL     1       9.560  13.717  21.591  0.00  0.00    +0.000 A 
ATOM     11  C   UNL     1       9.624  12.381  21.209  0.00  0.00    +0.000 A 
ATOM     12  C   UNL     1       9.426  12.021  19.871  0.00  0.00    +0.000 A 
ATOM     13  C   UNL     1       9.583  10.573  19.455  0.00  0.00    +0.000 C 
ATOM     14  H   UNL     1       7.114   9.204  16.736  0.00  0.00    +0.000 HD
ENDROOT
BRANCH   1  19
ATOM     15  C   UNL     1       3.413   3.999  17.562  0.00  0.00    +0.000 A 
ATOM     16  C   UNL     1       3.510   5.306  18.006  0.00  0.00    +0.000 A 
ATOM     17  C   UNL     1       4.766   5.823  17.608  0.00  0.00    +0.000 A 
ATOM     18  C   UNL     1       5.395   7.067  17.796  0.00  0.00    +0.000 A 
ATOM     19  C   UNL     1       6.672   7.282  17.276  0.00  0.00    +0.000 A 
ATOM     20  C   UNL     1       7.302   6.260  16.550  0.00  0.00    +0.000 A 
ATOM     21  C   UNL     1       6.696   5.009  16.353  0.00  0.00    +0.000 A 
ATOM     22  C   UNL     1       5.425   4.821  16.903  0.00  0.00    +0.000 A 
ATOM     23  N   UNL     1       4.591   3.727  16.896  0.00  0.00    +0.000 N 
ATOM     24  H   UNL     1       4.798   2.832  16.471  0.00  0.00    +0.000 HD
BRANCH  15  27
ATOM     25  C   UNL     1       0.433   2.355  19.083  0.00  0.00    +0.000 C 
ATOM     26  N   UNL     1       1.507   3.253  18.762  0.00  0.00    +0.000 N 
ATOM     27  C   UNL     1       2.367   3.015  17.716  0.00  0.00    +0.000 C 
ATOM     28  O   UNL     1       2.258   2.047  16.969  0.00  0.00    +0.000 OA
ATOM     29  H   UNL     1       1.602   4.104  19.297  0.00  0.00    +0.000 HD
ENDBRANCH  15  27
ENDBRANCH   1  19
BRANCH   8  30
ATOM     30  C   UNL     1       8.928  15.522  18.290  0.00  0.00    +0.000 C 
BRANCH  30  31
ATOM     31  C   UNL     1      10.234  15.895  17.608  0.00  0.00    +0.000 C 
ATOM     32  N   UNL     1      11.317  16.205  17.042  0.00  0.00    +0.000 NA
ENDBRANCH  30  31
ENDBRANCH   8  30
TORSDOF 4
ENDMDL
MODEL 8
REMARK VINA RESULT:      -7.5      3.319     10.438
REMARK  Name = 
REMARK  5 active torsions:
REMARK  status: ('A' for Active; 'I' for Inactive)
REMARK    1  A    between atoms: C_1  and  N_2
REMARK    2  A    between atoms: C_3  and  C_5
REMARK    3  A    between atoms: C_9  and  N_10
REMARK    4  A    between atoms: C_17  and  C_18
REMARK    5  A    between atoms: C_18  and  C_19
REMARK                            x       y       z     vdW  Elec       q    Type
REMARK                         _______ _______ _______ _____ _____    ______ ____
ROOT
ATOM      1  N   UNL     1       1.375   8.713  19.715  0.00  0.00    +0.000 N 
ATOM      2  C   UNL     1       0.542   9.618  19.090  0.00  0.00    +0.000 C 
ATOM      3  O   UNL     1       0.309   9.635  17.882  0.00  0.00    +0.000 OA
ATOM      4  N   UNL     1      -0.020  10.576  19.938  0.00  0.00    +0.000 N 
ATOM      5  C   UNL     1       0.169  10.620  21.386  0.00  0.00    +0.000 C 
ATOM      6  C   UNL     1      -0.785  11.547  22.144  0.00  0.00    +0.000 C 
ATOM      7  C   UNL     1      -0.833  12.919  21.524  0.00  0.00    +0.000 A 
ATOM      8  C   UNL     1      -1.015  14.105  22.274  0.00  0.00    +0.000 A 
ATOM      9  C   UNL     1      -0.949  15.337  21.598  0.00  0.00    +0.000 A 
ATOM     10  C   UNL     1      -0.761  15.395  20.217  0.00  0.00    +0.000 A 
ATOM     11  C   UNL     1      -0.664  14.221  19.476  0.00  0.00    +0.000 A 
ATOM     12  C   UNL     1      -0.703  12.978  20.118  0.00  0.00    +0.000 A 
ATOM     13  C   UNL     1      -0.682  11.709  19.293  0.00  0.00    +0.000 C 
ATOM     14  H   UNL     1       1.339   8.667  20.717  0.00  0.00    +0.000 HD
ENDROOT
BRANCH   1  19
ATOM     15  C   UNL     1       5.259   5.753  16.241  0.00  0.00    +0.000 A 
ATOM     16  C   UNL     1       4.683   7.009  16.312  0.00  0.00    +0.000 A 
ATOM     17  C   UNL     1       3.819   7.044  17.434  0.00  0.00    +0.000 A 
ATOM     18  C   UNL     1       2.981   8.037  17.970  0.00  0.00    +0.000 A 
ATOM     19  C   UNL     1       2.227   7.765  19.112  0.00  0.00    +0.000 A 
ATOM     20  C   UNL     1       2.337   6.508  19.726  0.00  0.00    +0.000 A 
ATOM     21  C   UNL     1       3.164   5.499  19.208  0.00  0.00    +0.000 A 
ATOM     22  C   UNL     1       3.890   5.799  18.052  0.00  0.00    +0.000 A 
ATOM     23  N   UNL     1       4.760   5.035  17.308  0.00  0.00    +0.000 N 
ATOM     24  H   UNL     1       5.007   4.073  17.498  0.00  0.00    +0.000 HD
BRANCH  15  27
ATOM     25  C   UNL     1       6.372   3.719  13.322  0.00  0.00    +0.000 C 
ATOM     26  N   UNL     1       5.597   4.396  14.324  0.00  0.00    +0.000 N 
ATOM     27  C   UNL     1       6.183   5.181  15.289  0.00  0.00    +0.000 C 
ATOM     28  O   UNL     1       7.392   5.385  15.340  0.00  0.00    +0.000 OA
ATOM     29  H   UNL     1       4.591   4.324  14.288  0.00  0.00    +0.000 HD
ENDBRANCH  15  27
ENDBRANCH   1  19
BRANCH   8  30
ATOM     30  C   UNL     1      -1.202  14.122  23.786  0.00  0.00    +0.000 C 
BRANCH  30  31
ATOM     31  C   UNL     1      -2.618  14.560  24.120  0.00  0.00    +0.000 C 
ATOM     32  N   UNL     1      -3.792  14.925  24.398  0.00  0.00    +0.000 NA
ENDBRANCH  30  31
ENDBRANCH   8  30
TORSDOF 4
ENDMDL
MODEL 9
REMARK VINA RESULT:      -7.5      7.261     10.605
REMARK  Name = 
REMARK  5 active torsions:
REMARK  status: ('A' for Active; 'I' for Inactive)
REMARK    1  A    between atoms: C_1  and  N_2
REMARK    2  A    between atoms: C_3  and  C_5
REMARK    3  A    between atoms: C_9  and  N_10
REMARK    4  A    between atoms: C_17  and  C_18
REMARK    5  A    between atoms: C_18  and  C_19
REMARK                            x       y       z     vdW  Elec       q    Type
REMARK                         _______ _______ _______ _____ _____    ______ ____
ROOT
ATOM      1  N   UNL     1       7.436   8.538  17.430  0.00  0.00    +0.000 N 
ATOM      2  C   UNL     1       8.406   8.901  18.342  0.00  0.00    +0.000 C 
ATOM      3  O   UNL     1       8.952   8.127  19.127  0.00  0.00    +0.000 OA
ATOM      4  N   UNL     1       8.724  10.261  18.344  0.00  0.00    +0.000 N 
ATOM      5  C   UNL     1       8.157  11.251  17.431  0.00  0.00    +0.000 C 
ATOM      6  C   UNL     1       8.876  12.602  17.399  0.00  0.00    +0.000 C 
ATOM      7  C   UNL     1       9.089  13.149  18.786  0.00  0.00    +0.000 A 
ATOM      8  C   UNL     1       9.068  14.531  19.089  0.00  0.00    +0.000 A 
ATOM      9  C   UNL     1       9.185  14.920  20.435  0.00  0.00    +0.000 A 
ATOM     10  C   UNL     1       9.372  13.977  21.446  0.00  0.00    +0.000 A 
ATOM     11  C   UNL     1       9.473  12.626  21.131  0.00  0.00    +0.000 A 
ATOM     12  C   UNL     1       9.337  12.201  19.804  0.00  0.00    +0.000 A 
ATOM     13  C   UNL     1       9.535  10.739  19.463  0.00  0.00    +0.000 C 
ATOM     14  H   UNL     1       7.204   9.200  16.713  0.00  0.00    +0.000 HD
ENDROOT
BRANCH   1  19
ATOM     15  C   UNL     1       3.535   3.990  17.563  0.00  0.00    +0.000 A 
ATOM     16  C   UNL     1       3.579   5.326  17.918  0.00  0.00    +0.000 A 
ATOM     17  C   UNL     1       4.860   5.835  17.595  0.00  0.00    +0.000 A 
ATOM     18  C   UNL     1       5.458   7.098  17.745  0.00  0.00    +0.000 A 
ATOM     19  C   UNL     1       6.773   7.297  17.324  0.00  0.00    +0.000 A 
ATOM     20  C   UNL     1       7.474   6.236  16.731  0.00  0.00    +0.000 A 
ATOM     21  C   UNL     1       6.901   4.965  16.573  0.00  0.00    +0.000 A 
ATOM     22  C   UNL     1       5.588   4.796  17.023  0.00  0.00    +0.000 A 
ATOM     23  N   UNL     1       4.769   3.690  17.023  0.00  0.00    +0.000 N 
ATOM     24  H   UNL     1       5.021   2.771  16.683  0.00  0.00    +0.000 HD
BRANCH  15  27
ATOM     25  C   UNL     1       0.471   2.390  18.960  0.00  0.00    +0.000 C 
ATOM     26  N   UNL     1       1.558   3.283  18.667  0.00  0.00    +0.000 N 
ATOM     27  C   UNL     1       2.489   3.002  17.697  0.00  0.00    +0.000 C 
ATOM     28  O   UNL     1       2.441   1.995  16.996  0.00  0.00    +0.000 OA
ATOM     29  H   UNL     1       1.608   4.162  19.162  0.00  0.00    +0.000 HD
ENDBRANCH  15  27
ENDBRANCH   1  19
BRANCH   8  30
ATOM     30  C   UNL     1       8.845  15.616  18.042  0.00  0.00    +0.000 C 
BRANCH  30  31
ATOM     31  C   UNL     1       7.798  16.599  18.541  0.00  0.00    +0.000 C 
ATOM     32  N   UNL     1       6.930  17.413  18.955  0.00  0.00    +0.000 NA
ENDBRANCH  30  31
ENDBRANCH   8  30
TORSDOF 4
ENDMDL
