MODEL 1
REMARK VINA RESULT:      -8.6      0.000      0.000
REMARK  Name = 
REMARK  2 active torsions:
REMARK  status: ('A' for Active; 'I' for Inactive)
REMARK    1  A    between atoms: C_6  and  C_7
REMARK    2  A    between atoms: C_14  and  C_15
REMARK                            x       y       z     vdW  Elec       q    Type
REMARK                         _______ _______ _______ _____ _____    ______ ____
ROOT
ATOM      1  C   UNL     1       4.780   4.578  17.766  0.00  0.00    +0.000 C 
ATOM      2  O   UNL     1       3.924   3.989  17.107  0.00  0.00    +0.000 OA
ATOM      3  N   UNL     1       4.513   5.295  18.918  0.00  0.00    +0.000 N 
ATOM      4  C   UNL     1       3.245   5.323  19.506  0.00  0.00    +0.000 A 
ATOM      5  C   UNL     1       2.508   4.158  19.675  0.00  0.00    +0.000 A 
ATOM      6  C   UNL     1       1.245   4.247  20.242  0.00  0.00    +0.000 A 
ATOM      7  C   UNL     1       0.748   5.497  20.588  0.00  0.00    +0.000 A 
ATOM      8  C   UNL     1       1.549   6.626  20.404  0.00  0.00    +0.000 A 
ATOM      9  N   UNL     1       2.814   6.534  19.908  0.00  0.00    +0.000 NA
ATOM     10  H   UNL     1       5.073   6.115  19.104  0.00  0.00    +0.000 HD
ENDROOT
BRANCH   8  11
ATOM     11  C   UNL     1       1.060   7.994  20.688  0.00  0.00    +0.000 A 
ATOM     12  C   UNL     1       1.262   9.040  19.750  0.00  0.00    +0.000 A 
ATOM     13  C   UNL     1       0.798  10.341  19.979  0.00  0.00    +0.000 A 
ATOM     14  C   UNL     1       0.120  10.585  21.151  0.00  0.00    +0.000 A 
ATOM     15  C   UNL     1      -0.093   9.590  22.087  0.00  0.00    +0.000 A 
ATOM     16  C   UNL     1       0.372   8.301  21.880  0.00  0.00    +0.000 A 
ATOM     17  C   UNL     1      -0.772  10.167  23.268  0.00  0.00    +0.000 C 
ATOM     18  C   UNL     1      -1.219  11.498  22.660  0.00  0.00    +0.000 C 
ATOM     19  O   UNL     1      -0.383  11.805  21.520  0.00  0.00    +0.000 OA
ENDBRANCH   8  11
BRANCH   1  25
ATOM     20  O   UNL     1       8.576   5.177  19.961  0.00  0.00    +0.000 OA
ATOM     21  C   UNL     1       7.936   5.430  18.937  0.00  0.00    +0.000 C 
ATOM     22  C   UNL     1       8.000   6.783  18.270  0.00  0.00    +0.000 C 
ATOM     23  C   UNL     1       6.862   7.069  17.303  0.00  0.00    +0.000 C 
ATOM     24  C   UNL     1       6.544   5.863  16.430  0.00  0.00    +0.000 C 
ATOM     25  C   UNL     1       6.244   4.626  17.274  0.00  0.00    +0.000 C 
ATOM     26  N   UNL     1       7.213   4.446  18.340  0.00  0.00    +0.000 N 
ATOM     27  H   UNL     1       7.227   3.561  18.837  0.00  0.00    +0.000 HD
ENDBRANCH   1  25
TORSDOF 2
ENDMDL
MODEL 2
REMARK VINA RESULT:      -8.6      0.998      1.047
REMARK  Name = 
REMARK  2 active torsions:
REMARK  status: ('A' for Active; 'I' for Inactive)
REMARK    1  A    between atoms: C_6  and  C_7
REMARK    2  A    between atoms: C_14  and  C_15
REMARK                            x       y       z     vdW  Elec       q    Type
REMARK                         _______ _______ _______ _____ _____    ______ ____
ROOT
ATOM      1  C   UNL     1       3.980   4.379  17.155  0.00  0.00    +0.000 C 
ATOM      2  O   UNL     1       3.026   3.625  16.971  0.00  0.00    +0.000 OA
ATOM      3  N   UNL     1       4.056   5.296  18.188  0.00  0.00    +0.000 N 
ATOM      4  C   UNL     1       3.087   5.372  19.194  0.00  0.00    +0.000 A 
ATOM      5  C   UNL     1       2.609   4.226  19.816  0.00  0.00    +0.000 A 
ATOM      6  C   UNL     1       1.631   4.358  20.791  0.00  0.00    +0.000 A 
ATOM      7  C   UNL     1       1.140   5.624  21.085  0.00  0.00    +0.000 A 
ATOM      8  C   UNL     1       1.677   6.735  20.431  0.00  0.00    +0.000 A 
ATOM      9  N   UNL     1       2.682   6.614  19.521  0.00  0.00    +0.000 NA
ATOM     10  H   UNL     1       4.539   6.166  18.012  0.00  0.00    +0.000 HD
ENDROOT
BRANCH   8  11
ATOM     11  C   UNL     1       1.155   8.104  20.647  0.00  0.00    +0.000 A 
ATOM     12  C   UNL     1       1.333   9.106  19.657  0.00  0.00    +0.000 A 
ATOM     13  C   UNL     1       0.839  10.406  19.821  0.00  0.00    +0.000 A 
ATOM     14  C   UNL     1       0.155  10.692  20.980  0.00  0.00    +0.000 A 
ATOM     15  C   UNL     1      -0.036   9.740  21.965  0.00  0.00    +0.000 A 
ATOM     16  C   UNL     1       0.459   8.453  21.822  0.00  0.00    +0.000 A 
ATOM     17  C   UNL     1      -0.730  10.359  23.115  0.00  0.00    +0.000 C 
ATOM     18  C   UNL     1      -1.206  11.647  22.442  0.00  0.00    +0.000 C 
ATOM     19  O   UNL     1      -0.377  11.917  21.288  0.00  0.00    +0.000 OA
ENDBRANCH   8  11
BRANCH   1  25
ATOM     20  O   UNL     1       8.354   4.100  17.773  0.00  0.00    +0.000 OA
ATOM     21  C   UNL     1       7.442   4.643  17.142  0.00  0.00    +0.000 C 
ATOM     22  C   UNL     1       7.496   6.102  16.760  0.00  0.00    +0.000 C 
ATOM     23  C   UNL     1       6.154   6.709  16.380  0.00  0.00    +0.000 C 
ATOM     24  C   UNL     1       5.340   5.774  15.497  0.00  0.00    +0.000 C 
ATOM     25  C   UNL     1       5.155   4.407  16.151  0.00  0.00    +0.000 C 
ATOM     26  N   UNL     1       6.395   3.895  16.705  0.00  0.00    +0.000 N 
ATOM     27  H   UNL     1       6.433   2.921  16.988  0.00  0.00    +0.000 HD
ENDBRANCH   1  25
TORSDOF 2
ENDMDL
MODEL 3
REMARK VINA RESULT:      -8.4      3.035      8.927
REMARK  Name = 
REMARK  2 active torsions:
REMARK  status: ('A' for Active; 'I' for Inactive)
REMARK    1  A    between atoms: C_6  and  C_7
REMARK    2  A    between atoms: C_14  and  C_15
REMARK                            x       y       z     vdW  Elec       q    Type
REMARK                         _______ _______ _______ _____ _____    ______ ____
ROOT
ATOM      1  C   UNL     1      -0.619  11.214  21.356  0.00  0.00    +0.000 C 
ATOM      2  O   UNL     1      -1.410  11.223  20.416  0.00  0.00    +0.000 OA
ATOM      3  N   UNL     1       0.589  10.540  21.346  0.00  0.00    +0.000 N 
ATOM      4  C   UNL     1       1.074   9.890  20.207  0.00  0.00    +0.000 A 
ATOM      5  C   UNL     1       1.038  10.504  18.962  0.00  0.00    +0.000 A 
ATOM      6  C   UNL     1       1.511   9.804  17.862  0.00  0.00    +0.000 A 
ATOM      7  C   UNL     1       1.969   8.504  18.036  0.00  0.00    +0.000 A 
ATOM      8  C   UNL     1       1.991   7.953  19.319  0.00  0.00    +0.000 A 
ATOM      9  N   UNL     1       1.588   8.661  20.410  0.00  0.00    +0.000 NA
ATOM     10  H   UNL     1       0.919  10.149  22.218  0.00  0.00    +0.000 HD
ENDROOT
BRANCH   8  11
ATOM     11  C   UNL     1       2.402   6.553  19.569  0.00  0.00    +0.000 A 
ATOM     12  C   UNL     1       3.533   6.006  18.907  0.00  0.00    +0.000 A 
ATOM     13  C   UNL     1       3.959   4.692  19.132  0.00  0.00    +0.000 A 
ATOM     14  C   UNL     1       3.251   3.931  20.034  0.00  0.00    +0.000 A 
ATOM     15  C   UNL     1       2.145   4.432  20.696  0.00  0.00    +0.000 A 
ATOM     16  C   UNL     1       1.704   5.727  20.473  0.00  0.00    +0.000 A 
ATOM     17  C   UNL     1       1.551   3.366  21.532  0.00  0.00    +0.000 C 
ATOM     18  C   UNL     1       2.712   2.370  21.508  0.00  0.00    +0.000 C 
ATOM     19  O   UNL     1       3.539   2.630  20.351  0.00  0.00    +0.000 OA
ENDBRANCH   8  11
BRANCH   1  25
ATOM     20  O   UNL     1      -4.541  12.218  23.144  0.00  0.00    +0.000 OA
ATOM     21  C   UNL     1      -3.379  12.588  22.953  0.00  0.00    +0.000 C 
ATOM     22  C   UNL     1      -3.039  14.029  22.662  0.00  0.00    +0.000 C 
ATOM     23  C   UNL     1      -1.667  14.245  22.041  0.00  0.00    +0.000 C 
ATOM     24  C   UNL     1      -0.603  13.386  22.709  0.00  0.00    +0.000 C 
ATOM     25  C   UNL     1      -0.984  11.908  22.688  0.00  0.00    +0.000 C 
ATOM     26  N   UNL     1      -2.363  11.695  23.086  0.00  0.00    +0.000 N 
ATOM     27  H   UNL     1      -2.666  10.749  23.295  0.00  0.00    +0.000 HD
ENDBRANCH   1  25
TORSDOF 2
ENDMDL
MODEL 4
REMARK VINA RESULT:      -8.3      2.733      4.356
REMARK  Name = 
REMARK  2 active torsions:
REMARK  status: ('A' for Active; 'I' for Inactive)
REMARK    1  A    between atoms: C_6  and  C_7
REMARK    2  A    between atoms: C_14  and  C_15
REMARK                            x       y       z     vdW  Elec       q    Type
REMARK                         _______ _______ _______ _____ _____    ______ ____
ROOT
ATOM      1  C   UNL     1       3.334   5.324  19.883  0.00  0.00    +0.000 C 
ATOM      2  O   UNL     1       4.372   5.848  19.484  0.00  0.00    +0.000 OA
ATOM      3  N   UNL     1       2.113   5.971  19.942  0.00  0.00    +0.000 N 
ATOM      4  C   UNL     1       1.925   7.264  19.444  0.00  0.00    +0.000 A 
ATOM      5  C   UNL     1       2.423   7.632  18.201  0.00  0.00    +0.000 A 
ATOM      6  C   UNL     1       2.229   8.934  17.766  0.00  0.00    +0.000 A 
ATOM      7  C   UNL     1       1.576   9.833  18.601  0.00  0.00    +0.000 A 
ATOM      8  C   UNL     1       1.088   9.392  19.833  0.00  0.00    +0.000 A 
ATOM      9  N   UNL     1       1.221   8.097  20.234  0.00  0.00    +0.000 NA
ATOM     10  H   UNL     1       1.482   5.721  20.691  0.00  0.00    +0.000 HD
ENDROOT
BRANCH   8  11
ATOM     11  C   UNL     1       0.443  10.309  20.799  0.00  0.00    +0.000 A 
ATOM     12  C   UNL     1      -0.161   9.803  21.980  0.00  0.00    +0.000 A 
ATOM     13  C   UNL     1      -0.765  10.643  22.923  0.00  0.00    +0.000 A 
ATOM     14  C   UNL     1      -0.750  11.998  22.680  0.00  0.00    +0.000 A 
ATOM     15  C   UNL     1      -0.171  12.525  21.540  0.00  0.00    +0.000 A 
ATOM     16  C   UNL     1       0.419  11.703  20.592  0.00  0.00    +0.000 A 
ATOM     17  C   UNL     1      -0.380  13.989  21.518  0.00  0.00    +0.000 C 
ATOM     18  C   UNL     1      -0.805  14.191  22.974  0.00  0.00    +0.000 C 
ATOM     19  O   UNL     1      -1.307  12.942  23.501  0.00  0.00    +0.000 OA
ENDBRANCH   8  11
BRANCH   1  25
ATOM     20  O   UNL     1       3.649   1.402  17.855  0.00  0.00    +0.000 OA
ATOM     21  C   UNL     1       3.115   2.044  18.765  0.00  0.00    +0.000 C 
ATOM     22  C   UNL     1       1.671   1.834  19.148  0.00  0.00    +0.000 C 
ATOM     23  C   UNL     1       1.060   2.963  19.964  0.00  0.00    +0.000 C 
ATOM     24  C   UNL     1       2.013   3.463  21.040  0.00  0.00    +0.000 C 
ATOM     25  C   UNL     1       3.355   3.885  20.445  0.00  0.00    +0.000 C 
ATOM     26  N   UNL     1       3.864   2.907  19.501  0.00  0.00    +0.000 N 
ATOM     27  H   UNL     1       4.828   2.987  19.194  0.00  0.00    +0.000 HD
ENDBRANCH   1  25
TORSDOF 2
ENDMDL
MODEL 5
REMARK VINA RESULT:      -8.3      1.187      1.898
REMARK  Name = 
REMARK  2 active torsions:
REMARK  status: ('A' for Active; 'I' for Inactive)
REMARK    1  A    between atoms: C_6  and  C_7
REMARK    2  A    between atoms: C_14  and  C_15
REMARK                            x       y       z     vdW  Elec       q    Type
REMARK                         _______ _______ _______ _____ _____    ______ ____
ROOT
ATOM      1  C   UNL     1       3.964   4.349  17.148  0.00  0.00    +0.000 C 
ATOM      2  O   UNL     1       2.975   3.643  16.964  0.00  0.00    +0.000 OA
ATOM      3  N   UNL     1       4.077   5.273  18.171  0.00  0.00    +0.000 N 
ATOM      4  C   UNL     1       3.106   5.409  19.168  0.00  0.00    +0.000 A 
ATOM      5  C   UNL     1       2.566   4.296  19.798  0.00  0.00    +0.000 A 
ATOM      6  C   UNL     1       1.587   4.487  20.763  0.00  0.00    +0.000 A 
ATOM      7  C   UNL     1       1.158   5.779  21.039  0.00  0.00    +0.000 A 
ATOM      8  C   UNL     1       1.755   6.855  20.378  0.00  0.00    +0.000 A 
ATOM      9  N   UNL     1       2.760   6.674  19.478  0.00  0.00    +0.000 NA
ATOM     10  H   UNL     1       4.605   6.116  17.991  0.00  0.00    +0.000 HD
ENDROOT
BRANCH   8  11
ATOM     11  C   UNL     1       1.301   8.250  20.574  0.00  0.00    +0.000 A 
ATOM     12  C   UNL     1       0.841   8.686  21.844  0.00  0.00    +0.000 A 
ATOM     13  C   UNL     1       0.421  10.003  22.069  0.00  0.00    +0.000 A 
ATOM     14  C   UNL     1       0.475  10.884  21.013  0.00  0.00    +0.000 A 
ATOM     15  C   UNL     1       0.917  10.493  19.763  0.00  0.00    +0.000 A 
ATOM     16  C   UNL     1       1.323   9.189  19.523  0.00  0.00    +0.000 A 
ATOM     17  C   UNL     1       0.786  11.626  18.821  0.00  0.00    +0.000 C 
ATOM     18  C   UNL     1       0.579  12.754  19.833  0.00  0.00    +0.000 C 
ATOM     19  O   UNL     1       0.089  12.197  21.075  0.00  0.00    +0.000 OA
ENDBRANCH   8  11
BRANCH   1  25
ATOM     20  O   UNL     1       8.333   4.125  17.819  0.00  0.00    +0.000 OA
ATOM     21  C   UNL     1       7.426   4.619  17.144  0.00  0.00    +0.000 C 
ATOM     22  C   UNL     1       7.480   6.047  16.658  0.00  0.00    +0.000 C 
ATOM     23  C   UNL     1       6.141   6.622  16.224  0.00  0.00    +0.000 C 
ATOM     24  C   UNL     1       5.336   5.624  15.404  0.00  0.00    +0.000 C 
ATOM     25  C   UNL     1       5.147   4.308  16.154  0.00  0.00    +0.000 C 
ATOM     26  N   UNL     1       6.383   3.840  16.753  0.00  0.00    +0.000 N 
ATOM     27  H   UNL     1       6.420   2.889  17.106  0.00  0.00    +0.000 HD
ENDBRANCH   1  25
TORSDOF 2
ENDMDL
MODEL 6
REMARK VINA RESULT:      -8.3      3.221      9.104
REMARK  Name = 
REMARK  2 active torsions:
REMARK  status: ('A' for Active; 'I' for Inactive)
REMARK    1  A    between atoms: C_6  and  C_7
REMARK    2  A    between atoms: C_14  and  C_15
REMARK                            x       y       z     vdW  Elec       q    Type
REMARK                         _______ _______ _______ _____ _____    ______ ____
ROOT
ATOM      1  C   UNL     1      -0.557  11.241  21.274  0.00  0.00    +0.000 C 
ATOM      2  O   UNL     1      -1.292  11.355  20.294  0.00  0.00    +0.000 OA
ATOM      3  N   UNL     1       0.593  10.473  21.296  0.00  0.00    +0.000 N 
ATOM      4  C   UNL     1       1.089   9.836  20.154  0.00  0.00    +0.000 A 
ATOM      5  C   UNL     1       1.172  10.504  18.939  0.00  0.00    +0.000 A 
ATOM      6  C   UNL     1       1.649   9.817  17.833  0.00  0.00    +0.000 A 
ATOM      7  C   UNL     1       1.994   8.477  17.970  0.00  0.00    +0.000 A 
ATOM      8  C   UNL     1       1.900   7.871  19.224  0.00  0.00    +0.000 A 
ATOM      9  N   UNL     1       1.493   8.562  20.325  0.00  0.00    +0.000 NA
ATOM     10  H   UNL     1       0.842  10.019  22.164  0.00  0.00    +0.000 HD
ENDROOT
BRANCH   8  11
ATOM     11  C   UNL     1       2.187   6.433  19.428  0.00  0.00    +0.000 A 
ATOM     12  C   UNL     1       1.862   5.802  20.657  0.00  0.00    +0.000 A 
ATOM     13  C   UNL     1       2.104   4.441  20.878  0.00  0.00    +0.000 A 
ATOM     14  C   UNL     1       2.664   3.713  19.853  0.00  0.00    +0.000 A 
ATOM     15  C   UNL     1       2.994   4.296  18.643  0.00  0.00    +0.000 A 
ATOM     16  C   UNL     1       2.772   5.646  18.416  0.00  0.00    +0.000 A 
ATOM     17  C   UNL     1       3.646   3.291  17.777  0.00  0.00    +0.000 C 
ATOM     18  C   UNL     1       3.267   2.027  18.551  0.00  0.00    +0.000 C 
ATOM     19  O   UNL     1       2.969   2.379  19.922  0.00  0.00    +0.000 OA
ENDBRANCH   8  11
BRANCH   1  25
ATOM     20  O   UNL     1      -4.505  12.221  23.020  0.00  0.00    +0.000 OA
ATOM     21  C   UNL     1      -3.338  12.589  22.857  0.00  0.00    +0.000 C 
ATOM     22  C   UNL     1      -2.986  14.036  22.608  0.00  0.00    +0.000 C 
ATOM     23  C   UNL     1      -1.603  14.260  22.016  0.00  0.00    +0.000 C 
ATOM     24  C   UNL     1      -0.554  13.379  22.680  0.00  0.00    +0.000 C 
ATOM     25  C   UNL     1      -0.942  11.904  22.616  0.00  0.00    +0.000 C 
ATOM     26  N   UNL     1      -2.329  11.688  22.986  0.00  0.00    +0.000 N 
ATOM     27  H   UNL     1      -2.640  10.739  23.166  0.00  0.00    +0.000 HD
ENDBRANCH   1  25
TORSDOF 2
ENDMDL
MODEL 7
REMARK VINA RESULT:      -8.2      2.854      4.318
REMARK  Name = 
REMARK  2 active torsions:
REMARK  status: ('A' for Active; 'I' for Inactive)
REMARK    1  A    between atoms: C_6  and  C_7
REMARK    2  A    between atoms: C_14  and  C_15
REMARK                            x       y       z     vdW  Elec       q    Type
REMARK                         _______ _______ _______ _____ _____    ______ ____
ROOT
ATOM      1  C   UNL     1       3.114   5.484  19.891  0.00  0.00    +0.000 C 
ATOM      2  O   UNL     1       4.183   5.870  19.424  0.00  0.00    +0.000 OA
ATOM      3  N   UNL     1       1.960   6.245  19.919  0.00  0.00    +0.000 N 
ATOM      4  C   UNL     1       1.876   7.500  19.307  0.00  0.00    +0.000 A 
ATOM      5  C   UNL     1       2.367   7.706  18.025  0.00  0.00    +0.000 A 
ATOM      6  C   UNL     1       2.280   8.977  17.476  0.00  0.00    +0.000 A 
ATOM      7  C   UNL     1       1.738  10.005  18.240  0.00  0.00    +0.000 A 
ATOM      8  C   UNL     1       1.250   9.724  19.517  0.00  0.00    +0.000 A 
ATOM      9  N   UNL     1       1.275   8.463  20.033  0.00  0.00    +0.000 NA
ATOM     10  H   UNL     1       1.332   6.123  20.701  0.00  0.00    +0.000 HD
ENDROOT
BRANCH   8  11
ATOM     11  C   UNL     1       0.722  10.780  20.409  0.00  0.00    +0.000 A 
ATOM     12  C   UNL     1       1.248  12.098  20.355  0.00  0.00    +0.000 A 
ATOM     13  C   UNL     1       0.761  13.124  21.173  0.00  0.00    +0.000 A 
ATOM     14  C   UNL     1      -0.266  12.825  22.038  0.00  0.00    +0.000 A 
ATOM     15  C   UNL     1      -0.801  11.553  22.118  0.00  0.00    +0.000 A 
ATOM     16  C   UNL     1      -0.320  10.523  21.324  0.00  0.00    +0.000 A 
ATOM     17  C   UNL     1      -1.825  11.518  23.185  0.00  0.00    +0.000 C 
ATOM     18  C   UNL     1      -2.014  13.024  23.382  0.00  0.00    +0.000 C 
ATOM     19  O   UNL     1      -0.838  13.718  22.906  0.00  0.00    +0.000 OA
ENDBRANCH   8  11
BRANCH   1  25
ATOM     20  O   UNL     1       3.679   1.385  18.320  0.00  0.00    +0.000 OA
ATOM     21  C   UNL     1       3.019   2.112  19.069  0.00  0.00    +0.000 C 
ATOM     22  C   UNL     1       1.529   1.943  19.235  0.00  0.00    +0.000 C 
ATOM     23  C   UNL     1       0.815   3.146  19.832  0.00  0.00    +0.000 C 
ATOM     24  C   UNL     1       1.595   3.745  20.994  0.00  0.00    +0.000 C 
ATOM     25  C   UNL     1       3.020   4.105  20.584  0.00  0.00    +0.000 C 
ATOM     26  N   UNL     1       3.656   3.040  19.830  0.00  0.00    +0.000 N 
ATOM     27  H   UNL     1       4.658   3.088  19.675  0.00  0.00    +0.000 HD
ENDBRANCH   1  25
TORSDOF 2
ENDMDL
MODEL 8
REMARK VINA RESULT:      -8.1      2.297      8.078
REMARK  Name = 
REMARK  2 active torsions:
REMARK  status: ('A' for Active; 'I' for Inactive)
REMARK    1  A    between atoms: C_6  and  C_7
REMARK    2  A    between atoms: C_14  and  C_15
REMARK                            x       y       z     vdW  Elec       q    Type
REMARK                         _______ _______ _______ _____ _____    ______ ____
ROOT
ATOM      1  C   UNL     1       1.021   8.902  21.055  0.00  0.00    +0.000 C 
ATOM      2  O   UNL     1       1.523   8.624  22.143  0.00  0.00    +0.000 OA
ATOM      3  N   UNL     1       1.226   8.172  19.898  0.00  0.00    +0.000 N 
ATOM      4  C   UNL     1       1.946   6.973  19.887  0.00  0.00    +0.000 A 
ATOM      5  C   UNL     1       1.724   5.996  20.848  0.00  0.00    +0.000 A 
ATOM      6  C   UNL     1       2.483   4.835  20.803  0.00  0.00    +0.000 A 
ATOM      7  C   UNL     1       3.460   4.707  19.824  0.00  0.00    +0.000 A 
ATOM      8  C   UNL     1       3.619   5.723  18.879  0.00  0.00    +0.000 A 
ATOM      9  N   UNL     1       2.832   6.834  18.882  0.00  0.00    +0.000 NA
ATOM     10  H   UNL     1       1.243   8.673  19.020  0.00  0.00    +0.000 HD
ENDROOT
BRANCH   8  11
ATOM     11  C   UNL     1       4.683   5.682  17.850  0.00  0.00    +0.000 A 
ATOM     12  C   UNL     1       5.934   6.311  18.083  0.00  0.00    +0.000 A 
ATOM     13  C   UNL     1       6.967   6.278  17.139  0.00  0.00    +0.000 A 
ATOM     14  C   UNL     1       6.742   5.601  15.962  0.00  0.00    +0.000 A 
ATOM     15  C   UNL     1       5.535   4.978  15.702  0.00  0.00    +0.000 A 
ATOM     16  C   UNL     1       4.499   5.014  16.622  0.00  0.00    +0.000 A 
ATOM     17  C   UNL     1       5.562   4.408  14.338  0.00  0.00    +0.000 C 
ATOM     18  C   UNL     1       7.068   4.488  14.076  0.00  0.00    +0.000 C 
ATOM     19  O   UNL     1       7.649   5.491  14.942  0.00  0.00    +0.000 OA
ENDBRANCH   8  11
BRANCH   1  25
ATOM     20  O   UNL     1      -1.316  10.440  17.625  0.00  0.00    +0.000 OA
ATOM     21  C   UNL     1      -0.566  10.726  18.563  0.00  0.00    +0.000 C 
ATOM     22  C   UNL     1       0.493  11.794  18.440  0.00  0.00    +0.000 C 
ATOM     23  C   UNL     1       1.585  11.732  19.497  0.00  0.00    +0.000 C 
ATOM     24  C   UNL     1       1.015  11.454  20.881  0.00  0.00    +0.000 C 
ATOM     25  C   UNL     1       0.171  10.183  20.894  0.00  0.00    +0.000 C 
ATOM     26  N   UNL     1      -0.745  10.125  19.769  0.00  0.00    +0.000 N 
ATOM     27  H   UNL     1      -1.482   9.428  19.781  0.00  0.00    +0.000 HD
ENDBRANCH   1  25
TORSDOF 2
ENDMDL
MODEL 9
REMARK VINA RESULT:      -8.1      2.169      8.432
REMARK  Name = 
REMARK  2 active torsions:
REMARK  status: ('A' for Active; 'I' for Inactive)
REMARK    1  A    between atoms: C_6  and  C_7
REMARK    2  A    between atoms: C_14  and  C_15
REMARK                            x       y       z     vdW  Elec       q    Type
REMARK                         _______ _______ _______ _____ _____    ______ ____
ROOT
ATOM      1  C   UNL     1       1.268   9.793  21.030  0.00  0.00    +0.000 C 
ATOM      2  O   UNL     1       1.468   9.409  22.181  0.00  0.00    +0.000 OA
ATOM      3  N   UNL     1       1.478   9.016  19.906  0.00  0.00    +0.000 N 
ATOM      4  C   UNL     1       1.836   7.666  19.985  0.00  0.00    +0.000 A 
ATOM      5  C   UNL     1       1.185   6.803  20.857  0.00  0.00    +0.000 A 
ATOM      6  C   UNL     1       1.597   5.479  20.912  0.00  0.00    +0.000 A 
ATOM      7  C   UNL     1       2.666   5.073  20.122  0.00  0.00    +0.000 A 
ATOM      8  C   UNL     1       3.265   5.990  19.256  0.00  0.00    +0.000 A 
ATOM      9  N   UNL     1       2.820   7.273  19.154  0.00  0.00    +0.000 NA
ATOM     10  H   UNL     1       1.791   9.478  19.063  0.00  0.00    +0.000 HD
ENDROOT
BRANCH   8  11
ATOM     11  C   UNL     1       4.448   5.645  18.437  0.00  0.00    +0.000 A 
ATOM     12  C   UNL     1       5.674   5.288  19.057  0.00  0.00    +0.000 A 
ATOM     13  C   UNL     1       6.807   4.940  18.313  0.00  0.00    +0.000 A 
ATOM     14  C   UNL     1       6.701   4.940  16.941  0.00  0.00    +0.000 A 
ATOM     15  C   UNL     1       5.522   5.283  16.304  0.00  0.00    +0.000 A 
ATOM     16  C   UNL     1       4.396   5.642  17.028  0.00  0.00    +0.000 A 
ATOM     17  C   UNL     1       5.735   5.269  14.840  0.00  0.00    +0.000 C 
ATOM     18  C   UNL     1       7.063   4.509  14.800  0.00  0.00    +0.000 C 
ATOM     19  O   UNL     1       7.722   4.633  16.081  0.00  0.00    +0.000 OA
ENDBRANCH   8  11
BRANCH   1  25
ATOM     20  O   UNL     1      -2.142  12.166  22.557  0.00  0.00    +0.000 OA
ATOM     21  C   UNL     1      -1.434  11.904  21.581  0.00  0.00    +0.000 C 
ATOM     22  C   UNL     1      -2.001  11.814  20.185  0.00  0.00    +0.000 C 
ATOM     23  C   UNL     1      -1.118  11.081  19.186  0.00  0.00    +0.000 C 
ATOM     24  C   UNL     1       0.346  11.471  19.333  0.00  0.00    +0.000 C 
ATOM     25  C   UNL     1       0.842  11.254  20.761  0.00  0.00    +0.000 C 
ATOM     26  N   UNL     1      -0.091  11.770  21.746  0.00  0.00    +0.000 N 
ATOM     27  H   UNL     1       0.219  11.856  22.708  0.00  0.00    +0.000 HD
ENDBRANCH   1  25
TORSDOF 2
ENDMDL
