MODEL 1
REMARK VINA RESULT:      -8.6      0.000      0.000
REMARK  Name = 
REMARK  8 active torsions:
REMARK  status: ('A' for Active; 'I' for Inactive)
REMARK    1  A    between atoms: C_1  and  N_2
REMARK    2  A    between atoms: C_6  and  C_7
REMARK    3  A    between atoms: C_7  and  C_8
REMARK    4  A    between atoms: C_8  and  C_9
REMARK    5  A    between atoms: C_13  and  C_14
REMARK    6  A    between atoms: C_14  and  N_15
REMARK    7  A    between atoms: C_20  and  C_21
REMARK    8  A    between atoms: C_24  and  C_25
REMARK                            x       y       z     vdW  Elec       q    Type
REMARK                         _______ _______ _______ _____ _____    ______ ____
ROOT
ATOM      1  N   UNL     1       1.508   7.091  20.177  0.00  0.00    +0.000 N 
ATOM      2  C   UNL     1       1.310   5.669  20.329  0.00  0.00    +0.000 C 
ATOM      3  C   UNL     1       2.513   5.121  19.638  0.00  0.00    +0.000 A 
ATOM      4  C   UNL     1       2.936   6.042  18.678  0.00  0.00    +0.000 A 
ATOM      5  C   UNL     1       4.028   5.818  17.848  0.00  0.00    +0.000 A 
ATOM      6  C   UNL     1       4.828   4.706  18.142  0.00  0.00    +0.000 A 
ATOM      7  C   UNL     1       4.441   3.813  19.165  0.00  0.00    +0.000 A 
ATOM      8  C   UNL     1       3.245   3.978  19.890  0.00  0.00    +0.000 A 
ATOM      9  C   UNL     1       2.284   7.334  19.027  0.00  0.00    +0.000 C 
ATOM     10  O   UNL     1       2.485   8.400  18.477  0.00  0.00    +0.000 OA
ENDROOT
BRANCH   8  11
ATOM     11  C   UNL     1       2.891   2.990  20.966  0.00  0.00    +0.000 C 
ATOM     12  F   UNL     1       2.511   3.557  22.143  0.00  0.00    +0.000 F 
ATOM     13  F   UNL     1       1.848   2.194  20.596  0.00  0.00    +0.000 F 
ATOM     14  F   UNL     1       3.909   2.142  21.266  0.00  0.00    +0.000 F 
ENDBRANCH   8  11
BRANCH   6  15
ATOM     15  C   UNL     1       6.175   4.463  17.570  0.00  0.00    +0.000 C 
ATOM     16  N   UNL     1       7.298   4.345  18.204  0.00  0.00    +0.000 NA
ATOM     17  H   UNL     1       7.177   4.454  19.212  0.00  0.00    +0.000 HD
ENDBRANCH   6  15
BRANCH   1  18
ATOM     18  C   UNL     1       1.702   7.929  21.368  0.00  0.00    +0.000 C 
BRANCH  18  23
ATOM     19  C   UNL     1      -0.681  10.878  20.601  0.00  0.00    +0.000 A 
ATOM     20  C   UNL     1      -1.119  11.218  21.881  0.00  0.00    +0.000 A 
ATOM     21  C   UNL     1      -0.713  10.459  22.982  0.00  0.00    +0.000 A 
ATOM     22  C   UNL     1       0.159   9.374  22.821  0.00  0.00    +0.000 A 
ATOM     23  C   UNL     1       0.655   9.029  21.556  0.00  0.00    +0.000 A 
ATOM     24  C   UNL     1       0.186   9.766  20.459  0.00  0.00    +0.000 A 
BRANCH  19  25
ATOM     25  C   UNL     1      -1.100  11.700  19.387  0.00  0.00    +0.000 C 
BRANCH  25  26
ATOM     26  C   UNL     1      -1.349  10.925  18.062  0.00  0.00    +0.000 C 
BRANCH  26  32
ATOM     27  C   UNL     1      -2.930  10.367  15.249  0.00  0.00    +0.000 C 
ATOM     28  N   UNL     1      -3.374  10.970  16.471  0.00  0.00    +0.000 N 
ATOM     29  C   UNL     1      -4.563  11.614  16.622  0.00  0.00    +0.000 A 
ATOM     30  N   UNL     1      -4.765  11.888  17.875  0.00  0.00    +0.000 NA
ATOM     31  N   UNL     1      -3.740  11.302  18.566  0.00  0.00    +0.000 NA
ATOM     32  C   UNL     1      -2.794  10.988  17.710  0.00  0.00    +0.000 A 
ENDBRANCH  26  32
ENDBRANCH  25  26
ENDBRANCH  19  25
ENDBRANCH  18  23
ENDBRANCH   1  18
TORSDOF 7
ENDMDL
MODEL 2
REMARK VINA RESULT:      -8.6      2.698      8.478
REMARK  Name = 
REMARK  8 active torsions:
REMARK  status: ('A' for Active; 'I' for Inactive)
REMARK    1  A    between atoms: C_1  and  N_2
REMARK    2  A    between atoms: C_6  and  C_7
REMARK    3  A    between atoms: C_7  and  C_8
REMARK    4  A    between atoms: C_8  and  C_9
REMARK    5  A    between atoms: C_13  and  C_14
REMARK    6  A    between atoms: C_14  and  N_15
REMARK    7  A    between atoms: C_20  and  C_21
REMARK    8  A    between atoms: C_24  and  C_25
REMARK                            x       y       z     vdW  Elec       q    Type
REMARK                         _______ _______ _______ _____ _____    ______ ____
ROOT
ATOM      1  N   UNL     1       2.113   7.723  19.595  0.00  0.00    +0.000 N 
ATOM      2  C   UNL     1       1.853   8.320  20.883  0.00  0.00    +0.000 C 
ATOM      3  C   UNL     1       0.931   9.435  20.520  0.00  0.00    +0.000 A 
ATOM      4  C   UNL     1       1.186   9.813  19.201  0.00  0.00    +0.000 A 
ATOM      5  C   UNL     1       0.502  10.845  18.567  0.00  0.00    +0.000 A 
ATOM      6  C   UNL     1      -0.609  11.371  19.237  0.00  0.00    +0.000 A 
ATOM      7  C   UNL     1      -0.915  10.932  20.544  0.00  0.00    +0.000 A 
ATOM      8  C   UNL     1      -0.113   9.997  21.227  0.00  0.00    +0.000 A 
ATOM      9  C   UNL     1       1.958   8.697  18.590  0.00  0.00    +0.000 C 
ATOM     10  O   UNL     1       2.280   8.616  17.420  0.00  0.00    +0.000 OA
ENDROOT
BRANCH   8  11
ATOM     11  C   UNL     1      -0.493   9.574  22.617  0.00  0.00    +0.000 C 
ATOM     12  F   UNL     1       0.528   9.621  23.516  0.00  0.00    +0.000 F 
ATOM     13  F   UNL     1      -1.468  10.373  23.138  0.00  0.00    +0.000 F 
ATOM     14  F   UNL     1      -0.988   8.311  22.673  0.00  0.00    +0.000 F 
ENDBRANCH   8  11
BRANCH   6  15
ATOM     15  C   UNL     1      -1.626  12.256  18.617  0.00  0.00    +0.000 C 
ATOM     16  N   UNL     1      -2.278  12.066  17.514  0.00  0.00    +0.000 NA
ATOM     17  H   UNL     1      -2.007  11.193  17.059  0.00  0.00    +0.000 HD
ENDBRANCH   6  15
BRANCH   1  18
ATOM     18  C   UNL     1       1.684   6.342  19.333  0.00  0.00    +0.000 C 
BRANCH  18  23
ATOM     19  C   UNL     1       5.229   4.796  19.234  0.00  0.00    +0.000 A 
ATOM     20  C   UNL     1       4.933   3.436  19.145  0.00  0.00    +0.000 A 
ATOM     21  C   UNL     1       3.605   3.006  19.194  0.00  0.00    +0.000 A 
ATOM     22  C   UNL     1       2.556   3.929  19.298  0.00  0.00    +0.000 A 
ATOM     23  C   UNL     1       2.811   5.308  19.344  0.00  0.00    +0.000 A 
ATOM     24  C   UNL     1       4.155   5.713  19.356  0.00  0.00    +0.000 A 
BRANCH  19  25
ATOM     25  C   UNL     1       6.670   5.290  19.169  0.00  0.00    +0.000 C 
BRANCH  25  26
ATOM     26  C   UNL     1       7.026   6.281  18.024  0.00  0.00    +0.000 C 
BRANCH  26  32
ATOM     27  C   UNL     1       4.890   6.924  15.626  0.00  0.00    +0.000 C 
ATOM     28  N   UNL     1       5.740   5.791  15.847  0.00  0.00    +0.000 N 
ATOM     29  C   UNL     1       5.674   4.631  15.138  0.00  0.00    +0.000 A 
ATOM     30  N   UNL     1       6.681   3.869  15.438  0.00  0.00    +0.000 NA
ATOM     31  N   UNL     1       7.483   4.602  16.269  0.00  0.00    +0.000 NA
ATOM     32  C   UNL     1       6.792   5.629  16.707  0.00  0.00    +0.000 A 
ENDBRANCH  26  32
ENDBRANCH  25  26
ENDBRANCH  19  25
ENDBRANCH  18  23
ENDBRANCH   1  18
TORSDOF 7
ENDMDL
MODEL 3
REMARK VINA RESULT:      -8.6      2.904      8.535
REMARK  Name = 
REMARK  8 active torsions:
REMARK  status: ('A' for Active; 'I' for Inactive)
REMARK    1  A    between atoms: C_1  and  N_2
REMARK    2  A    between atoms: C_6  and  C_7
REMARK    3  A    between atoms: C_7  and  C_8
REMARK    4  A    between atoms: C_8  and  C_9
REMARK    5  A    between atoms: C_13  and  C_14
REMARK    6  A    between atoms: C_14  and  N_15
REMARK    7  A    between atoms: C_20  and  C_21
REMARK    8  A    between atoms: C_24  and  C_25
REMARK                            x       y       z     vdW  Elec       q    Type
REMARK                         _______ _______ _______ _____ _____    ______ ____
ROOT
ATOM      1  N   UNL     1       2.009   7.307  20.072  0.00  0.00    +0.000 N 
ATOM      2  C   UNL     1       1.752   8.086  21.260  0.00  0.00    +0.000 C 
ATOM      3  C   UNL     1       0.938   9.211  20.714  0.00  0.00    +0.000 A 
ATOM      4  C   UNL     1       1.271   9.393  19.371  0.00  0.00    +0.000 A 
ATOM      5  C   UNL     1       0.697  10.381  18.579  0.00  0.00    +0.000 A 
ATOM      6  C   UNL     1      -0.391  11.074  19.124  0.00  0.00    +0.000 A 
ATOM      7  C   UNL     1      -0.779  10.835  20.460  0.00  0.00    +0.000 A 
ATOM      8  C   UNL     1      -0.082   9.939  21.294  0.00  0.00    +0.000 A 
ATOM      9  C   UNL     1       1.971   8.150  18.945  0.00  0.00    +0.000 C 
ATOM     10  O   UNL     1       2.329   7.892  17.811  0.00  0.00    +0.000 OA
ENDROOT
BRANCH   8  11
ATOM     11  C   UNL     1      -0.546   9.732  22.708  0.00  0.00    +0.000 C 
ATOM     12  F   UNL     1      -1.462  10.644  23.135  0.00  0.00    +0.000 F 
ATOM     13  F   UNL     1      -1.145   8.517  22.869  0.00  0.00    +0.000 F 
ATOM     14  F   UNL     1       0.467   9.762  23.611  0.00  0.00    +0.000 F 
ENDBRANCH   8  11
BRANCH   6  15
ATOM     15  C   UNL     1      -1.310  11.944  18.348  0.00  0.00    +0.000 C 
ATOM     16  N   UNL     1      -1.183  13.207  18.094  0.00  0.00    +0.000 NA
ATOM     17  H   UNL     1      -0.337  13.595  18.515  0.00  0.00    +0.000 HD
ENDBRANCH   6  15
BRANCH   1  18
ATOM     18  C   UNL     1       1.479   5.941  19.970  0.00  0.00    +0.000 C 
BRANCH  18  23
ATOM     19  C   UNL     1       4.624   4.163  18.584  0.00  0.00    +0.000 A 
ATOM     20  C   UNL     1       4.064   3.335  17.611  0.00  0.00    +0.000 A 
ATOM     21  C   UNL     1       2.678   3.288  17.447  0.00  0.00    +0.000 A 
ATOM     22  C   UNL     1       1.836   4.089  18.230  0.00  0.00    +0.000 A 
ATOM     23  C   UNL     1       2.363   4.967  19.189  0.00  0.00    +0.000 A 
ATOM     24  C   UNL     1       3.754   4.953  19.377  0.00  0.00    +0.000 A 
BRANCH  19  25
ATOM     25  C   UNL     1       6.135   4.242  18.771  0.00  0.00    +0.000 C 
BRANCH  25  26
ATOM     26  C   UNL     1       6.857   5.477  18.163  0.00  0.00    +0.000 C 
BRANCH  26  32
ATOM     27  C   UNL     1       4.948   6.868  15.894  0.00  0.00    +0.000 C 
ATOM     28  N   UNL     1       5.895   5.796  15.795  0.00  0.00    +0.000 N 
ATOM     29  C   UNL     1       6.046   5.004  14.699  0.00  0.00    +0.000 A 
ATOM     30  N   UNL     1       7.095   4.251  14.836  0.00  0.00    +0.000 NA
ATOM     31  N   UNL     1       7.706   4.651  15.994  0.00  0.00    +0.000 NA
ATOM     32  C   UNL     1       6.853   5.379  16.678  0.00  0.00    +0.000 A 
ENDBRANCH  26  32
ENDBRANCH  25  26
ENDBRANCH  19  25
ENDBRANCH  18  23
ENDBRANCH   1  18
TORSDOF 7
ENDMDL
MODEL 4
REMARK VINA RESULT:      -8.6      3.117      8.826
REMARK  Name = 
REMARK  8 active torsions:
REMARK  status: ('A' for Active; 'I' for Inactive)
REMARK    1  A    between atoms: C_1  and  N_2
REMARK    2  A    between atoms: C_6  and  C_7
REMARK    3  A    between atoms: C_7  and  C_8
REMARK    4  A    between atoms: C_8  and  C_9
REMARK    5  A    between atoms: C_13  and  C_14
REMARK    6  A    between atoms: C_14  and  N_15
REMARK    7  A    between atoms: C_20  and  C_21
REMARK    8  A    between atoms: C_24  and  C_25
REMARK                            x       y       z     vdW  Elec       q    Type
REMARK                         _______ _______ _______ _____ _____    ______ ____
ROOT
ATOM      1  N   UNL     1       2.103   7.273  20.005  0.00  0.00    +0.000 N 
ATOM      2  C   UNL     1       1.871   8.043  21.204  0.00  0.00    +0.000 C 
ATOM      3  C   UNL     1       1.020   9.155  20.689  0.00  0.00    +0.000 A 
ATOM      4  C   UNL     1       1.307   9.347  19.336  0.00  0.00    +0.000 A 
ATOM      5  C   UNL     1       0.690  10.328  18.567  0.00  0.00    +0.000 A 
ATOM      6  C   UNL     1      -0.392  11.000  19.149  0.00  0.00    +0.000 A 
ATOM      7  C   UNL     1      -0.732  10.750  20.496  0.00  0.00    +0.000 A 
ATOM      8  C   UNL     1       0.007   9.864  21.304  0.00  0.00    +0.000 A 
ATOM      9  C   UNL     1       2.014   8.119  18.883  0.00  0.00    +0.000 C 
ATOM     10  O   UNL     1       2.340   7.871  17.737  0.00  0.00    +0.000 OA
ENDROOT
BRANCH   8  11
ATOM     11  C   UNL     1      -0.408   9.644  22.731  0.00  0.00    +0.000 C 
ATOM     12  F   UNL     1      -1.124   8.505  22.936  0.00  0.00    +0.000 F 
ATOM     13  F   UNL     1       0.671   9.546  23.560  0.00  0.00    +0.000 F 
ATOM     14  F   UNL     1      -1.160  10.658  23.229  0.00  0.00    +0.000 F 
ENDBRANCH   8  11
BRANCH   6  15
ATOM     15  C   UNL     1      -1.349  11.857  18.407  0.00  0.00    +0.000 C 
ATOM     16  N   UNL     1      -1.083  12.777  17.535  0.00  0.00    +0.000 NA
ATOM     17  H   UNL     1      -0.077  12.886  17.395  0.00  0.00    +0.000 HD
ENDBRANCH   6  15
BRANCH   1  18
ATOM     18  C   UNL     1       1.594   5.898  19.914  0.00  0.00    +0.000 C 
BRANCH  18  23
ATOM     19  C   UNL     1       4.003   4.063  17.507  0.00  0.00    +0.000 A 
ATOM     20  C   UNL     1       4.289   2.906  18.233  0.00  0.00    +0.000 A 
ATOM     21  C   UNL     1       3.773   2.746  19.521  0.00  0.00    +0.000 A 
ATOM     22  C   UNL     1       2.942   3.721  20.087  0.00  0.00    +0.000 A 
ATOM     23  C   UNL     1       2.596   4.877  19.372  0.00  0.00    +0.000 A 
ATOM     24  C   UNL     1       3.175   5.045  18.105  0.00  0.00    +0.000 A 
BRANCH  19  25
ATOM     25  C   UNL     1       4.543   4.254  16.094  0.00  0.00    +0.000 C 
BRANCH  25  26
ATOM     26  C   UNL     1       5.997   3.773  15.824  0.00  0.00    +0.000 C 
BRANCH  26  32
ATOM     27  C   UNL     1       5.648   3.434  12.585  0.00  0.00    +0.000 C 
ATOM     28  N   UNL     1       6.578   4.209  13.353  0.00  0.00    +0.000 N 
ATOM     29  C   UNL     1       7.660   4.848  12.831  0.00  0.00    +0.000 A 
ATOM     30  N   UNL     1       8.201   5.612  13.730  0.00  0.00    +0.000 NA
ATOM     31  N   UNL     1       7.380   5.560  14.824  0.00  0.00    +0.000 NA
ATOM     32  C   UNL     1       6.572   4.534  14.682  0.00  0.00    +0.000 A 
ENDBRANCH  26  32
ENDBRANCH  25  26
ENDBRANCH  19  25
ENDBRANCH  18  23
ENDBRANCH   1  18
TORSDOF 7
ENDMDL
MODEL 5
REMARK VINA RESULT:      -8.6      0.616      1.109
REMARK  Name = 
REMARK  8 active torsions:
REMARK  status: ('A' for Active; 'I' for Inactive)
REMARK    1  A    between atoms: C_1  and  N_2
REMARK    2  A    between atoms: C_6  and  C_7
REMARK    3  A    between atoms: C_7  and  C_8
REMARK    4  A    between atoms: C_8  and  C_9
REMARK    5  A    between atoms: C_13  and  C_14
REMARK    6  A    between atoms: C_14  and  N_15
REMARK    7  A    between atoms: C_20  and  C_21
REMARK    8  A    between atoms: C_24  and  C_25
REMARK                            x       y       z     vdW  Elec       q    Type
REMARK                         _______ _______ _______ _____ _____    ______ ____
ROOT
ATOM      1  N   UNL     1       1.493   7.285  20.162  0.00  0.00    +0.000 N 
ATOM      2  C   UNL     1       1.224   5.879  20.349  0.00  0.00    +0.000 C 
ATOM      3  C   UNL     1       2.403   5.254  19.683  0.00  0.00    +0.000 A 
ATOM      4  C   UNL     1       2.878   6.128  18.703  0.00  0.00    +0.000 A 
ATOM      5  C   UNL     1       3.964   5.828  17.888  0.00  0.00    +0.000 A 
ATOM      6  C   UNL     1       4.706   4.687  18.218  0.00  0.00    +0.000 A 
ATOM      7  C   UNL     1       4.269   3.842  19.261  0.00  0.00    +0.000 A 
ATOM      8  C   UNL     1       3.077   4.084  19.971  0.00  0.00    +0.000 A 
ATOM      9  C   UNL     1       2.288   7.459  19.012  0.00  0.00    +0.000 C 
ATOM     10  O   UNL     1       2.545   8.499  18.437  0.00  0.00    +0.000 OA
ENDROOT
BRANCH   8  11
ATOM     11  C   UNL     1       2.668   3.143  21.069  0.00  0.00    +0.000 C 
ATOM     12  F   UNL     1       2.403   3.752  22.258  0.00  0.00    +0.000 F 
ATOM     13  F   UNL     1       1.529   2.462  20.752  0.00  0.00    +0.000 F 
ATOM     14  F   UNL     1       3.601   2.192  21.331  0.00  0.00    +0.000 F 
ENDBRANCH   8  11
BRANCH   6  15
ATOM     15  C   UNL     1       6.044   4.363  17.664  0.00  0.00    +0.000 C 
ATOM     16  N   UNL     1       7.182   4.367  18.282  0.00  0.00    +0.000 NA
ATOM     17  H   UNL     1       7.082   4.646  19.259  0.00  0.00    +0.000 HD
ENDBRANCH   6  15
BRANCH   1  18
ATOM     18  C   UNL     1       1.720   8.143  21.332  0.00  0.00    +0.000 C 
BRANCH  18  23
ATOM     19  C   UNL     1      -0.778  11.044  20.775  0.00  0.00    +0.000 A 
ATOM     20  C   UNL     1      -1.256  11.247  22.070  0.00  0.00    +0.000 A 
ATOM     21  C   UNL     1      -0.839  10.411  23.108  0.00  0.00    +0.000 A 
ATOM     22  C   UNL     1       0.084   9.383  22.872  0.00  0.00    +0.000 A 
ATOM     23  C   UNL     1       0.621   9.175  21.593  0.00  0.00    +0.000 A 
ATOM     24  C   UNL     1       0.141   9.988  20.555  0.00  0.00    +0.000 A 
BRANCH  19  25
ATOM     25  C   UNL     1      -1.209  11.954  19.630  0.00  0.00    +0.000 C 
BRANCH  25  26
ATOM     26  C   UNL     1      -2.716  11.940  19.247  0.00  0.00    +0.000 C 
BRANCH  26  32
ATOM     27  C   UNL     1      -5.288  12.017  17.221  0.00  0.00    +0.000 C 
ATOM     28  N   UNL     1      -4.015  11.369  17.098  0.00  0.00    +0.000 N 
ATOM     29  C   UNL     1      -3.702  10.471  16.125  0.00  0.00    +0.000 A 
ATOM     30  N   UNL     1      -2.433  10.200  16.162  0.00  0.00    +0.000 NA
ATOM     31  N   UNL     1      -1.890  11.034  17.102  0.00  0.00    +0.000 NA
ATOM     32  C   UNL     1      -2.868  11.530  17.825  0.00  0.00    +0.000 A 
ENDBRANCH  26  32
ENDBRANCH  25  26
ENDBRANCH  19  25
ENDBRANCH  18  23
ENDBRANCH   1  18
TORSDOF 7
ENDMDL
MODEL 6
REMARK VINA RESULT:      -8.4      3.440      4.461
REMARK  Name = 
REMARK  8 active torsions:
REMARK  status: ('A' for Active; 'I' for Inactive)
REMARK    1  A    between atoms: C_1  and  N_2
REMARK    2  A    between atoms: C_6  and  C_7
REMARK    3  A    between atoms: C_7  and  C_8
REMARK    4  A    between atoms: C_8  and  C_9
REMARK    5  A    between atoms: C_13  and  C_14
REMARK    6  A    between atoms: C_14  and  N_15
REMARK    7  A    between atoms: C_20  and  C_21
REMARK    8  A    between atoms: C_24  and  C_25
REMARK                            x       y       z     vdW  Elec       q    Type
REMARK                         _______ _______ _______ _____ _____    ______ ____
ROOT
ATOM      1  N   UNL     1       2.958   7.641  18.639  0.00  0.00    +0.000 N 
ATOM      2  C   UNL     1       4.178   7.395  17.908  0.00  0.00    +0.000 C 
ATOM      3  C   UNL     1       4.183   5.905  17.821  0.00  0.00    +0.000 A 
ATOM      4  C   UNL     1       3.465   5.392  18.903  0.00  0.00    +0.000 A 
ATOM      5  C   UNL     1       3.300   4.029  19.119  0.00  0.00    +0.000 A 
ATOM      6  C   UNL     1       3.713   3.172  18.092  0.00  0.00    +0.000 A 
ATOM      7  C   UNL     1       4.372   3.698  16.959  0.00  0.00    +0.000 A 
ATOM      8  C   UNL     1       4.668   5.069  16.835  0.00  0.00    +0.000 A 
ATOM      9  C   UNL     1       2.660   6.523  19.441  0.00  0.00    +0.000 C 
ATOM     10  O   UNL     1       1.832   6.444  20.328  0.00  0.00    +0.000 OA
ENDROOT
BRANCH   8  11
ATOM     11  C   UNL     1       5.373   5.564  15.604  0.00  0.00    +0.000 C 
ATOM     12  F   UNL     1       4.847   6.704  15.078  0.00  0.00    +0.000 F 
ATOM     13  F   UNL     1       6.682   5.853  15.855  0.00  0.00    +0.000 F 
ATOM     14  F   UNL     1       5.387   4.654  14.597  0.00  0.00    +0.000 F 
ENDBRANCH   8  11
BRANCH   6  15
ATOM     15  C   UNL     1       3.363   1.732  18.004  0.00  0.00    +0.000 C 
ATOM     16  N   UNL     1       4.105   0.714  18.301  0.00  0.00    +0.000 NA
ATOM     17  H   UNL     1       5.034   1.001  18.616  0.00  0.00    +0.000 HD
ENDBRANCH   6  15
BRANCH   1  18
ATOM     18  C   UNL     1       1.863   8.380  17.996  0.00  0.00    +0.000 C 
BRANCH  18  23
ATOM     19  C   UNL     1       0.187  10.735  20.567  0.00  0.00    +0.000 A 
ATOM     20  C   UNL     1       0.433  11.984  19.997  0.00  0.00    +0.000 A 
ATOM     21  C   UNL     1       1.198  12.081  18.832  0.00  0.00    +0.000 A 
ATOM     22  C   UNL     1       1.698  10.932  18.206  0.00  0.00    +0.000 A 
ATOM     23  C   UNL     1       1.435   9.656  18.724  0.00  0.00    +0.000 A 
ATOM     24  C   UNL     1       0.717   9.586  19.928  0.00  0.00    +0.000 A 
BRANCH  19  25
ATOM     25  C   UNL     1      -0.657  10.603  21.830  0.00  0.00    +0.000 C 
BRANCH  25  26
ATOM     26  C   UNL     1      -1.026  11.919  22.572  0.00  0.00    +0.000 C 
BRANCH  26  32
ATOM     27  C   UNL     1      -3.254  12.836  20.353  0.00  0.00    +0.000 C 
ATOM     28  N   UNL     1      -3.361  12.655  21.771  0.00  0.00    +0.000 N 
ATOM     29  C   UNL     1      -4.439  13.026  22.513  0.00  0.00    +0.000 A 
ATOM     30  N   UNL     1      -4.324  12.571  23.723  0.00  0.00    +0.000 NA
ATOM     31  N   UNL     1      -3.204  11.785  23.733  0.00  0.00    +0.000 NA
ATOM     32  C   UNL     1      -2.506  12.051  22.652  0.00  0.00    +0.000 A 
ENDBRANCH  26  32
ENDBRANCH  25  26
ENDBRANCH  19  25
ENDBRANCH  18  23
ENDBRANCH   1  18
TORSDOF 7
ENDMDL
MODEL 7
REMARK VINA RESULT:      -8.4      3.730      5.378
REMARK  Name = 
REMARK  8 active torsions:
REMARK  status: ('A' for Active; 'I' for Inactive)
REMARK    1  A    between atoms: C_1  and  N_2
REMARK    2  A    between atoms: C_6  and  C_7
REMARK    3  A    between atoms: C_7  and  C_8
REMARK    4  A    between atoms: C_8  and  C_9
REMARK    5  A    between atoms: C_13  and  C_14
REMARK    6  A    between atoms: C_14  and  N_15
REMARK    7  A    between atoms: C_20  and  C_21
REMARK    8  A    between atoms: C_24  and  C_25
REMARK                            x       y       z     vdW  Elec       q    Type
REMARK                         _______ _______ _______ _____ _____    ______ ____
ROOT
ATOM      1  N   UNL     1       4.372   4.048  19.247  0.00  0.00    +0.000 N 
ATOM      2  C   UNL     1       5.594   4.817  19.280  0.00  0.00    +0.000 C 
ATOM      3  C   UNL     1       5.996   4.808  17.843  0.00  0.00    +0.000 A 
ATOM      4  C   UNL     1       5.471   3.664  17.240  0.00  0.00    +0.000 A 
ATOM      5  C   UNL     1       5.683   3.353  15.901  0.00  0.00    +0.000 A 
ATOM      6  C   UNL     1       6.283   4.340  15.111  0.00  0.00    +0.000 A 
ATOM      7  C   UNL     1       6.746   5.533  15.708  0.00  0.00    +0.000 A 
ATOM      8  C   UNL     1       6.660   5.759  17.095  0.00  0.00    +0.000 A 
ATOM      9  C   UNL     1       4.407   3.163  18.153  0.00  0.00    +0.000 C 
ATOM     10  O   UNL     1       3.654   2.236  17.922  0.00  0.00    +0.000 OA
ENDROOT
BRANCH   8  11
ATOM     11  C   UNL     1       7.174   7.050  17.667  0.00  0.00    +0.000 C 
ATOM     12  F   UNL     1       8.045   7.713  16.857  0.00  0.00    +0.000 F 
ATOM     13  F   UNL     1       6.162   7.933  17.906  0.00  0.00    +0.000 F 
ATOM     14  F   UNL     1       7.809   6.891  18.856  0.00  0.00    +0.000 F 
ENDBRANCH   8  11
BRANCH   6  15
ATOM     15  C   UNL     1       6.330   4.319  13.628  0.00  0.00    +0.000 C 
ATOM     16  N   UNL     1       6.264   3.291  12.844  0.00  0.00    +0.000 NA
ATOM     17  H   UNL     1       6.184   2.418  13.370  0.00  0.00    +0.000 HD
ENDBRANCH   6  15
BRANCH   1  18
ATOM     18  C   UNL     1       3.103   4.687  19.619  0.00  0.00    +0.000 C 
BRANCH  18  23
ATOM     19  C   UNL     1       1.933   8.359  19.281  0.00  0.00    +0.000 A 
ATOM     20  C   UNL     1       2.315   8.649  17.971  0.00  0.00    +0.000 A 
ATOM     21  C   UNL     1       3.013   7.700  17.220  0.00  0.00    +0.000 A 
ATOM     22  C   UNL     1       3.309   6.440  17.756  0.00  0.00    +0.000 A 
ATOM     23  C   UNL     1       2.902   6.094  19.053  0.00  0.00    +0.000 A 
ATOM     24  C   UNL     1       2.257   7.085  19.810  0.00  0.00    +0.000 A 
BRANCH  19  25
ATOM     25  C   UNL     1       1.158   9.374  20.113  0.00  0.00    +0.000 C 
BRANCH  25  26
ATOM     26  C   UNL     1       0.426  10.508  19.341  0.00  0.00    +0.000 C 
BRANCH  26  32
ATOM     27  C   UNL     1      -0.277  13.581  18.455  0.00  0.00    +0.000 C 
ATOM     28  N   UNL     1       0.569  13.075  19.495  0.00  0.00    +0.000 N 
ATOM     29  C   UNL     1       1.419  13.839  20.234  0.00  0.00    +0.000 A 
ATOM     30  N   UNL     1       1.908  13.140  21.212  0.00  0.00    +0.000 NA
ATOM     31  N   UNL     1       1.269  11.930  21.178  0.00  0.00    +0.000 NA
ATOM     32  C   UNL     1       0.676  11.813  20.012  0.00  0.00    +0.000 A 
ENDBRANCH  26  32
ENDBRANCH  25  26
ENDBRANCH  19  25
ENDBRANCH  18  23
ENDBRANCH   1  18
TORSDOF 7
ENDMDL
MODEL 8
REMARK VINA RESULT:      -8.4      3.430      5.175
REMARK  Name = 
REMARK  8 active torsions:
REMARK  status: ('A' for Active; 'I' for Inactive)
REMARK    1  A    between atoms: C_1  and  N_2
REMARK    2  A    between atoms: C_6  and  C_7
REMARK    3  A    between atoms: C_7  and  C_8
REMARK    4  A    between atoms: C_8  and  C_9
REMARK    5  A    between atoms: C_13  and  C_14
REMARK    6  A    between atoms: C_14  and  N_15
REMARK    7  A    between atoms: C_20  and  C_21
REMARK    8  A    between atoms: C_24  and  C_25
REMARK                            x       y       z     vdW  Elec       q    Type
REMARK                         _______ _______ _______ _____ _____    ______ ____
ROOT
ATOM      1  N   UNL     1       3.839   3.671  18.905  0.00  0.00    +0.000 N 
ATOM      2  C   UNL     1       4.976   4.549  19.049  0.00  0.00    +0.000 C 
ATOM      3  C   UNL     1       5.525   4.563  17.662  0.00  0.00    +0.000 A 
ATOM      4  C   UNL     1       5.171   3.370  17.029  0.00  0.00    +0.000 A 
ATOM      5  C   UNL     1       5.550   3.068  15.726  0.00  0.00    +0.000 A 
ATOM      6  C   UNL     1       6.138   4.099  14.983  0.00  0.00    +0.000 A 
ATOM      7  C   UNL     1       6.426   5.335  15.602  0.00  0.00    +0.000 A 
ATOM      8  C   UNL     1       6.175   5.565  16.969  0.00  0.00    +0.000 A 
ATOM      9  C   UNL     1       4.068   2.783  17.836  0.00  0.00    +0.000 C 
ATOM     10  O   UNL     1       3.430   1.789  17.547  0.00  0.00    +0.000 OA
ENDROOT
BRANCH   8  11
ATOM     11  C   UNL     1       6.507   6.903  17.566  0.00  0.00    +0.000 C 
ATOM     12  F   UNL     1       5.421   7.656  17.890  0.00  0.00    +0.000 F 
ATOM     13  F   UNL     1       7.217   6.776  18.724  0.00  0.00    +0.000 F 
ATOM     14  F   UNL     1       7.273   7.674  16.752  0.00  0.00    +0.000 F 
ENDBRANCH   8  11
BRANCH   6  15
ATOM     15  C   UNL     1       6.341   4.069  13.514  0.00  0.00    +0.000 C 
ATOM     16  N   UNL     1       5.956   3.160  12.676  0.00  0.00    +0.000 NA
ATOM     17  H   UNL     1       5.472   2.393  13.146  0.00  0.00    +0.000 HD
ENDBRANCH   6  15
BRANCH   1  18
ATOM     18  C   UNL     1       2.485   4.194  19.131  0.00  0.00    +0.000 C 
BRANCH  18  23
ATOM     19  C   UNL     1       1.757   7.828  20.239  0.00  0.00    +0.000 A 
ATOM     20  C   UNL     1       1.939   8.522  19.043  0.00  0.00    +0.000 A 
ATOM     21  C   UNL     1       2.367   7.842  17.900  0.00  0.00    +0.000 A 
ATOM     22  C   UNL     1       2.587   6.459  17.930  0.00  0.00    +0.000 A 
ATOM     23  C   UNL     1       2.372   5.719  19.102  0.00  0.00    +0.000 A 
ATOM     24  C   UNL     1       2.001   6.432  20.252  0.00  0.00    +0.000 A 
BRANCH  19  25
ATOM     25  C   UNL     1       1.276   8.546  21.495  0.00  0.00    +0.000 C 
BRANCH  25  26
ATOM     26  C   UNL     1      -0.125   9.217  21.431  0.00  0.00    +0.000 C 
BRANCH  26  32
ATOM     27  C   UNL     1      -1.395  11.050  19.032  0.00  0.00    +0.000 C 
ATOM     28  N   UNL     1      -0.340  11.323  19.964  0.00  0.00    +0.000 N 
ATOM     29  C   UNL     1       0.487  12.401  19.893  0.00  0.00    +0.000 A 
ATOM     30  N   UNL     1       1.212  12.477  20.967  0.00  0.00    +0.000 NA
ATOM     31  N   UNL     1       0.759  11.495  21.806  0.00  0.00    +0.000 NA
ATOM     32  C   UNL     1       0.025  10.661  21.104  0.00  0.00    +0.000 A 
ENDBRANCH  26  32
ENDBRANCH  25  26
ENDBRANCH  19  25
ENDBRANCH  18  23
ENDBRANCH   1  18
TORSDOF 7
ENDMDL
MODEL 9
REMARK VINA RESULT:      -8.4      3.235      4.932
REMARK  Name = 
REMARK  8 active torsions:
REMARK  status: ('A' for Active; 'I' for Inactive)
REMARK    1  A    between atoms: C_1  and  N_2
REMARK    2  A    between atoms: C_6  and  C_7
REMARK    3  A    between atoms: C_7  and  C_8
REMARK    4  A    between atoms: C_8  and  C_9
REMARK    5  A    between atoms: C_13  and  C_14
REMARK    6  A    between atoms: C_14  and  N_15
REMARK    7  A    between atoms: C_20  and  C_21
REMARK    8  A    between atoms: C_24  and  C_25
REMARK                            x       y       z     vdW  Elec       q    Type
REMARK                         _______ _______ _______ _____ _____    ______ ____
ROOT
ATOM      1  N   UNL     1       4.398   4.196  19.360  0.00  0.00    +0.000 N 
ATOM      2  C   UNL     1       5.646   4.921  19.362  0.00  0.00    +0.000 C 
ATOM      3  C   UNL     1       6.026   4.873  17.920  0.00  0.00    +0.000 A 
ATOM      4  C   UNL     1       5.453   3.738  17.345  0.00  0.00    +0.000 A 
ATOM      5  C   UNL     1       5.635   3.396  16.009  0.00  0.00    +0.000 A 
ATOM      6  C   UNL     1       6.258   4.348  15.193  0.00  0.00    +0.000 A 
ATOM      7  C   UNL     1       6.770   5.535  15.762  0.00  0.00    +0.000 A 
ATOM      8  C   UNL     1       6.712   5.788  17.146  0.00  0.00    +0.000 A 
ATOM      9  C   UNL     1       4.386   3.291  18.281  0.00  0.00    +0.000 C 
ATOM     10  O   UNL     1       3.598   2.387  18.078  0.00  0.00    +0.000 OA
ENDROOT
BRANCH   8  11
ATOM     11  C   UNL     1       7.278   7.070  17.687  0.00  0.00    +0.000 C 
ATOM     12  F   UNL     1       7.987   6.926  18.840  0.00  0.00    +0.000 F 
ATOM     13  F   UNL     1       8.140   7.652  16.805  0.00  0.00    +0.000 F 
ATOM     14  F   UNL     1       6.328   8.006  17.942  0.00  0.00    +0.000 F 
ENDBRANCH   8  11
BRANCH   6  15
ATOM     15  C   UNL     1       6.282   4.300  13.710  0.00  0.00    +0.000 C 
ATOM     16  N   UNL     1       6.275   3.253  12.949  0.00  0.00    +0.000 NA
ATOM     17  H   UNL     1       6.263   2.389  13.493  0.00  0.00    +0.000 HD
ENDBRANCH   6  15
BRANCH   1  18
ATOM     18  C   UNL     1       3.156   4.885  19.738  0.00  0.00    +0.000 C 
BRANCH  18  23
ATOM     19  C   UNL     1       1.915   8.490  19.083  0.00  0.00    +0.000 A 
ATOM     20  C   UNL     1       2.331   8.688  17.766  0.00  0.00    +0.000 A 
ATOM     21  C   UNL     1       3.073   7.702  17.112  0.00  0.00    +0.000 A 
ATOM     22  C   UNL     1       3.380   6.494  17.752  0.00  0.00    +0.000 A 
ATOM     23  C   UNL     1       2.942   6.239  19.059  0.00  0.00    +0.000 A 
ATOM     24  C   UNL     1       2.252   7.268  19.718  0.00  0.00    +0.000 A 
BRANCH  19  25
ATOM     25  C   UNL     1       1.093   9.547  19.811  0.00  0.00    +0.000 C 
BRANCH  25  26
ATOM     26  C   UNL     1       0.947  10.930  19.117  0.00  0.00    +0.000 C 
BRANCH  26  32
ATOM     27  C   UNL     1      -1.303  13.257  19.614  0.00  0.00    +0.000 C 
ATOM     28  N   UNL     1      -1.414  11.956  19.024  0.00  0.00    +0.000 N 
ATOM     29  C   UNL     1      -2.592  11.356  18.703  0.00  0.00    +0.000 A 
ATOM     30  N   UNL     1      -2.369  10.274  18.022  0.00  0.00    +0.000 NA
ATOM     31  N   UNL     1      -1.021  10.236  17.792  0.00  0.00    +0.000 NA
ATOM     32  C   UNL     1      -0.442  11.090  18.605  0.00  0.00    +0.000 A 
ENDBRANCH  26  32
ENDBRANCH  25  26
ENDBRANCH  19  25
ENDBRANCH  18  23
ENDBRANCH   1  18
TORSDOF 7
ENDMDL
