MODEL 1
REMARK VINA RESULT:      -9.6      0.000      0.000
REMARK  Name = 
REMARK  7 active torsions:
REMARK  status: ('A' for Active; 'I' for Inactive)
REMARK    1  A    between atoms: C_2  and  C_18
REMARK    2  A    between atoms: N_3  and  C_4
REMARK    3  A    between atoms: C_4  and  C_5
REMARK    4  A    between atoms: N_7  and  C_8
REMARK    5  A    between atoms: C_8  and  C_9
REMARK    6  A    between atoms: N_29  and  C_30
REMARK    7  A    between atoms: C_30  and  C_31
REMARK                            x       y       z     vdW  Elec       q    Type
REMARK                         _______ _______ _______ _____ _____    ______ ____
ROOT
ATOM      1  C   UNL     1       1.383   7.895  20.334  0.00  0.00    +0.000 A 
ATOM      2  C   UNL     1       1.224   8.663  19.191  0.00  0.00    +0.000 A 
ATOM      3  N   UNL     1       0.611   9.870  19.165  0.00  0.00    +0.000 NA
ATOM      4  C   UNL     1       0.155  10.377  20.334  0.00  0.00    +0.000 A 
ATOM      5  C   UNL     1       0.337   9.696  21.534  0.00  0.00    +0.000 A 
ATOM      6  C   UNL     1       0.954   8.440  21.543  0.00  0.00    +0.000 A 
ATOM      7  C   UNL     1      -0.128  10.322  22.775  0.00  0.00    +0.000 A 
ATOM      8  O   UNL     1      -0.010   9.767  23.858  0.00  0.00    +0.000 OA
ATOM      9  N   UNL     1      -0.696  11.560  22.644  0.00  0.00    +0.000 N 
ATOM     10  C   UNL     1      -0.939  12.229  21.475  0.00  0.00    +0.000 A 
ATOM     11  O   UNL     1      -1.507  13.316  21.515  0.00  0.00    +0.000 OA
ATOM     12  N   UNL     1      -0.506  11.623  20.315  0.00  0.00    +0.000 N 
ATOM     13  H   UNL     1      -1.022  12.008  23.486  0.00  0.00    +0.000 HD
ENDROOT
BRANCH   1  15
ATOM     14  O   UNL     1       1.394   5.570  20.692  0.00  0.00    +0.000 OA
ATOM     15  C   UNL     1       2.004   6.547  20.285  0.00  0.00    +0.000 C 
ATOM     16  N   UNL     1       3.275   6.490  19.750  0.00  0.00    +0.000 N 
ATOM     17  H   UNL     1       3.737   7.308  19.383  0.00  0.00    +0.000 HD
BRANCH  16  18
ATOM     18  C   UNL     1       4.047   5.266  19.692  0.00  0.00    +0.000 C 
BRANCH  18  19
ATOM     19  C   UNL     1       5.291   5.355  18.795  0.00  0.00    +0.000 C 
ATOM     20  C   UNL     1       5.504   4.098  17.920  0.00  0.00    +0.000 C 
ATOM     21  N   UNL     1       6.659   4.238  16.991  0.00  0.00    +0.000 NA
ATOM     22  C   UNL     1       7.841   4.571  17.816  0.00  0.00    +0.000 C 
ATOM     23  C   UNL     1       7.630   5.767  18.762  0.00  0.00    +0.000 C 
ATOM     24  O   UNL     1       6.466   5.610  19.597  0.00  0.00    +0.000 OA
BRANCH  21  25
ATOM     25  C   UNL     1       6.360   5.249  15.959  0.00  0.00    +0.000 C 
BRANCH  25  26
ATOM     26  C   UNL     1       6.580   4.805  14.531  0.00  0.00    +0.000 A 
ATOM     27  C   UNL     1       5.748   3.849  13.933  0.00  0.00    +0.000 A 
ATOM     28  C   UNL     1       5.941   3.483  12.600  0.00  0.00    +0.000 A 
ATOM     29  C   UNL     1       6.958   4.073  11.850  0.00  0.00    +0.000 A 
ATOM     30  C   UNL     1       7.786   5.031  12.431  0.00  0.00    +0.000 A 
ATOM     31  C   UNL     1       7.597   5.395  13.763  0.00  0.00    +0.000 A 
ENDBRANCH  25  26
ENDBRANCH  21  25
ENDBRANCH  18  19
ENDBRANCH  16  18
ENDBRANCH   1  15
BRANCH  12  32
ATOM     32  C   UNL     1      -0.762  12.273  19.028  0.00  0.00    +0.000 C 
BRANCH  32  33
ATOM     33  C   UNL     1      -2.037  11.790  18.366  0.00  0.00    +0.000 A 
ATOM     34  C   UNL     1      -3.288  12.108  18.918  0.00  0.00    +0.000 A 
ATOM     35  C   UNL     1      -4.465  11.633  18.336  0.00  0.00    +0.000 A 
ATOM     36  C   UNL     1      -4.409  10.834  17.196  0.00  0.00    +0.000 A 
ATOM     37  C   UNL     1      -3.176  10.524  16.627  0.00  0.00    +0.000 A 
ATOM     38  C   UNL     1      -1.997  11.000  17.207  0.00  0.00    +0.000 A 
ENDBRANCH  32  33
ENDBRANCH  12  32
TORSDOF 7
ENDMDL
MODEL 2
REMARK VINA RESULT:      -9.5      2.092      3.615
REMARK  Name = 
REMARK  7 active torsions:
REMARK  status: ('A' for Active; 'I' for Inactive)
REMARK    1  A    between atoms: C_2  and  C_18
REMARK    2  A    between atoms: N_3  and  C_4
REMARK    3  A    between atoms: C_4  and  C_5
REMARK    4  A    between atoms: N_7  and  C_8
REMARK    5  A    between atoms: C_8  and  C_9
REMARK    6  A    between atoms: N_29  and  C_30
REMARK    7  A    between atoms: C_30  and  C_31
REMARK                            x       y       z     vdW  Elec       q    Type
REMARK                         _______ _______ _______ _____ _____    ______ ____
ROOT
ATOM      1  C   UNL     1       0.429  10.517  19.283  0.00  0.00    +0.000 A 
ATOM      2  C   UNL     1      -0.448  11.380  18.643  0.00  0.00    +0.000 A 
ATOM      3  N   UNL     1      -1.463  12.027  19.260  0.00  0.00    +0.000 NA
ATOM      4  C   UNL     1      -1.615  11.849  20.593  0.00  0.00    +0.000 A 
ATOM      5  C   UNL     1      -0.734  11.051  21.318  0.00  0.00    +0.000 A 
ATOM      6  C   UNL     1       0.299  10.371  20.663  0.00  0.00    +0.000 A 
ATOM      7  C   UNL     1      -0.914  10.943  22.768  0.00  0.00    +0.000 A 
ATOM      8  O   UNL     1      -0.182  10.246  23.456  0.00  0.00    +0.000 OA
ATOM      9  N   UNL     1      -1.946  11.670  23.298  0.00  0.00    +0.000 N 
ATOM     10  C   UNL     1      -2.860  12.417  22.607  0.00  0.00    +0.000 A 
ATOM     11  O   UNL     1      -3.764  12.973  23.222  0.00  0.00    +0.000 OA
ATOM     12  N   UNL     1      -2.684  12.501  21.243  0.00  0.00    +0.000 N 
ATOM     13  H   UNL     1      -2.086  11.609  24.295  0.00  0.00    +0.000 HD
ENDROOT
BRANCH   1  15
ATOM     14  O   UNL     1       2.007  10.285  17.553  0.00  0.00    +0.000 OA
ATOM     15  C   UNL     1       1.481   9.783  18.536  0.00  0.00    +0.000 C 
ATOM     16  N   UNL     1       1.814   8.539  19.032  0.00  0.00    +0.000 N 
ATOM     17  H   UNL     1       1.393   8.169  19.871  0.00  0.00    +0.000 HD
BRANCH  16  18
ATOM     18  C   UNL     1       2.770   7.666  18.384  0.00  0.00    +0.000 C 
BRANCH  18  19
ATOM     19  C   UNL     1       2.867   6.269  19.015  0.00  0.00    +0.000 C 
ATOM     20  C   UNL     1       2.584   5.125  18.013  0.00  0.00    +0.000 C 
ATOM     21  N   UNL     1       2.773   3.777  18.617  0.00  0.00    +0.000 NA
ATOM     22  C   UNL     1       1.911   3.716  19.818  0.00  0.00    +0.000 C 
ATOM     23  C   UNL     1       2.110   4.890  20.794  0.00  0.00    +0.000 C 
ATOM     24  O   UNL     1       1.976   6.171  20.149  0.00  0.00    +0.000 OA
BRANCH  21  25
ATOM     25  C   UNL     1       4.202   3.547  18.907  0.00  0.00    +0.000 C 
BRANCH  25  26
ATOM     26  C   UNL     1       5.163   3.993  17.830  0.00  0.00    +0.000 A 
ATOM     27  C   UNL     1       6.313   4.730  18.144  0.00  0.00    +0.000 A 
ATOM     28  C   UNL     1       7.211   5.095  17.140  0.00  0.00    +0.000 A 
ATOM     29  C   UNL     1       6.975   4.722  15.817  0.00  0.00    +0.000 A 
ATOM     30  C   UNL     1       5.841   3.982  15.495  0.00  0.00    +0.000 A 
ATOM     31  C   UNL     1       4.941   3.619  16.495  0.00  0.00    +0.000 A 
ENDBRANCH  25  26
ENDBRANCH  21  25
ENDBRANCH  18  19
ENDBRANCH  16  18
ENDBRANCH   1  15
BRANCH  12  32
ATOM     32  C   UNL     1      -3.646  13.261  20.441  0.00  0.00    +0.000 C 
BRANCH  32  33
ATOM     33  C   UNL     1      -4.780  12.405  19.913  0.00  0.00    +0.000 A 
ATOM     34  C   UNL     1      -4.715  11.858  18.623  0.00  0.00    +0.000 A 
ATOM     35  C   UNL     1      -5.774  11.103  18.114  0.00  0.00    +0.000 A 
ATOM     36  C   UNL     1      -6.912  10.886  18.887  0.00  0.00    +0.000 A 
ATOM     37  C   UNL     1      -6.984  11.408  20.176  0.00  0.00    +0.000 A 
ATOM     38  C   UNL     1      -5.925  12.163  20.687  0.00  0.00    +0.000 A 
ENDBRANCH  32  33
ENDBRANCH  12  32
TORSDOF 7
ENDMDL
MODEL 3
REMARK VINA RESULT:      -9.4      0.792      1.389
REMARK  Name = 
REMARK  7 active torsions:
REMARK  status: ('A' for Active; 'I' for Inactive)
REMARK    1  A    between atoms: C_2  and  C_18
REMARK    2  A    between atoms: N_3  and  C_4
REMARK    3  A    between atoms: C_4  and  C_5
REMARK    4  A    between atoms: N_7  and  C_8
REMARK    5  A    between atoms: C_8  and  C_9
REMARK    6  A    between atoms: N_29  and  C_30
REMARK    7  A    between atoms: C_30  and  C_31
REMARK                            x       y       z     vdW  Elec       q    Type
REMARK                         _______ _______ _______ _____ _____    ______ ____
ROOT
ATOM      1  C   UNL     1       1.705   8.341  19.401  0.00  0.00    +0.000 A 
ATOM      2  C   UNL     1       1.357   9.313  18.476  0.00  0.00    +0.000 A 
ATOM      3  N   UNL     1       0.579  10.385  18.756  0.00  0.00    +0.000 NA
ATOM      4  C   UNL     1       0.139  10.537  20.026  0.00  0.00    +0.000 A 
ATOM      5  C   UNL     1       0.502   9.640  21.027  0.00  0.00    +0.000 A 
ATOM      6  C   UNL     1       1.290   8.525  20.719  0.00  0.00    +0.000 A 
ATOM      7  C   UNL     1       0.042   9.890  22.395  0.00  0.00    +0.000 A 
ATOM      8  O   UNL     1       0.315   9.129  23.314  0.00  0.00    +0.000 OA
ATOM      9  N   UNL     1      -0.704  11.022  22.578  0.00  0.00    +0.000 N 
ATOM     10  C   UNL     1      -1.122  11.892  21.608  0.00  0.00    +0.000 A 
ATOM     11  O   UNL     1      -1.834  12.840  21.923  0.00  0.00    +0.000 OA
ATOM     12  N   UNL     1      -0.691  11.639  20.324  0.00  0.00    +0.000 N 
ATOM     13  H   UNL     1      -1.029  11.212  23.514  0.00  0.00    +0.000 HD
ENDROOT
BRANCH   1  15
ATOM     14  O   UNL     1       2.739   6.917  17.838  0.00  0.00    +0.000 OA
ATOM     15  C   UNL     1       2.506   7.151  19.015  0.00  0.00    +0.000 C 
ATOM     16  N   UNL     1       2.958   6.368  20.057  0.00  0.00    +0.000 N 
ATOM     17  H   UNL     1       2.786   6.610  21.021  0.00  0.00    +0.000 HD
BRANCH  16  18
ATOM     18  C   UNL     1       3.693   5.137  19.850  0.00  0.00    +0.000 C 
BRANCH  18  19
ATOM     19  C   UNL     1       4.875   5.272  18.878  0.00  0.00    +0.000 C 
ATOM     20  C   UNL     1       5.122   3.998  18.037  0.00  0.00    +0.000 C 
ATOM     21  N   UNL     1       6.209   4.177  17.035  0.00  0.00    +0.000 NA
ATOM     22  C   UNL     1       7.412   4.618  17.775  0.00  0.00    +0.000 C 
ATOM     23  C   UNL     1       7.175   5.835  18.689  0.00  0.00    +0.000 C 
ATOM     24  O   UNL     1       6.074   5.635  19.598  0.00  0.00    +0.000 OA
BRANCH  21  25
ATOM     25  C   UNL     1       5.784   5.125  15.987  0.00  0.00    +0.000 C 
BRANCH  25  26
ATOM     26  C   UNL     1       6.190   4.760  14.578  0.00  0.00    +0.000 A 
ATOM     27  C   UNL     1       7.374   5.253  14.014  0.00  0.00    +0.000 A 
ATOM     28  C   UNL     1       7.753   4.870  12.726  0.00  0.00    +0.000 A 
ATOM     29  C   UNL     1       6.960   3.987  11.994  0.00  0.00    +0.000 A 
ATOM     30  C   UNL     1       5.785   3.483  12.549  0.00  0.00    +0.000 A 
ATOM     31  C   UNL     1       5.403   3.867  13.832  0.00  0.00    +0.000 A 
ENDBRANCH  25  26
ENDBRANCH  21  25
ENDBRANCH  18  19
ENDBRANCH  16  18
ENDBRANCH   1  15
BRANCH  12  32
ATOM     32  C   UNL     1      -1.128  12.514  19.235  0.00  0.00    +0.000 C 
BRANCH  32  33
ATOM     33  C   UNL     1      -2.357  11.995  18.515  0.00  0.00    +0.000 A 
ATOM     34  C   UNL     1      -2.242  11.412  17.245  0.00  0.00    +0.000 A 
ATOM     35  C   UNL     1      -3.375  10.968  16.559  0.00  0.00    +0.000 A 
ATOM     36  C   UNL     1      -4.637  11.101  17.134  0.00  0.00    +0.000 A 
ATOM     37  C   UNL     1      -4.765  11.662  18.402  0.00  0.00    +0.000 A 
ATOM     38  C   UNL     1      -3.632  12.105  19.090  0.00  0.00    +0.000 A 
ENDBRANCH  32  33
ENDBRANCH  12  32
TORSDOF 7
ENDMDL
MODEL 4
REMARK VINA RESULT:      -9.3      2.445      9.626
REMARK  Name = 
REMARK  7 active torsions:
REMARK  status: ('A' for Active; 'I' for Inactive)
REMARK    1  A    between atoms: C_2  and  C_18
REMARK    2  A    between atoms: N_3  and  C_4
REMARK    3  A    between atoms: C_4  and  C_5
REMARK    4  A    between atoms: N_7  and  C_8
REMARK    5  A    between atoms: C_8  and  C_9
REMARK    6  A    between atoms: N_29  and  C_30
REMARK    7  A    between atoms: C_30  and  C_31
REMARK                            x       y       z     vdW  Elec       q    Type
REMARK                         _______ _______ _______ _____ _____    ______ ____
ROOT
ATOM      1  C   UNL     1       1.544   6.757  20.432  0.00  0.00    +0.000 A 
ATOM      2  C   UNL     1       2.267   7.077  19.293  0.00  0.00    +0.000 A 
ATOM      3  N   UNL     1       2.929   6.173  18.534  0.00  0.00    +0.000 NA
ATOM      4  C   UNL     1       2.856   4.869  18.889  0.00  0.00    +0.000 A 
ATOM      5  C   UNL     1       2.095   4.461  19.980  0.00  0.00    +0.000 A 
ATOM      6  C   UNL     1       1.432   5.409  20.768  0.00  0.00    +0.000 A 
ATOM      7  C   UNL     1       2.007   3.029  20.280  0.00  0.00    +0.000 A 
ATOM      8  O   UNL     1       1.366   2.611  21.235  0.00  0.00    +0.000 OA
ATOM      9  N   UNL     1       2.680   2.197  19.428  0.00  0.00    +0.000 N 
ATOM     10  C   UNL     1       3.480   2.570  18.382  0.00  0.00    +0.000 A 
ATOM     11  O   UNL     1       4.062   1.705  17.737  0.00  0.00    +0.000 OA
ATOM     12  N   UNL     1       3.561   3.921  18.118  0.00  0.00    +0.000 N 
ATOM     13  H   UNL     1       2.631   1.208  19.617  0.00  0.00    +0.000 HD
ENDROOT
BRANCH   1  15
ATOM     14  O   UNL     1      -0.279   7.699  21.583  0.00  0.00    +0.000 OA
ATOM     15  C   UNL     1       0.895   7.804  21.261  0.00  0.00    +0.000 C 
ATOM     16  N   UNL     1       1.701   8.860  21.634  0.00  0.00    +0.000 N 
ATOM     17  H   UNL     1       2.679   8.898  21.389  0.00  0.00    +0.000 HD
BRANCH  16  18
ATOM     18  C   UNL     1       1.207   9.996  22.384  0.00  0.00    +0.000 C 
BRANCH  18  19
ATOM     19  C   UNL     1       0.103  10.785  21.665  0.00  0.00    +0.000 C 
ATOM     20  C   UNL     1       0.423  11.070  20.178  0.00  0.00    +0.000 C 
ATOM     21  N   UNL     1      -0.696  11.753  19.473  0.00  0.00    +0.000 NA
ATOM     22  C   UNL     1      -1.006  12.981  20.239  0.00  0.00    +0.000 C 
ATOM     23  C   UNL     1      -1.246  12.740  21.741  0.00  0.00    +0.000 C 
ATOM     24  O   UNL     1      -0.162  12.023  22.363  0.00  0.00    +0.000 OA
BRANCH  21  25
ATOM     25  C   UNL     1      -1.846  10.838  19.340  0.00  0.00    +0.000 C 
BRANCH  25  26
ATOM     26  C   UNL     1      -2.463  10.766  17.962  0.00  0.00    +0.000 A 
ATOM     27  C   UNL     1      -1.933   9.927  16.974  0.00  0.00    +0.000 A 
ATOM     28  C   UNL     1      -2.543   9.842  15.721  0.00  0.00    +0.000 A 
ATOM     29  C   UNL     1      -3.690  10.586  15.447  0.00  0.00    +0.000 A 
ATOM     30  C   UNL     1      -4.231  11.417  16.425  0.00  0.00    +0.000 A 
ATOM     31  C   UNL     1      -3.622  11.506  17.675  0.00  0.00    +0.000 A 
ENDBRANCH  25  26
ENDBRANCH  21  25
ENDBRANCH  18  19
ENDBRANCH  16  18
ENDBRANCH   1  15
BRANCH  12  32
ATOM     32  C   UNL     1       4.424   4.388  17.031  0.00  0.00    +0.000 C 
BRANCH  32  33
ATOM     33  C   UNL     1       5.592   5.221  17.521  0.00  0.00    +0.000 A 
ATOM     34  C   UNL     1       5.946   6.406  16.859  0.00  0.00    +0.000 A 
ATOM     35  C   UNL     1       7.046   7.158  17.280  0.00  0.00    +0.000 A 
ATOM     36  C   UNL     1       7.806   6.734  18.367  0.00  0.00    +0.000 A 
ATOM     37  C   UNL     1       7.457   5.568  19.045  0.00  0.00    +0.000 A 
ATOM     38  C   UNL     1       6.357   4.817  18.626  0.00  0.00    +0.000 A 
ENDBRANCH  32  33
ENDBRANCH  12  32
TORSDOF 7
ENDMDL
MODEL 5
REMARK VINA RESULT:      -9.2      2.430      9.605
REMARK  Name = 
REMARK  7 active torsions:
REMARK  status: ('A' for Active; 'I' for Inactive)
REMARK    1  A    between atoms: C_2  and  C_18
REMARK    2  A    between atoms: N_3  and  C_4
REMARK    3  A    between atoms: C_4  and  C_5
REMARK    4  A    between atoms: N_7  and  C_8
REMARK    5  A    between atoms: C_8  and  C_9
REMARK    6  A    between atoms: N_29  and  C_30
REMARK    7  A    between atoms: C_30  and  C_31
REMARK                            x       y       z     vdW  Elec       q    Type
REMARK                         _______ _______ _______ _____ _____    ______ ____
ROOT
ATOM      1  C   UNL     1       1.604   6.811  20.354  0.00  0.00    +0.000 A 
ATOM      2  C   UNL     1       2.319   7.102  19.203  0.00  0.00    +0.000 A 
ATOM      3  N   UNL     1       2.960   6.177  18.452  0.00  0.00    +0.000 NA
ATOM      4  C   UNL     1       2.871   4.880  18.828  0.00  0.00    +0.000 A 
ATOM      5  C   UNL     1       2.116   4.501  19.934  0.00  0.00    +0.000 A 
ATOM      6  C   UNL     1       1.475   5.471  20.714  0.00  0.00    +0.000 A 
ATOM      7  C   UNL     1       2.010   3.075  20.258  0.00  0.00    +0.000 A 
ATOM      8  O   UNL     1       1.374   2.682  21.225  0.00  0.00    +0.000 OA
ATOM      9  N   UNL     1       2.662   2.220  19.412  0.00  0.00    +0.000 N 
ATOM     10  C   UNL     1       3.456   2.565  18.351  0.00  0.00    +0.000 A 
ATOM     11  O   UNL     1       4.018   1.680  17.714  0.00  0.00    +0.000 OA
ATOM     12  N   UNL     1       3.554   3.909  18.065  0.00  0.00    +0.000 N 
ATOM     13  H   UNL     1       2.601   1.235  19.617  0.00  0.00    +0.000 HD
ENDROOT
BRANCH   1  15
ATOM     14  O   UNL     1      -0.176   7.772  21.557  0.00  0.00    +0.000 OA
ATOM     15  C   UNL     1       0.979   7.881  21.173  0.00  0.00    +0.000 C 
ATOM     16  N   UNL     1       1.785   8.963  21.464  0.00  0.00    +0.000 N 
ATOM     17  H   UNL     1       2.749   9.005  21.170  0.00  0.00    +0.000 HD
BRANCH  16  18
ATOM     18  C   UNL     1       1.310  10.120  22.193  0.00  0.00    +0.000 C 
BRANCH  18  19
ATOM     19  C   UNL     1       0.204  10.903  21.468  0.00  0.00    +0.000 C 
ATOM     20  C   UNL     1       0.467  11.070  19.953  0.00  0.00    +0.000 C 
ATOM     21  N   UNL     1      -0.657  11.748  19.250  0.00  0.00    +0.000 NA
ATOM     22  C   UNL     1      -0.884  13.038  19.940  0.00  0.00    +0.000 C 
ATOM     23  C   UNL     1      -1.063  12.911  21.464  0.00  0.00    +0.000 C 
ATOM     24  O   UNL     1       0.020  12.195  22.088  0.00  0.00    +0.000 OA
BRANCH  21  25
ATOM     25  C   UNL     1      -1.846  10.874  19.233  0.00  0.00    +0.000 C 
BRANCH  25  26
ATOM     26  C   UNL     1      -2.534  10.740  17.894  0.00  0.00    +0.000 A 
ATOM     27  C   UNL     1      -3.693  11.469  17.599  0.00  0.00    +0.000 A 
ATOM     28  C   UNL     1      -4.290  11.364  16.341  0.00  0.00    +0.000 A 
ATOM     29  C   UNL     1      -3.731  10.538  15.365  0.00  0.00    +0.000 A 
ATOM     30  C   UNL     1      -2.573   9.815  15.646  0.00  0.00    +0.000 A 
ATOM     31  C   UNL     1      -1.979   9.917  16.902  0.00  0.00    +0.000 A 
ENDBRANCH  25  26
ENDBRANCH  21  25
ENDBRANCH  18  19
ENDBRANCH  16  18
ENDBRANCH   1  15
BRANCH  12  32
ATOM     32  C   UNL     1       4.412   4.347  16.962  0.00  0.00    +0.000 C 
BRANCH  32  33
ATOM     33  C   UNL     1       5.607   5.154  17.427  0.00  0.00    +0.000 A 
ATOM     34  C   UNL     1       6.317   4.774  18.576  0.00  0.00    +0.000 A 
ATOM     35  C   UNL     1       7.395   5.536  19.033  0.00  0.00    +0.000 A 
ATOM     36  C   UNL     1       7.776   6.688  18.349  0.00  0.00    +0.000 A 
ATOM     37  C   UNL     1       7.092   7.068  17.197  0.00  0.00    +0.000 A 
ATOM     38  C   UNL     1       6.015   6.306  16.737  0.00  0.00    +0.000 A 
ENDBRANCH  32  33
ENDBRANCH  12  32
TORSDOF 7
ENDMDL
MODEL 6
REMARK VINA RESULT:      -9.1      1.646      2.695
REMARK  Name = 
REMARK  7 active torsions:
REMARK  status: ('A' for Active; 'I' for Inactive)
REMARK    1  A    between atoms: C_2  and  C_18
REMARK    2  A    between atoms: N_3  and  C_4
REMARK    3  A    between atoms: C_4  and  C_5
REMARK    4  A    between atoms: N_7  and  C_8
REMARK    5  A    between atoms: C_8  and  C_9
REMARK    6  A    between atoms: N_29  and  C_30
REMARK    7  A    between atoms: C_30  and  C_31
REMARK                            x       y       z     vdW  Elec       q    Type
REMARK                         _______ _______ _______ _____ _____    ______ ____
ROOT
ATOM      1  C   UNL     1       1.726   8.424  19.247  0.00  0.00    +0.000 A 
ATOM      2  C   UNL     1       1.444   9.410  18.316  0.00  0.00    +0.000 A 
ATOM      3  N   UNL     1       0.725  10.525  18.583  0.00  0.00    +0.000 NA
ATOM      4  C   UNL     1       0.279  10.706  19.848  0.00  0.00    +0.000 A 
ATOM      5  C   UNL     1       0.578   9.793  20.855  0.00  0.00    +0.000 A 
ATOM      6  C   UNL     1       1.306   8.635  20.559  0.00  0.00    +0.000 A 
ATOM      7  C   UNL     1       0.116  10.073  22.217  0.00  0.00    +0.000 A 
ATOM      8  O   UNL     1       0.335   9.301  23.141  0.00  0.00    +0.000 OA
ATOM      9  N   UNL     1      -0.567  11.246  22.388  0.00  0.00    +0.000 N 
ATOM     10  C   UNL     1      -0.924  12.135  21.411  0.00  0.00    +0.000 A 
ATOM     11  O   UNL     1      -1.585  13.123  21.714  0.00  0.00    +0.000 OA
ATOM     12  N   UNL     1      -0.492  11.854  20.133  0.00  0.00    +0.000 N 
ATOM     13  H   UNL     1      -0.892  11.457  23.319  0.00  0.00    +0.000 HD
ENDROOT
BRANCH   1  15
ATOM     14  O   UNL     1       2.543   6.846  17.704  0.00  0.00    +0.000 OA
ATOM     15  C   UNL     1       2.464   7.190  18.874  0.00  0.00    +0.000 C 
ATOM     16  N   UNL     1       3.040   6.496  19.918  0.00  0.00    +0.000 N 
ATOM     17  H   UNL     1       2.994   6.827  20.870  0.00  0.00    +0.000 HD
BRANCH  16  18
ATOM     18  C   UNL     1       3.735   5.239  19.734  0.00  0.00    +0.000 C 
BRANCH  18  19
ATOM     19  C   UNL     1       4.974   5.337  18.831  0.00  0.00    +0.000 C 
ATOM     20  C   UNL     1       5.193   4.080  17.957  0.00  0.00    +0.000 C 
ATOM     21  N   UNL     1       6.342   4.228  17.021  0.00  0.00    +0.000 NA
ATOM     22  C   UNL     1       7.526   4.572  17.840  0.00  0.00    +0.000 C 
ATOM     23  C   UNL     1       7.309   5.768  18.786  0.00  0.00    +0.000 C 
ATOM     24  O   UNL     1       6.151   5.602  19.626  0.00  0.00    +0.000 OA
BRANCH  21  25
ATOM     25  C   UNL     1       6.030   5.235  15.989  0.00  0.00    +0.000 C 
BRANCH  25  26
ATOM     26  C   UNL     1       6.355   4.832  14.569  0.00  0.00    +0.000 A 
ATOM     27  C   UNL     1       7.469   5.359  13.903  0.00  0.00    +0.000 A 
ATOM     28  C   UNL     1       7.777   4.941  12.607  0.00  0.00    +0.000 A 
ATOM     29  C   UNL     1       6.982   3.990  11.968  0.00  0.00    +0.000 A 
ATOM     30  C   UNL     1       5.877   3.453  12.625  0.00  0.00    +0.000 A 
ATOM     31  C   UNL     1       5.566   3.871  13.917  0.00  0.00    +0.000 A 
ENDBRANCH  25  26
ENDBRANCH  21  25
ENDBRANCH  18  19
ENDBRANCH  16  18
ENDBRANCH   1  15
BRANCH  12  32
ATOM     32  C   UNL     1      -0.866  12.749  19.036  0.00  0.00    +0.000 C 
BRANCH  32  33
ATOM     33  C   UNL     1       0.016  13.979  18.951  0.00  0.00    +0.000 A 
ATOM     34  C   UNL     1      -0.527  15.257  19.152  0.00  0.00    +0.000 A 
ATOM     35  C   UNL     1       0.271  16.397  19.036  0.00  0.00    +0.000 A 
ATOM     36  C   UNL     1       1.621  16.276  18.715  0.00  0.00    +0.000 A 
ATOM     37  C   UNL     1       2.178  15.013  18.528  0.00  0.00    +0.000 A 
ATOM     38  C   UNL     1       1.382  13.871  18.646  0.00  0.00    +0.000 A 
ENDBRANCH  32  33
ENDBRANCH  12  32
TORSDOF 7
ENDMDL
MODEL 7
REMARK VINA RESULT:      -9.1      2.550      9.460
REMARK  Name = 
REMARK  7 active torsions:
REMARK  status: ('A' for Active; 'I' for Inactive)
REMARK    1  A    between atoms: C_2  and  C_18
REMARK    2  A    between atoms: N_3  and  C_4
REMARK    3  A    between atoms: C_4  and  C_5
REMARK    4  A    between atoms: N_7  and  C_8
REMARK    5  A    between atoms: C_8  and  C_9
REMARK    6  A    between atoms: N_29  and  C_30
REMARK    7  A    between atoms: C_30  and  C_31
REMARK                            x       y       z     vdW  Elec       q    Type
REMARK                         _______ _______ _______ _____ _____    ______ ____
ROOT
ATOM      1  C   UNL     1       1.410   7.287  20.450  0.00  0.00    +0.000 A 
ATOM      2  C   UNL     1       2.145   7.601  19.318  0.00  0.00    +0.000 A 
ATOM      3  N   UNL     1       2.848   6.698  18.594  0.00  0.00    +0.000 NA
ATOM      4  C   UNL     1       2.805   5.402  18.979  0.00  0.00    +0.000 A 
ATOM      5  C   UNL     1       2.034   4.998  20.065  0.00  0.00    +0.000 A 
ATOM      6  C   UNL     1       1.329   5.945  20.817  0.00  0.00    +0.000 A 
ATOM      7  C   UNL     1       1.981   3.572  20.399  0.00  0.00    +0.000 A 
ATOM      8  O   UNL     1       1.334   3.159  21.351  0.00  0.00    +0.000 OA
ATOM      9  N   UNL     1       2.695   2.740  19.580  0.00  0.00    +0.000 N 
ATOM     10  C   UNL     1       3.504   3.111  18.541  0.00  0.00    +0.000 A 
ATOM     11  O   UNL     1       4.123   2.247  17.928  0.00  0.00    +0.000 OA
ATOM     12  N   UNL     1       3.552   4.456  18.245  0.00  0.00    +0.000 N 
ATOM     13  H   UNL     1       2.670   1.755  19.792  0.00  0.00    +0.000 HD
ENDROOT
BRANCH   1  15
ATOM     14  O   UNL     1      -0.359   8.098  21.774  0.00  0.00    +0.000 OA
ATOM     15  C   UNL     1       0.715   8.335  21.240  0.00  0.00    +0.000 C 
ATOM     16  N   UNL     1       1.363   9.550  21.329  0.00  0.00    +0.000 N 
ATOM     17  H   UNL     1       2.270   9.703  20.913  0.00  0.00    +0.000 HD
BRANCH  16  18
ATOM     18  C   UNL     1       0.791  10.696  22.003  0.00  0.00    +0.000 C 
BRANCH  18  19
ATOM     19  C   UNL     1       0.356  11.824  21.056  0.00  0.00    +0.000 C 
ATOM     20  C   UNL     1       0.597  11.496  19.563  0.00  0.00    +0.000 C 
ATOM     21  N   UNL     1       0.085  12.558  18.654  0.00  0.00    +0.000 NA
ATOM     22  C   UNL     1       0.718  13.828  19.073  0.00  0.00    +0.000 C 
ATOM     23  C   UNL     1       0.568  14.140  20.573  0.00  0.00    +0.000 C 
ATOM     24  O   UNL     1       1.022  13.058  21.408  0.00  0.00    +0.000 OA
BRANCH  21  25
ATOM     25  C   UNL     1      -1.389  12.596  18.697  0.00  0.00    +0.000 C 
BRANCH  25  26
ATOM     26  C   UNL     1      -2.091  11.593  17.809  0.00  0.00    +0.000 A 
ATOM     27  C   UNL     1      -2.144  11.767  16.421  0.00  0.00    +0.000 A 
ATOM     28  C   UNL     1      -2.759  10.809  15.614  0.00  0.00    +0.000 A 
ATOM     29  C   UNL     1      -3.318   9.665  16.184  0.00  0.00    +0.000 A 
ATOM     30  C   UNL     1      -3.263   9.477  17.563  0.00  0.00    +0.000 A 
ATOM     31  C   UNL     1      -2.652  10.435  18.370  0.00  0.00    +0.000 A 
ENDBRANCH  25  26
ENDBRANCH  21  25
ENDBRANCH  18  19
ENDBRANCH  16  18
ENDBRANCH   1  15
BRANCH  12  32
ATOM     32  C   UNL     1       4.423   4.922  17.164  0.00  0.00    +0.000 C 
BRANCH  32  33
ATOM     33  C   UNL     1       5.672   5.617  17.669  0.00  0.00    +0.000 A 
ATOM     34  C   UNL     1       6.144   6.776  17.036  0.00  0.00    +0.000 A 
ATOM     35  C   UNL     1       7.317   7.399  17.471  0.00  0.00    +0.000 A 
ATOM     36  C   UNL     1       8.033   6.870  18.542  0.00  0.00    +0.000 A 
ATOM     37  C   UNL     1       7.567   5.729  19.191  0.00  0.00    +0.000 A 
ATOM     38  C   UNL     1       6.394   5.106  18.758  0.00  0.00    +0.000 A 
ENDBRANCH  32  33
ENDBRANCH  12  32
TORSDOF 7
ENDMDL
MODEL 8
REMARK VINA RESULT:      -9.1      3.527      9.813
REMARK  Name = 
REMARK  7 active torsions:
REMARK  status: ('A' for Active; 'I' for Inactive)
REMARK    1  A    between atoms: C_2  and  C_18
REMARK    2  A    between atoms: N_3  and  C_4
REMARK    3  A    between atoms: C_4  and  C_5
REMARK    4  A    between atoms: N_7  and  C_8
REMARK    5  A    between atoms: C_8  and  C_9
REMARK    6  A    between atoms: N_29  and  C_30
REMARK    7  A    between atoms: C_30  and  C_31
REMARK                            x       y       z     vdW  Elec       q    Type
REMARK                         _______ _______ _______ _____ _____    ______ ____
ROOT
ATOM      1  C   UNL     1       0.334   9.579  21.379  0.00  0.00    +0.000 A 
ATOM      2  C   UNL     1       0.889   8.445  21.951  0.00  0.00    +0.000 A 
ATOM      3  N   UNL     1       1.685   7.572  21.291  0.00  0.00    +0.000 NA
ATOM      4  C   UNL     1       1.986   7.838  19.998  0.00  0.00    +0.000 A 
ATOM      5  C   UNL     1       1.521   8.991  19.373  0.00  0.00    +0.000 A 
ATOM      6  C   UNL     1       0.682   9.875  20.062  0.00  0.00    +0.000 A 
ATOM      7  C   UNL     1       1.928   9.254  17.990  0.00  0.00    +0.000 A 
ATOM      8  O   UNL     1       1.540  10.242  17.383  0.00  0.00    +0.000 OA
ATOM      9  N   UNL     1       2.766   8.330  17.427  0.00  0.00    +0.000 N 
ATOM     10  C   UNL     1       3.194   7.161  17.995  0.00  0.00    +0.000 A 
ATOM     11  O   UNL     1       3.906   6.405  17.342  0.00  0.00    +0.000 OA
ATOM     12  N   UNL     1       2.795   6.922  19.293  0.00  0.00    +0.000 N 
ATOM     13  H   UNL     1       3.058   8.493  16.476  0.00  0.00    +0.000 HD
ENDROOT
BRANCH   1  15
ATOM     14  O   UNL     1      -0.905  10.185  23.286  0.00  0.00    +0.000 OA
ATOM     15  C   UNL     1      -0.587  10.462  22.139  0.00  0.00    +0.000 C 
ATOM     16  N   UNL     1      -1.028  11.587  21.472  0.00  0.00    +0.000 N 
ATOM     17  H   UNL     1      -0.715  11.811  20.539  0.00  0.00    +0.000 HD
BRANCH  16  18
ATOM     18  C   UNL     1      -1.982  12.514  22.043  0.00  0.00    +0.000 C 
BRANCH  18  19
ATOM     19  C   UNL     1      -3.392  12.407  21.443  0.00  0.00    +0.000 C 
ATOM     20  C   UNL     1      -3.538  13.145  20.092  0.00  0.00    +0.000 C 
ATOM     21  N   UNL     1      -4.882  12.955  19.479  0.00  0.00    +0.000 NA
ATOM     22  C   UNL     1      -5.881  13.388  20.481  0.00  0.00    +0.000 C 
ATOM     23  C   UNL     1      -5.707  12.733  21.865  0.00  0.00    +0.000 C 
ATOM     24  O   UNL     1      -4.374  12.894  22.386  0.00  0.00    +0.000 OA
BRANCH  21  25
ATOM     25  C   UNL     1      -5.051  11.553  19.051  0.00  0.00    +0.000 C 
BRANCH  25  26
ATOM     26  C   UNL     1      -4.144  11.103  17.929  0.00  0.00    +0.000 A 
ATOM     27  C   UNL     1      -3.016  10.312  18.181  0.00  0.00    +0.000 A 
ATOM     28  C   UNL     1      -2.215   9.871  17.126  0.00  0.00    +0.000 A 
ATOM     29  C   UNL     1      -2.538  10.207  15.811  0.00  0.00    +0.000 A 
ATOM     30  C   UNL     1      -3.662  10.985  15.548  0.00  0.00    +0.000 A 
ATOM     31  C   UNL     1      -4.461  11.430  16.600  0.00  0.00    +0.000 A 
ENDBRANCH  25  26
ENDBRANCH  21  25
ENDBRANCH  18  19
ENDBRANCH  16  18
ENDBRANCH   1  15
BRANCH  12  32
ATOM     32  C   UNL     1       3.194   5.675  19.948  0.00  0.00    +0.000 C 
BRANCH  32  33
ATOM     33  C   UNL     1       2.357   4.487  19.518  0.00  0.00    +0.000 A 
ATOM     34  C   UNL     1       1.166   4.177  20.190  0.00  0.00    +0.000 A 
ATOM     35  C   UNL     1       0.410   3.061  19.825  0.00  0.00    +0.000 A 
ATOM     36  C   UNL     1       0.836   2.239  18.784  0.00  0.00    +0.000 A 
ATOM     37  C   UNL     1       2.008   2.543  18.096  0.00  0.00    +0.000 A 
ATOM     38  C   UNL     1       2.764   3.660  18.459  0.00  0.00    +0.000 A 
ENDBRANCH  32  33
ENDBRANCH  12  32
TORSDOF 7
ENDMDL
MODEL 9
REMARK VINA RESULT:      -9.1      1.453      2.712
REMARK  Name = 
REMARK  7 active torsions:
REMARK  status: ('A' for Active; 'I' for Inactive)
REMARK    1  A    between atoms: C_2  and  C_18
REMARK    2  A    between atoms: N_3  and  C_4
REMARK    3  A    between atoms: C_4  and  C_5
REMARK    4  A    between atoms: N_7  and  C_8
REMARK    5  A    between atoms: C_8  and  C_9
REMARK    6  A    between atoms: N_29  and  C_30
REMARK    7  A    between atoms: C_30  and  C_31
REMARK                            x       y       z     vdW  Elec       q    Type
REMARK                         _______ _______ _______ _____ _____    ______ ____
ROOT
ATOM      1  C   UNL     1       1.407   8.064  20.314  0.00  0.00    +0.000 A 
ATOM      2  C   UNL     1       1.341   8.867  19.186  0.00  0.00    +0.000 A 
ATOM      3  N   UNL     1       0.740  10.079  19.149  0.00  0.00    +0.000 NA
ATOM      4  C   UNL     1       0.197  10.555  20.293  0.00  0.00    +0.000 A 
ATOM      5  C   UNL     1       0.282   9.838  21.483  0.00  0.00    +0.000 A 
ATOM      6  C   UNL     1       0.888   8.576  21.502  0.00  0.00    +0.000 A 
ATOM      7  C   UNL     1      -0.275  10.431  22.702  0.00  0.00    +0.000 A 
ATOM      8  O   UNL     1      -0.244   9.843  23.774  0.00  0.00    +0.000 OA
ATOM      9  N   UNL     1      -0.823  11.677  22.564  0.00  0.00    +0.000 N 
ATOM     10  C   UNL     1      -0.970  12.382  21.401  0.00  0.00    +0.000 A 
ATOM     11  O   UNL     1      -1.532  13.472  21.430  0.00  0.00    +0.000 OA
ATOM     12  N   UNL     1      -0.452  11.807  20.261  0.00  0.00    +0.000 N 
ATOM     13  H   UNL     1      -1.210  12.102  23.392  0.00  0.00    +0.000 HD
ENDROOT
BRANCH   1  15
ATOM     14  O   UNL     1       1.387   5.733  20.634  0.00  0.00    +0.000 OA
ATOM     15  C   UNL     1       2.021   6.713  20.273  0.00  0.00    +0.000 C 
ATOM     16  N   UNL     1       3.316   6.656  19.798  0.00  0.00    +0.000 N 
ATOM     17  H   UNL     1       3.800   7.477  19.467  0.00  0.00    +0.000 HD
BRANCH  16  18
ATOM     18  C   UNL     1       4.082   5.428  19.758  0.00  0.00    +0.000 C 
BRANCH  18  19
ATOM     19  C   UNL     1       5.176   5.411  18.679  0.00  0.00    +0.000 C 
ATOM     20  C   UNL     1       5.240   4.079  17.895  0.00  0.00    +0.000 C 
ATOM     21  N   UNL     1       6.241   4.112  16.793  0.00  0.00    +0.000 NA
ATOM     22  C   UNL     1       7.539   4.485  17.399  0.00  0.00    +0.000 C 
ATOM     23  C   UNL     1       7.487   5.763  18.258  0.00  0.00    +0.000 C 
ATOM     24  O   UNL     1       6.462   5.704  19.269  0.00  0.00    +0.000 OA
BRANCH  21  25
ATOM     25  C   UNL     1       5.800   5.039  15.734  0.00  0.00    +0.000 C 
BRANCH  25  26
ATOM     26  C   UNL     1       6.247   4.685  14.334  0.00  0.00    +0.000 A 
ATOM     27  C   UNL     1       7.412   5.235  13.784  0.00  0.00    +0.000 A 
ATOM     28  C   UNL     1       7.831   4.862  12.505  0.00  0.00    +0.000 A 
ATOM     29  C   UNL     1       7.096   3.933  11.769  0.00  0.00    +0.000 A 
ATOM     30  C   UNL     1       5.941   3.374  12.310  0.00  0.00    +0.000 A 
ATOM     31  C   UNL     1       5.519   3.747  13.584  0.00  0.00    +0.000 A 
ENDBRANCH  25  26
ENDBRANCH  21  25
ENDBRANCH  18  19
ENDBRANCH  16  18
ENDBRANCH   1  15
BRANCH  12  32
ATOM     32  C   UNL     1      -0.603  12.496  18.978  0.00  0.00    +0.000 C 
BRANCH  32  33
ATOM     33  C   UNL     1       0.410  13.607  18.780  0.00  0.00    +0.000 A 
ATOM     34  C   UNL     1       1.756  13.304  18.529  0.00  0.00    +0.000 A 
ATOM     35  C   UNL     1       2.702  14.321  18.385  0.00  0.00    +0.000 A 
ATOM     36  C   UNL     1       2.315  15.655  18.493  0.00  0.00    +0.000 A 
ATOM     37  C   UNL     1       0.978  15.972  18.726  0.00  0.00    +0.000 A 
ATOM     38  C   UNL     1       0.031  14.955  18.867  0.00  0.00    +0.000 A 
ENDBRANCH  32  33
ENDBRANCH  12  32
TORSDOF 7
ENDMDL
