MODEL 1
REMARK VINA RESULT:      -9.0      0.000      0.000
REMARK  Name = 
REMARK  6 active torsions:
REMARK  status: ('A' for Active; 'I' for Inactive)
REMARK    1  A    between atoms: C_1  and  C_2
REMARK    2  A    between atoms: C_6  and  C_8
REMARK    3  A    between atoms: C_8  and  C_9
REMARK    4  A    between atoms: C_9  and  N_10
REMARK    5  A    between atoms: N_17  and  C_18
REMARK    6  A    between atoms: C_22  and  C_23
REMARK                            x       y       z     vdW  Elec       q    Type
REMARK                         _______ _______ _______ _____ _____    ______ ____
ROOT
ATOM      1  C   UNL     1       3.947   2.138  19.656  0.00  0.00    +0.000 C 
ATOM      2  C   UNL     1       3.523   3.565  19.745  0.00  0.00    +0.000 A 
ATOM      3  S   UNL     1       2.432   4.078  20.985  0.00  0.00    +0.000 S 
ATOM      4  C   UNL     1       2.509   5.671  20.385  0.00  0.00    +0.000 A 
ATOM      5  N   UNL     1       1.731   6.593  21.034  0.00  0.00    +0.000 N 
ATOM      6  C   UNL     1       1.474   7.826  20.466  0.00  0.00    +0.000 C 
ATOM      7  O   UNL     1       1.874   8.228  19.378  0.00  0.00    +0.000 OA
ATOM      8  N   UNL     1       3.305   5.862  19.370  0.00  0.00    +0.000 NA
ATOM      9  C   UNL     1       3.896   4.671  18.990  0.00  0.00    +0.000 A 
ATOM     10  H   UNL     1       1.253   6.284  21.868  0.00  0.00    +0.000 HD
ENDROOT
BRANCH   9  11
ATOM     11  C   UNL     1       4.879   4.687  17.912  0.00  0.00    +0.000 A 
ATOM     12  C   UNL     1       6.243   4.791  18.245  0.00  0.00    +0.000 A 
ATOM     13  C   UNL     1       7.226   4.778  17.253  0.00  0.00    +0.000 A 
ATOM     14  C   UNL     1       6.846   4.672  15.925  0.00  0.00    +0.000 A 
ATOM     15  F   UNL     1       7.787   4.640  14.968  0.00  0.00    +0.000 F 
ATOM     16  C   UNL     1       5.502   4.601  15.581  0.00  0.00    +0.000 A 
ATOM     17  F   UNL     1       5.135   4.510  14.295  0.00  0.00    +0.000 F 
ATOM     18  C   UNL     1       4.518   4.622  16.563  0.00  0.00    +0.000 A 
ENDBRANCH   9  11
BRANCH   6  19
ATOM     19  C   UNL     1       0.619   8.722  21.342  0.00  0.00    +0.000 C 
BRANCH  19  20
ATOM     20  C   UNL     1       0.857  10.196  20.982  0.00  0.00    +0.000 C 
BRANCH  20  21
ATOM     21  N   UNL     1      -0.325  11.046  21.135  0.00  0.00    +0.000 N 
ATOM     22  C   UNL     1      -0.981  11.541  20.006  0.00  0.00    +0.000 A 
ATOM     23  N   UNL     1      -2.078  12.244  19.995  0.00  0.00    +0.000 NA
ATOM     24  C   UNL     1      -2.574  12.462  21.238  0.00  0.00    +0.000 A 
ATOM     25  C   UNL     1      -2.056  12.013  22.425  0.00  0.00    +0.000 A 
ATOM     26  C   UNL     1      -2.914  12.488  23.419  0.00  0.00    +0.000 A 
ATOM     27  N   UNL     1      -3.924  13.204  22.909  0.00  0.00    +0.000 NA
ATOM     28  N   UNL     1      -3.699  13.171  21.571  0.00  0.00    +0.000 N 
ATOM     29  C   UNL     1      -4.609  13.845  20.679  0.00  0.00    +0.000 C 
ATOM     30  C   UNL     1      -0.863  11.221  22.418  0.00  0.00    +0.000 A 
ATOM     31  O   UNL     1      -0.381  10.742  23.441  0.00  0.00    +0.000 OA
ENDBRANCH  20  21
ENDBRANCH  19  20
ENDBRANCH   6  19
TORSDOF 4
ENDMDL
MODEL 2
REMARK VINA RESULT:      -9.0      1.670      2.452
REMARK  Name = 
REMARK  6 active torsions:
REMARK  status: ('A' for Active; 'I' for Inactive)
REMARK    1  A    between atoms: C_1  and  C_2
REMARK    2  A    between atoms: C_6  and  C_8
REMARK    3  A    between atoms: C_8  and  C_9
REMARK    4  A    between atoms: C_9  and  N_10
REMARK    5  A    between atoms: N_17  and  C_18
REMARK    6  A    between atoms: C_22  and  C_23
REMARK                            x       y       z     vdW  Elec       q    Type
REMARK                         _______ _______ _______ _____ _____    ______ ____
ROOT
ATOM      1  C   UNL     1       3.353   2.542  19.708  0.00  0.00    +0.000 C 
ATOM      2  C   UNL     1       3.085   4.009  19.697  0.00  0.00    +0.000 A 
ATOM      3  S   UNL     1       1.985   4.707  20.835  0.00  0.00    +0.000 S 
ATOM      4  C   UNL     1       2.274   6.245  20.162  0.00  0.00    +0.000 A 
ATOM      5  N   UNL     1       1.565   7.281  20.711  0.00  0.00    +0.000 N 
ATOM      6  C   UNL     1       1.481   8.500  20.066  0.00  0.00    +0.000 C 
ATOM      7  O   UNL     1       1.988   8.793  18.987  0.00  0.00    +0.000 OA
ATOM      8  N   UNL     1       3.146   6.291  19.194  0.00  0.00    +0.000 NA
ATOM      9  C   UNL     1       3.623   5.023  18.914  0.00  0.00    +0.000 A 
ATOM     10  H   UNL     1       1.007   7.074  21.526  0.00  0.00    +0.000 HD
ENDROOT
BRANCH   9  11
ATOM     11  C   UNL     1       4.664   4.872  17.904  0.00  0.00    +0.000 A 
ATOM     12  C   UNL     1       6.011   4.956  18.306  0.00  0.00    +0.000 A 
ATOM     13  C   UNL     1       7.047   4.787  17.384  0.00  0.00    +0.000 A 
ATOM     14  C   UNL     1       6.737   4.542  16.056  0.00  0.00    +0.000 A 
ATOM     15  F   UNL     1       7.727   4.360  15.168  0.00  0.00    +0.000 F 
ATOM     16  C   UNL     1       5.413   4.489  15.640  0.00  0.00    +0.000 A 
ATOM     17  F   UNL     1       5.115   4.265  14.352  0.00  0.00    +0.000 F 
ATOM     18  C   UNL     1       4.377   4.666  16.551  0.00  0.00    +0.000 A 
ENDBRANCH   9  11
BRANCH   6  19
ATOM     19  C   UNL     1       0.679   9.531  20.837  0.00  0.00    +0.000 C 
BRANCH  19  20
ATOM     20  C   UNL     1       0.498  10.800  19.991  0.00  0.00    +0.000 C 
BRANCH  20  21
ATOM     21  N   UNL     1      -0.894  11.093  19.645  0.00  0.00    +0.000 N 
ATOM     22  C   UNL     1      -1.645  11.957  20.444  0.00  0.00    +0.000 A 
ATOM     23  N   UNL     1      -2.864  12.359  20.215  0.00  0.00    +0.000 NA
ATOM     24  C   UNL     1      -3.375  11.856  19.065  0.00  0.00    +0.000 A 
ATOM     25  C   UNL     1      -2.744  11.027  18.173  0.00  0.00    +0.000 A 
ATOM     26  C   UNL     1      -3.669  10.789  17.155  0.00  0.00    +0.000 A 
ATOM     27  N   UNL     1      -4.830  11.419  17.374  0.00  0.00    +0.000 NA
ATOM     28  N   UNL     1      -4.625  12.071  18.546  0.00  0.00    +0.000 N 
ATOM     29  C   UNL     1      -5.680  12.880  19.105  0.00  0.00    +0.000 C 
ATOM     30  C   UNL     1      -1.397  10.614  18.428  0.00  0.00    +0.000 A 
ATOM     31  O   UNL     1      -0.758   9.920  17.640  0.00  0.00    +0.000 OA
ENDBRANCH  20  21
ENDBRANCH  19  20
ENDBRANCH   6  19
TORSDOF 4
ENDMDL
MODEL 3
REMARK VINA RESULT:      -8.9      1.734      2.617
REMARK  Name = 
REMARK  6 active torsions:
REMARK  status: ('A' for Active; 'I' for Inactive)
REMARK    1  A    between atoms: C_1  and  C_2
REMARK    2  A    between atoms: C_6  and  C_8
REMARK    3  A    between atoms: C_8  and  C_9
REMARK    4  A    between atoms: C_9  and  N_10
REMARK    5  A    between atoms: N_17  and  C_18
REMARK    6  A    between atoms: C_22  and  C_23
REMARK                            x       y       z     vdW  Elec       q    Type
REMARK                         _______ _______ _______ _____ _____    ______ ____
ROOT
ATOM      1  C   UNL     1       3.746   2.672  19.682  0.00  0.00    +0.000 C 
ATOM      2  C   UNL     1       3.355   4.112  19.670  0.00  0.00    +0.000 A 
ATOM      3  S   UNL     1       2.255   4.730  20.853  0.00  0.00    +0.000 S 
ATOM      4  C   UNL     1       2.381   6.277  20.152  0.00  0.00    +0.000 A 
ATOM      5  N   UNL     1       1.613   7.258  20.724  0.00  0.00    +0.000 N 
ATOM      6  C   UNL     1       1.397   8.456  20.072  0.00  0.00    +0.000 C 
ATOM      7  O   UNL     1       1.826   8.777  18.967  0.00  0.00    +0.000 OA
ATOM      8  N   UNL     1       3.199   6.383  19.142  0.00  0.00    +0.000 NA
ATOM      9  C   UNL     1       3.768   5.157  18.852  0.00  0.00    +0.000 A 
ATOM     10  H   UNL     1       1.113   7.015  21.566  0.00  0.00    +0.000 HD
ENDROOT
BRANCH   9  11
ATOM     11  C   UNL     1       4.770   5.079  17.795  0.00  0.00    +0.000 A 
ATOM     12  C   UNL     1       4.592   4.136  16.765  0.00  0.00    +0.000 A 
ATOM     13  C   UNL     1       5.504   4.043  15.712  0.00  0.00    +0.000 A 
ATOM     14  C   UNL     1       6.603   4.886  15.692  0.00  0.00    +0.000 A 
ATOM     15  F   UNL     1       7.475   4.814  14.673  0.00  0.00    +0.000 F 
ATOM     16  C   UNL     1       6.809   5.799  16.719  0.00  0.00    +0.000 A 
ATOM     17  F   UNL     1       7.880   6.605  16.705  0.00  0.00    +0.000 F 
ATOM     18  C   UNL     1       5.908   5.891  17.775  0.00  0.00    +0.000 A 
ENDBRANCH   9  11
BRANCH   6  19
ATOM     19  C   UNL     1       0.547   9.427  20.870  0.00  0.00    +0.000 C 
BRANCH  19  20
ATOM     20  C   UNL     1       0.404  10.754  20.109  0.00  0.00    +0.000 C 
BRANCH  20  21
ATOM     21  N   UNL     1      -0.979  11.114  19.793  0.00  0.00    +0.000 N 
ATOM     22  C   UNL     1      -1.696  11.952  20.650  0.00  0.00    +0.000 A 
ATOM     23  N   UNL     1      -2.901  12.408  20.457  0.00  0.00    +0.000 NA
ATOM     24  C   UNL     1      -3.436  11.995  19.282  0.00  0.00    +0.000 A 
ATOM     25  C   UNL     1      -2.839  11.202  18.336  0.00  0.00    +0.000 A 
ATOM     26  C   UNL     1      -3.778  11.059  17.312  0.00  0.00    +0.000 A 
ATOM     27  N   UNL     1      -4.915  11.713  17.579  0.00  0.00    +0.000 NA
ATOM     28  N   UNL     1      -4.681  12.284  18.788  0.00  0.00    +0.000 N 
ATOM     29  C   UNL     1      -5.705  13.092  19.404  0.00  0.00    +0.000 C 
ATOM     30  C   UNL     1      -1.506  10.729  18.553  0.00  0.00    +0.000 A 
ATOM     31  O   UNL     1      -0.896  10.064  17.719  0.00  0.00    +0.000 OA
ENDBRANCH  20  21
ENDBRANCH  19  20
ENDBRANCH   6  19
TORSDOF 4
ENDMDL
MODEL 4
REMARK VINA RESULT:      -8.9      1.220      1.976
REMARK  Name = 
REMARK  6 active torsions:
REMARK  status: ('A' for Active; 'I' for Inactive)
REMARK    1  A    between atoms: C_1  and  C_2
REMARK    2  A    between atoms: C_6  and  C_8
REMARK    3  A    between atoms: C_8  and  C_9
REMARK    4  A    between atoms: C_9  and  N_10
REMARK    5  A    between atoms: N_17  and  C_18
REMARK    6  A    between atoms: C_22  and  C_23
REMARK                            x       y       z     vdW  Elec       q    Type
REMARK                         _______ _______ _______ _____ _____    ______ ____
ROOT
ATOM      1  C   UNL     1       2.874   1.923  18.630  0.00  0.00    +0.000 C 
ATOM      2  C   UNL     1       2.760   3.350  19.051  0.00  0.00    +0.000 A 
ATOM      3  S   UNL     1       1.625   3.812  20.272  0.00  0.00    +0.000 S 
ATOM      4  C   UNL     1       2.137   5.431  20.125  0.00  0.00    +0.000 A 
ATOM      5  N   UNL     1       1.484   6.339  20.916  0.00  0.00    +0.000 N 
ATOM      6  C   UNL     1       1.591   7.695  20.672  0.00  0.00    +0.000 C 
ATOM      7  O   UNL     1       2.233   8.228  19.772  0.00  0.00    +0.000 OA
ATOM      8  N   UNL     1       3.103   5.650  19.278  0.00  0.00    +0.000 NA
ATOM      9  C   UNL     1       3.475   4.473  18.655  0.00  0.00    +0.000 A 
ATOM     10  H   UNL     1       0.827   5.973  21.589  0.00  0.00    +0.000 HD
ENDROOT
BRANCH   9  11
ATOM     11  C   UNL     1       4.594   4.496  17.719  0.00  0.00    +0.000 A 
ATOM     12  C   UNL     1       4.318   4.584  16.341  0.00  0.00    +0.000 A 
ATOM     13  C   UNL     1       5.353   4.641  15.405  0.00  0.00    +0.000 A 
ATOM     14  C   UNL     1       6.666   4.602  15.844  0.00  0.00    +0.000 A 
ATOM     15  F   UNL     1       7.666   4.676  14.951  0.00  0.00    +0.000 F 
ATOM     16  C   UNL     1       6.952   4.483  17.199  0.00  0.00    +0.000 A 
ATOM     17  F   UNL     1       8.223   4.433  17.621  0.00  0.00    +0.000 F 
ATOM     18  C   UNL     1       5.926   4.416  18.136  0.00  0.00    +0.000 A 
ENDBRANCH   9  11
BRANCH   6  19
ATOM     19  C   UNL     1       0.823   8.545  21.667  0.00  0.00    +0.000 C 
BRANCH  19  20
ATOM     20  C   UNL     1       0.855  10.019  21.238  0.00  0.00    +0.000 C 
BRANCH  20  21
ATOM     21  N   UNL     1      -0.367  10.760  21.557  0.00  0.00    +0.000 N 
ATOM     22  C   UNL     1      -0.868  10.752  22.860  0.00  0.00    +0.000 A 
ATOM     23  N   UNL     1      -1.898  11.420  23.297  0.00  0.00    +0.000 NA
ATOM     24  C   UNL     1      -2.475  12.183  22.335  0.00  0.00    +0.000 A 
ATOM     25  C   UNL     1      -2.073  12.310  21.031  0.00  0.00    +0.000 A 
ATOM     26  C   UNL     1      -2.972  13.201  20.441  0.00  0.00    +0.000 A 
ATOM     27  N   UNL     1      -3.903  13.622  21.308  0.00  0.00    +0.000 NA
ATOM     28  N   UNL     1      -3.575  12.989  22.463  0.00  0.00    +0.000 N 
ATOM     29  C   UNL     1      -4.370  13.211  23.646  0.00  0.00    +0.000 C 
ATOM     30  C   UNL     1      -0.925  11.588  20.574  0.00  0.00    +0.000 A 
ATOM     31  O   UNL     1      -0.482  11.704  19.434  0.00  0.00    +0.000 OA
ENDBRANCH  20  21
ENDBRANCH  19  20
ENDBRANCH   6  19
TORSDOF 4
ENDMDL
MODEL 5
REMARK VINA RESULT:      -8.9      1.091      1.575
REMARK  Name = 
REMARK  6 active torsions:
REMARK  status: ('A' for Active; 'I' for Inactive)
REMARK    1  A    between atoms: C_1  and  C_2
REMARK    2  A    between atoms: C_6  and  C_8
REMARK    3  A    between atoms: C_8  and  C_9
REMARK    4  A    between atoms: C_9  and  N_10
REMARK    5  A    between atoms: N_17  and  C_18
REMARK    6  A    between atoms: C_22  and  C_23
REMARK                            x       y       z     vdW  Elec       q    Type
REMARK                         _______ _______ _______ _____ _____    ______ ____
ROOT
ATOM      1  C   UNL     1       3.557   2.137  19.504  0.00  0.00    +0.000 C 
ATOM      2  C   UNL     1       3.262   3.594  19.639  0.00  0.00    +0.000 A 
ATOM      3  S   UNL     1       2.193   4.159  20.876  0.00  0.00    +0.000 S 
ATOM      4  C   UNL     1       2.428   5.758  20.339  0.00  0.00    +0.000 A 
ATOM      5  N   UNL     1       1.722   6.724  21.006  0.00  0.00    +0.000 N 
ATOM      6  C   UNL     1       1.590   7.995  20.481  0.00  0.00    +0.000 C 
ATOM      7  O   UNL     1       2.050   8.397  19.416  0.00  0.00    +0.000 OA
ATOM      8  N   UNL     1       3.261   5.913  19.347  0.00  0.00    +0.000 NA
ATOM      9  C   UNL     1       3.750   4.687  18.934  0.00  0.00    +0.000 A 
ATOM     10  H   UNL     1       1.199   6.430  21.819  0.00  0.00    +0.000 HD
ENDROOT
BRANCH   9  11
ATOM     11  C   UNL     1       4.754   4.652  17.876  0.00  0.00    +0.000 A 
ATOM     12  C   UNL     1       6.111   4.788  18.230  0.00  0.00    +0.000 A 
ATOM     13  C   UNL     1       7.114   4.730  17.260  0.00  0.00    +0.000 A 
ATOM     14  C   UNL     1       6.762   4.545  15.933  0.00  0.00    +0.000 A 
ATOM     15  F   UNL     1       7.722   4.469  14.998  0.00  0.00    +0.000 F 
ATOM     16  C   UNL     1       5.426   4.442  15.566  0.00  0.00    +0.000 A 
ATOM     17  F   UNL     1       5.087   4.275  14.280  0.00  0.00    +0.000 F 
ATOM     18  C   UNL     1       4.422   4.508  16.526  0.00  0.00    +0.000 A 
ENDBRANCH   9  11
BRANCH   6  19
ATOM     19  C   UNL     1       0.799   8.933  21.373  0.00  0.00    +0.000 C 
BRANCH  19  20
ATOM     20  C   UNL     1       0.265  10.117  20.553  0.00  0.00    +0.000 C 
BRANCH  20  21
ATOM     21  N   UNL     1      -0.787  10.882  21.226  0.00  0.00    +0.000 N 
ATOM     22  C   UNL     1      -0.983  10.740  22.601  0.00  0.00    +0.000 A 
ATOM     23  N   UNL     1      -1.828  11.407  23.335  0.00  0.00    +0.000 NA
ATOM     24  C   UNL     1      -2.537  12.316  22.623  0.00  0.00    +0.000 A 
ATOM     25  C   UNL     1      -2.428  12.583  21.283  0.00  0.00    +0.000 A 
ATOM     26  C   UNL     1      -3.357  13.592  21.019  0.00  0.00    +0.000 A 
ATOM     27  N   UNL     1      -4.030  13.954  22.118  0.00  0.00    +0.000 NA
ATOM     28  N   UNL     1      -3.508  13.164  23.089  0.00  0.00    +0.000 N 
ATOM     29  C   UNL     1      -3.996  13.281  24.441  0.00  0.00    +0.000 C 
ATOM     30  C   UNL     1      -1.478  11.858  20.495  0.00  0.00    +0.000 A 
ATOM     31  O   UNL     1      -1.292  12.090  19.303  0.00  0.00    +0.000 OA
ENDBRANCH  20  21
ENDBRANCH  19  20
ENDBRANCH   6  19
TORSDOF 4
ENDMDL
MODEL 6
REMARK VINA RESULT:      -8.9      4.703      9.970
REMARK  Name = 
REMARK  6 active torsions:
REMARK  status: ('A' for Active; 'I' for Inactive)
REMARK    1  A    between atoms: C_1  and  C_2
REMARK    2  A    between atoms: C_6  and  C_8
REMARK    3  A    between atoms: C_8  and  C_9
REMARK    4  A    between atoms: C_9  and  N_10
REMARK    5  A    between atoms: N_17  and  C_18
REMARK    6  A    between atoms: C_22  and  C_23
REMARK                            x       y       z     vdW  Elec       q    Type
REMARK                         _______ _______ _______ _____ _____    ______ ____
ROOT
ATOM      1  C   UNL     1       1.827  10.510  18.134  0.00  0.00    +0.000 C 
ATOM      2  C   UNL     1       1.816   9.156  18.761  0.00  0.00    +0.000 A 
ATOM      3  S   UNL     1       2.724   7.860  18.061  0.00  0.00    +0.000 S 
ATOM      4  C   UNL     1       2.186   6.823  19.301  0.00  0.00    +0.000 A 
ATOM      5  N   UNL     1       2.612   5.523  19.221  0.00  0.00    +0.000 N 
ATOM      6  C   UNL     1       2.011   4.534  19.975  0.00  0.00    +0.000 C 
ATOM      7  O   UNL     1       1.075   4.676  20.756  0.00  0.00    +0.000 OA
ATOM      8  N   UNL     1       1.424   7.364  20.210  0.00  0.00    +0.000 NA
ATOM      9  C   UNL     1       1.203   8.698  19.921  0.00  0.00    +0.000 A 
ATOM     10  H   UNL     1       3.284   5.304  18.499  0.00  0.00    +0.000 HD
ENDROOT
BRANCH   9  11
ATOM     11  C   UNL     1       0.429   9.502  20.861  0.00  0.00    +0.000 A 
ATOM     12  C   UNL     1       0.410   9.122  22.217  0.00  0.00    +0.000 A 
ATOM     13  C   UNL     1      -0.289   9.875  23.163  0.00  0.00    +0.000 A 
ATOM     14  C   UNL     1      -0.980  11.003  22.753  0.00  0.00    +0.000 A 
ATOM     15  F   UNL     1      -1.639  11.742  23.660  0.00  0.00    +0.000 F 
ATOM     16  C   UNL     1      -0.997  11.371  21.414  0.00  0.00    +0.000 A 
ATOM     17  F   UNL     1      -1.677  12.456  21.017  0.00  0.00    +0.000 F 
ATOM     18  C   UNL     1      -0.310  10.621  20.465  0.00  0.00    +0.000 A 
ENDBRANCH   9  11
BRANCH   6  19
ATOM     19  C   UNL     1       2.635   3.166  19.775  0.00  0.00    +0.000 C 
BRANCH  19  20
ATOM     20  C   UNL     1       4.161   3.253  19.925  0.00  0.00    +0.000 C 
BRANCH  20  21
ATOM     21  N   UNL     1       4.860   3.629  18.694  0.00  0.00    +0.000 N 
ATOM     22  C   UNL     1       4.452   3.099  17.469  0.00  0.00    +0.000 A 
ATOM     23  N   UNL     1       4.935   3.400  16.297  0.00  0.00    +0.000 NA
ATOM     24  C   UNL     1       5.914   4.336  16.357  0.00  0.00    +0.000 A 
ATOM     25  C   UNL     1       6.391   4.962  17.480  0.00  0.00    +0.000 A 
ATOM     26  C   UNL     1       7.383   5.837  17.035  0.00  0.00    +0.000 A 
ATOM     27  N   UNL     1       7.544   5.780  15.707  0.00  0.00    +0.000 NA
ATOM     28  N   UNL     1       6.631   4.858  15.312  0.00  0.00    +0.000 N 
ATOM     29  C   UNL     1       6.507   4.533  13.913  0.00  0.00    +0.000 C 
ATOM     30  C   UNL     1       5.833   4.636  18.758  0.00  0.00    +0.000 A 
ATOM     31  O   UNL     1       6.177   5.202  19.793  0.00  0.00    +0.000 OA
ENDBRANCH  20  21
ENDBRANCH  19  20
ENDBRANCH   6  19
TORSDOF 4
ENDMDL
MODEL 7
REMARK VINA RESULT:      -8.8      1.800      1.871
REMARK  Name = 
REMARK  6 active torsions:
REMARK  status: ('A' for Active; 'I' for Inactive)
REMARK    1  A    between atoms: C_1  and  C_2
REMARK    2  A    between atoms: C_6  and  C_8
REMARK    3  A    between atoms: C_8  and  C_9
REMARK    4  A    between atoms: C_9  and  N_10
REMARK    5  A    between atoms: N_17  and  C_18
REMARK    6  A    between atoms: C_22  and  C_23
REMARK                            x       y       z     vdW  Elec       q    Type
REMARK                         _______ _______ _______ _____ _____    ______ ____
ROOT
ATOM      1  C   UNL     1       3.708   1.816  18.544  0.00  0.00    +0.000 C 
ATOM      2  C   UNL     1       3.435   3.230  18.933  0.00  0.00    +0.000 A 
ATOM      3  S   UNL     1       2.435   3.585  20.299  0.00  0.00    +0.000 S 
ATOM      4  C   UNL     1       2.659   5.250  20.023  0.00  0.00    +0.000 A 
ATOM      5  N   UNL     1       1.997   6.094  20.876  0.00  0.00    +0.000 N 
ATOM      6  C   UNL     1       1.852   7.434  20.575  0.00  0.00    +0.000 C 
ATOM      7  O   UNL     1       2.262   8.006  19.570  0.00  0.00    +0.000 OA
ATOM      8  N   UNL     1       3.443   5.565  19.029  0.00  0.00    +0.000 NA
ATOM      9  C   UNL     1       3.899   4.424  18.395  0.00  0.00    +0.000 A 
ATOM     10  H   UNL     1       1.512   5.670  21.654  0.00  0.00    +0.000 HD
ENDROOT
BRANCH   9  11
ATOM     11  C   UNL     1       4.849   4.563  17.297  0.00  0.00    +0.000 A 
ATOM     12  C   UNL     1       6.149   5.020  17.584  0.00  0.00    +0.000 A 
ATOM     13  C   UNL     1       7.107   5.141  16.575  0.00  0.00    +0.000 A 
ATOM     14  C   UNL     1       6.762   4.813  15.273  0.00  0.00    +0.000 A 
ATOM     15  F   UNL     1       7.683   4.909  14.301  0.00  0.00    +0.000 F 
ATOM     16  C   UNL     1       5.474   4.392  14.970  0.00  0.00    +0.000 A 
ATOM     17  F   UNL     1       5.139   4.088  13.709  0.00  0.00    +0.000 F 
ATOM     18  C   UNL     1       4.513   4.279  15.970  0.00  0.00    +0.000 A 
ENDBRANCH   9  11
BRANCH   6  19
ATOM     19  C   UNL     1       1.116   8.213  21.649  0.00  0.00    +0.000 C 
BRANCH  19  20
ATOM     20  C   UNL     1      -0.172   8.819  21.073  0.00  0.00    +0.000 C 
BRANCH  20  21
ATOM     21  N   UNL     1      -0.084  10.255  20.797  0.00  0.00    +0.000 N 
ATOM     22  C   UNL     1      -0.028  10.710  19.479  0.00  0.00    +0.000 A 
ATOM     23  N   UNL     1      -0.020  11.954  19.090  0.00  0.00    +0.000 NA
ATOM     24  C   UNL     1      -0.090  12.828  20.124  0.00  0.00    +0.000 A 
ATOM     25  C   UNL     1      -0.181  12.523  21.458  0.00  0.00    +0.000 A 
ATOM     26  C   UNL     1      -0.229  13.749  22.125  0.00  0.00    +0.000 A 
ATOM     27  N   UNL     1      -0.169  14.784  21.278  0.00  0.00    +0.000 NA
ATOM     28  N   UNL     1      -0.089  14.197  20.058  0.00  0.00    +0.000 N 
ATOM     29  C   UNL     1      -0.015  15.019  18.876  0.00  0.00    +0.000 C 
ATOM     30  C   UNL     1      -0.212  11.152  21.867  0.00  0.00    +0.000 A 
ATOM     31  O   UNL     1      -0.350  10.814  23.040  0.00  0.00    +0.000 OA
ENDBRANCH  20  21
ENDBRANCH  19  20
ENDBRANCH   6  19
TORSDOF 4
ENDMDL
MODEL 8
REMARK VINA RESULT:      -8.8      1.696      2.050
REMARK  Name = 
REMARK  6 active torsions:
REMARK  status: ('A' for Active; 'I' for Inactive)
REMARK    1  A    between atoms: C_1  and  C_2
REMARK    2  A    between atoms: C_6  and  C_8
REMARK    3  A    between atoms: C_8  and  C_9
REMARK    4  A    between atoms: C_9  and  N_10
REMARK    5  A    between atoms: N_17  and  C_18
REMARK    6  A    between atoms: C_22  and  C_23
REMARK                            x       y       z     vdW  Elec       q    Type
REMARK                         _______ _______ _______ _____ _____    ______ ____
ROOT
ATOM      1  C   UNL     1       3.618   1.874  18.263  0.00  0.00    +0.000 C 
ATOM      2  C   UNL     1       3.367   3.280  18.692  0.00  0.00    +0.000 A 
ATOM      3  S   UNL     1       2.346   3.612  20.049  0.00  0.00    +0.000 S 
ATOM      4  C   UNL     1       2.611   5.281  19.832  0.00  0.00    +0.000 A 
ATOM      5  N   UNL     1       1.949   6.110  20.698  0.00  0.00    +0.000 N 
ATOM      6  C   UNL     1       1.840   7.462  20.439  0.00  0.00    +0.000 C 
ATOM      7  O   UNL     1       2.283   8.058  19.462  0.00  0.00    +0.000 OA
ATOM      8  N   UNL     1       3.422   5.610  18.865  0.00  0.00    +0.000 NA
ATOM      9  C   UNL     1       3.867   4.481  18.203  0.00  0.00    +0.000 A 
ATOM     10  H   UNL     1       1.439   5.672  21.452  0.00  0.00    +0.000 HD
ENDROOT
BRANCH   9  11
ATOM     11  C   UNL     1       4.843   4.634  17.130  0.00  0.00    +0.000 A 
ATOM     12  C   UNL     1       6.103   5.182  17.438  0.00  0.00    +0.000 A 
ATOM     13  C   UNL     1       7.085   5.321  16.454  0.00  0.00    +0.000 A 
ATOM     14  C   UNL     1       6.804   4.921  15.157  0.00  0.00    +0.000 A 
ATOM     15  F   UNL     1       7.749   5.035  14.210  0.00  0.00    +0.000 F 
ATOM     16  C   UNL     1       5.554   4.409  14.833  0.00  0.00    +0.000 A 
ATOM     17  F   UNL     1       5.280   4.035  13.575  0.00  0.00    +0.000 F 
ATOM     18  C   UNL     1       4.569   4.277  15.806  0.00  0.00    +0.000 A 
ENDBRANCH   9  11
BRANCH   6  19
ATOM     19  C   UNL     1       1.098   8.222  21.522  0.00  0.00    +0.000 C 
BRANCH  19  20
ATOM     20  C   UNL     1      -0.221   8.781  20.968  0.00  0.00    +0.000 C 
BRANCH  20  21
ATOM     21  N   UNL     1      -0.510  10.154  21.387  0.00  0.00    +0.000 N 
ATOM     22  C   UNL     1      -0.581  10.470  22.745  0.00  0.00    +0.000 A 
ATOM     23  N   UNL     1      -0.758  11.656  23.255  0.00  0.00    +0.000 NA
ATOM     24  C   UNL     1      -0.860  12.623  22.311  0.00  0.00    +0.000 A 
ATOM     25  C   UNL     1      -0.778  12.463  20.952  0.00  0.00    +0.000 A 
ATOM     26  C   UNL     1      -0.939  13.739  20.408  0.00  0.00    +0.000 A 
ATOM     27  N   UNL     1      -1.119  14.669  21.354  0.00  0.00    +0.000 NA
ATOM     28  N   UNL     1      -1.062  13.964  22.512  0.00  0.00    +0.000 N 
ATOM     29  C   UNL     1      -1.210  14.650  23.772  0.00  0.00    +0.000 C 
ATOM     30  C   UNL     1      -0.560  11.156  20.409  0.00  0.00    +0.000 A 
ATOM     31  O   UNL     1      -0.420  10.956  19.204  0.00  0.00    +0.000 OA
ENDBRANCH  20  21
ENDBRANCH  19  20
ENDBRANCH   6  19
TORSDOF 4
ENDMDL
MODEL 9
REMARK VINA RESULT:      -8.7      2.581      3.533
REMARK  Name = 
REMARK  6 active torsions:
REMARK  status: ('A' for Active; 'I' for Inactive)
REMARK    1  A    between atoms: C_1  and  C_2
REMARK    2  A    between atoms: C_6  and  C_8
REMARK    3  A    between atoms: C_8  and  C_9
REMARK    4  A    between atoms: C_9  and  N_10
REMARK    5  A    between atoms: N_17  and  C_18
REMARK    6  A    between atoms: C_22  and  C_23
REMARK                            x       y       z     vdW  Elec       q    Type
REMARK                         _______ _______ _______ _____ _____    ______ ____
ROOT
ATOM      1  C   UNL     1       3.535   2.275  19.854  0.00  0.00    +0.000 C 
ATOM      2  C   UNL     1       3.221   3.734  19.843  0.00  0.00    +0.000 A 
ATOM      3  S   UNL     1       2.120   4.400  20.999  0.00  0.00    +0.000 S 
ATOM      4  C   UNL     1       2.349   5.944  20.316  0.00  0.00    +0.000 A 
ATOM      5  N   UNL     1       1.618   6.960  20.874  0.00  0.00    +0.000 N 
ATOM      6  C   UNL     1       1.484   8.173  20.226  0.00  0.00    +0.000 C 
ATOM      7  O   UNL     1       1.962   8.478  19.138  0.00  0.00    +0.000 OA
ATOM      8  N   UNL     1       3.201   6.014  19.331  0.00  0.00    +0.000 NA
ATOM      9  C   UNL     1       3.713   4.761  19.047  0.00  0.00    +0.000 A 
ATOM     10  H   UNL     1       1.080   6.738  21.699  0.00  0.00    +0.000 HD
ENDROOT
BRANCH   9  11
ATOM     11  C   UNL     1       4.740   4.638  18.019  0.00  0.00    +0.000 A 
ATOM     12  C   UNL     1       4.343   4.620  16.668  0.00  0.00    +0.000 A 
ATOM     13  C   UNL     1       5.288   4.536  15.643  0.00  0.00    +0.000 A 
ATOM     14  C   UNL     1       6.633   4.461  15.968  0.00  0.00    +0.000 A 
ATOM     15  F   UNL     1       7.548   4.400  14.988  0.00  0.00    +0.000 F 
ATOM     16  C   UNL     1       7.037   4.446  17.297  0.00  0.00    +0.000 A 
ATOM     17  F   UNL     1       8.337   4.361  17.610  0.00  0.00    +0.000 F 
ATOM     18  C   UNL     1       6.099   4.520  18.323  0.00  0.00    +0.000 A 
ENDBRANCH   9  11
BRANCH   6  19
ATOM     19  C   UNL     1       0.663   9.182  21.008  0.00  0.00    +0.000 C 
BRANCH  19  20
ATOM     20  C   UNL     1       0.088  10.244  20.060  0.00  0.00    +0.000 C 
BRANCH  20  21
ATOM     21  N   UNL     1       0.952  11.412  19.879  0.00  0.00    +0.000 N 
ATOM     22  C   UNL     1       1.624  11.603  18.670  0.00  0.00    +0.000 A 
ATOM     23  N   UNL     1       2.363  12.627  18.349  0.00  0.00    +0.000 NA
ATOM     24  C   UNL     1       2.422  13.560  19.331  0.00  0.00    +0.000 A 
ATOM     25  C   UNL     1       1.792  13.519  20.548  0.00  0.00    +0.000 A 
ATOM     26  C   UNL     1       2.154  14.697  21.204  0.00  0.00    +0.000 A 
ATOM     27  N   UNL     1       2.972  15.454  20.461  0.00  0.00    +0.000 NA
ATOM     28  N   UNL     1       3.119  14.740  19.316  0.00  0.00    +0.000 N 
ATOM     29  C   UNL     1       3.945  15.259  18.254  0.00  0.00    +0.000 C 
ATOM     30  C   UNL     1       0.965  12.397  20.876  0.00  0.00    +0.000 A 
ATOM     31  O   UNL     1       0.329  12.328  21.925  0.00  0.00    +0.000 OA
ENDBRANCH  20  21
ENDBRANCH  19  20
ENDBRANCH   6  19
TORSDOF 4
ENDMDL
