MODEL 1
REMARK VINA RESULT:      -8.9      0.000      0.000
REMARK  Name = 
REMARK  6 active torsions:
REMARK  status: ('A' for Active; 'I' for Inactive)
REMARK    1  A    between atoms: C_1  and  C_2
REMARK    2  A    between atoms: C_4  and  C_5
REMARK    3  A    between atoms: C_5  and  N_6
REMARK    4  A    between atoms: C_7  and  C_9
REMARK    5  A    between atoms: C_9  and  C_10
REMARK    6  A    between atoms: C_13  and  C_14
REMARK                            x       y       z     vdW  Elec       q    Type
REMARK                         _______ _______ _______ _____ _____    ______ ____
ROOT
ATOM      1  N   UNL     1       4.185   4.751  18.983  0.00  0.00    +0.000 N 
ATOM      2  C   UNL     1       4.777   4.724  17.744  0.00  0.00    +0.000 C 
ATOM      3  O   UNL     1       4.130   4.700  16.698  0.00  0.00    +0.000 OA
ATOM      4  H   UNL     1       4.783   4.965  19.771  0.00  0.00    +0.000 HD
ENDROOT
BRANCH   1   5
ATOM      5  C   UNL     1       2.722   4.903  19.203  0.00  0.00    +0.000 C 
ATOM      6  C   UNL     1       1.880   4.191  18.105  0.00  0.00    +0.000 C 
ATOM      7  C   UNL     1       1.926   2.666  18.127  0.00  0.00    +0.000 C 
ATOM      8  C   UNL     1       1.715   2.065  19.509  0.00  0.00    +0.000 C 
ATOM      9  C   UNL     1       2.538   2.748  20.591  0.00  0.00    +0.000 C 
ATOM     10  C   UNL     1       2.364   4.267  20.572  0.00  0.00    +0.000 C 
BRANCH   5  14
ATOM     11  C   UNL     1       2.004   9.636  17.846  0.00  0.00    +0.000 C 
ATOM     12  C   UNL     1       2.087   8.353  18.564  0.00  0.00    +0.000 A 
ATOM     13  N   UNL     1       2.394   7.169  18.101  0.00  0.00    +0.000 NA
ATOM     14  C   UNL     1       2.373   6.389  19.234  0.00  0.00    +0.000 A 
ATOM     15  N   UNL     1       2.000   7.042  20.350  0.00  0.00    +0.000 NA
ATOM     16  O   UNL     1       1.815   8.358  19.902  0.00  0.00    +0.000 OA
ENDBRANCH   5  14
ENDBRANCH   1   5
BRANCH   2  17
ATOM     17  C   UNL     1       6.299   4.733  17.675  0.00  0.00    +0.000 C 
BRANCH  17  18
ATOM     18  C   UNL     1       7.021   6.038  17.916  0.00  0.00    +0.000 A 
ATOM     19  C   UNL     1       6.761   7.154  17.115  0.00  0.00    +0.000 A 
ATOM     20  C   UNL     1       7.398   8.376  17.366  0.00  0.00    +0.000 A 
ATOM     21  C   UNL     1       8.311   8.531  18.424  0.00  0.00    +0.000 A 
ATOM     22  C   UNL     1       8.564   7.395  19.215  0.00  0.00    +0.000 A 
ATOM     23  C   UNL     1       7.939   6.166  18.961  0.00  0.00    +0.000 A 
BRANCH  21  24
ATOM     24  C   UNL     1       8.972   9.832  18.698  0.00  0.00    +0.000 A 
ATOM     25  C   UNL     1       9.282  10.739  17.666  0.00  0.00    +0.000 A 
ATOM     26  C   UNL     1       9.915  11.960  17.922  0.00  0.00    +0.000 A 
ATOM     27  C   UNL     1      10.247  12.315  19.225  0.00  0.00    +0.000 A 
ATOM     28  C   UNL     1       9.949  11.446  20.267  0.00  0.00    +0.000 A 
ATOM     29  C   UNL     1       9.324  10.222  20.006  0.00  0.00    +0.000 A 
ENDBRANCH  21  24
ENDBRANCH  17  18
ENDBRANCH   2  17
TORSDOF 5
ENDMDL
MODEL 2
REMARK VINA RESULT:      -8.8      0.170      1.292
REMARK  Name = 
REMARK  6 active torsions:
REMARK  status: ('A' for Active; 'I' for Inactive)
REMARK    1  A    between atoms: C_1  and  C_2
REMARK    2  A    between atoms: C_4  and  C_5
REMARK    3  A    between atoms: C_5  and  N_6
REMARK    4  A    between atoms: C_7  and  C_9
REMARK    5  A    between atoms: C_9  and  C_10
REMARK    6  A    between atoms: C_13  and  C_14
REMARK                            x       y       z     vdW  Elec       q    Type
REMARK                         _______ _______ _______ _____ _____    ______ ____
ROOT
ATOM      1  N   UNL     1       4.286   4.847  18.877  0.00  0.00    +0.000 N 
ATOM      2  C   UNL     1       4.853   4.813  17.627  0.00  0.00    +0.000 C 
ATOM      3  O   UNL     1       4.188   4.722  16.596  0.00  0.00    +0.000 OA
ATOM      4  H   UNL     1       4.886   5.116  19.646  0.00  0.00    +0.000 HD
ENDROOT
BRANCH   1   5
ATOM      5  C   UNL     1       2.821   4.929  19.123  0.00  0.00    +0.000 C 
ATOM      6  C   UNL     1       1.993   4.196  18.027  0.00  0.00    +0.000 C 
ATOM      7  C   UNL     1       2.108   2.675  18.023  0.00  0.00    +0.000 C 
ATOM      8  C   UNL     1       1.949   2.043  19.398  0.00  0.00    +0.000 C 
ATOM      9  C   UNL     1       2.758   2.745  20.478  0.00  0.00    +0.000 C 
ATOM     10  C   UNL     1       2.515   4.255  20.487  0.00  0.00    +0.000 C 
BRANCH   5  14
ATOM     11  C   UNL     1       1.954   9.668  17.883  0.00  0.00    +0.000 C 
ATOM     12  C   UNL     1       2.062   8.367  18.564  0.00  0.00    +0.000 A 
ATOM     13  N   UNL     1       2.441   7.213  18.078  0.00  0.00    +0.000 NA
ATOM     14  C   UNL     1       2.406   6.396  19.185  0.00  0.00    +0.000 A 
ATOM     15  N   UNL     1       1.957   6.996  20.303  0.00  0.00    +0.000 NA
ATOM     16  O   UNL     1       1.734   8.317  19.888  0.00  0.00    +0.000 OA
ENDBRANCH   5  14
ENDBRANCH   1   5
BRANCH   2  17
ATOM     17  C   UNL     1       6.371   4.899  17.526  0.00  0.00    +0.000 C 
BRANCH  17  18
ATOM     18  C   UNL     1       7.040   6.208  17.872  0.00  0.00    +0.000 A 
ATOM     19  C   UNL     1       7.960   6.283  18.921  0.00  0.00    +0.000 A 
ATOM     20  C   UNL     1       8.614   7.487  19.214  0.00  0.00    +0.000 A 
ATOM     21  C   UNL     1       8.378   8.656  18.468  0.00  0.00    +0.000 A 
ATOM     22  C   UNL     1       7.444   8.563  17.420  0.00  0.00    +0.000 A 
ATOM     23  C   UNL     1       6.779   7.364  17.131  0.00  0.00    +0.000 A 
BRANCH  21  24
ATOM     24  C   UNL     1       9.084   9.928  18.770  0.00  0.00    +0.000 A 
ATOM     25  C   UNL     1       9.372  10.323  20.091  0.00  0.00    +0.000 A 
ATOM     26  C   UNL     1      10.026  11.525  20.376  0.00  0.00    +0.000 A 
ATOM     27  C   UNL     1      10.425  12.365  19.342  0.00  0.00    +0.000 A 
ATOM     28  C   UNL     1      10.162  12.003  18.027  0.00  0.00    +0.000 A 
ATOM     29  C   UNL     1       9.499  10.803  17.746  0.00  0.00    +0.000 A 
ENDBRANCH  21  24
ENDBRANCH  17  18
ENDBRANCH   2  17
TORSDOF 5
ENDMDL
MODEL 3
REMARK VINA RESULT:      -8.7      3.167      7.333
REMARK  Name = 
REMARK  6 active torsions:
REMARK  status: ('A' for Active; 'I' for Inactive)
REMARK    1  A    between atoms: C_1  and  C_2
REMARK    2  A    between atoms: C_4  and  C_5
REMARK    3  A    between atoms: C_5  and  N_6
REMARK    4  A    between atoms: C_7  and  C_9
REMARK    5  A    between atoms: C_9  and  C_10
REMARK    6  A    between atoms: C_13  and  C_14
REMARK                            x       y       z     vdW  Elec       q    Type
REMARK                         _______ _______ _______ _____ _____    ______ ____
ROOT
ATOM      1  N   UNL     1       5.370   5.508  17.685  0.00  0.00    +0.000 N 
ATOM      2  C   UNL     1       4.278   6.207  17.230  0.00  0.00    +0.000 C 
ATOM      3  O   UNL     1       4.347   7.031  16.319  0.00  0.00    +0.000 OA
ATOM      4  H   UNL     1       5.188   4.721  18.294  0.00  0.00    +0.000 HD
ENDROOT
BRANCH   1   5
ATOM      5  C   UNL     1       6.710   5.551  17.043  0.00  0.00    +0.000 C 
ATOM      6  C   UNL     1       7.220   7.005  16.828  0.00  0.00    +0.000 C 
ATOM      7  C   UNL     1       7.584   7.769  18.097  0.00  0.00    +0.000 C 
ATOM      8  C   UNL     1       8.459   6.978  19.060  0.00  0.00    +0.000 C 
ATOM      9  C   UNL     1       7.968   5.556  19.284  0.00  0.00    +0.000 C 
ATOM     10  C   UNL     1       7.719   4.820  17.967  0.00  0.00    +0.000 C 
BRANCH   5  14
ATOM     11  C   UNL     1       7.280   4.419  12.231  0.00  0.00    +0.000 C 
ATOM     12  C   UNL     1       6.950   4.430  13.666  0.00  0.00    +0.000 A 
ATOM     13  N   UNL     1       7.296   5.296  14.583  0.00  0.00    +0.000 NA
ATOM     14  C   UNL     1       6.645   4.826  15.700  0.00  0.00    +0.000 A 
ATOM     15  N   UNL     1       5.974   3.676  15.508  0.00  0.00    +0.000 NA
ATOM     16  O   UNL     1       6.174   3.415  14.145  0.00  0.00    +0.000 OA
ENDBRANCH   5  14
ENDBRANCH   1   5
BRANCH   2  17
ATOM     17  C   UNL     1       2.929   5.937  17.886  0.00  0.00    +0.000 C 
BRANCH  17  18
ATOM     18  C   UNL     1       2.264   7.059  18.647  0.00  0.00    +0.000 A 
ATOM     19  C   UNL     1       1.989   6.929  20.011  0.00  0.00    +0.000 A 
ATOM     20  C   UNL     1       1.411   7.986  20.727  0.00  0.00    +0.000 A 
ATOM     21  C   UNL     1       1.093   9.210  20.110  0.00  0.00    +0.000 A 
ATOM     22  C   UNL     1       1.372   9.319  18.736  0.00  0.00    +0.000 A 
ATOM     23  C   UNL     1       1.938   8.260  18.012  0.00  0.00    +0.000 A 
BRANCH  21  24
ATOM     24  C   UNL     1       0.496  10.335  20.875  0.00  0.00    +0.000 A 
ATOM     25  C   UNL     1       0.660  11.675  20.474  0.00  0.00    +0.000 A 
ATOM     26  C   UNL     1       0.108  12.736  21.199  0.00  0.00    +0.000 A 
ATOM     27  C   UNL     1      -0.638  12.483  22.345  0.00  0.00    +0.000 A 
ATOM     28  C   UNL     1      -0.825  11.172  22.765  0.00  0.00    +0.000 A 
ATOM     29  C   UNL     1      -0.263  10.115  22.041  0.00  0.00    +0.000 A 
ENDBRANCH  21  24
ENDBRANCH  17  18
ENDBRANCH   2  17
TORSDOF 5
ENDMDL
MODEL 4
REMARK VINA RESULT:      -8.6      0.847      1.060
REMARK  Name = 
REMARK  6 active torsions:
REMARK  status: ('A' for Active; 'I' for Inactive)
REMARK    1  A    between atoms: C_1  and  C_2
REMARK    2  A    between atoms: C_4  and  C_5
REMARK    3  A    between atoms: C_5  and  N_6
REMARK    4  A    between atoms: C_7  and  C_9
REMARK    5  A    between atoms: C_9  and  C_10
REMARK    6  A    between atoms: C_13  and  C_14
REMARK                            x       y       z     vdW  Elec       q    Type
REMARK                         _______ _______ _______ _____ _____    ______ ____
ROOT
ATOM      1  N   UNL     1       4.115   5.435  18.846  0.00  0.00    +0.000 N 
ATOM      2  C   UNL     1       4.790   5.080  17.703  0.00  0.00    +0.000 C 
ATOM      3  O   UNL     1       4.218   4.819  16.645  0.00  0.00    +0.000 OA
ATOM      4  H   UNL     1       4.667   5.817  19.603  0.00  0.00    +0.000 HD
ENDROOT
BRANCH   1   5
ATOM      5  C   UNL     1       2.651   5.688  18.901  0.00  0.00    +0.000 C 
ATOM      6  C   UNL     1       1.850   4.749  17.953  0.00  0.00    +0.000 C 
ATOM      7  C   UNL     1       1.812   3.279  18.361  0.00  0.00    +0.000 C 
ATOM      8  C   UNL     1       1.474   3.057  19.828  0.00  0.00    +0.000 C 
ATOM      9  C   UNL     1       2.256   3.964  20.766  0.00  0.00    +0.000 C 
ATOM     10  C   UNL     1       2.165   5.434  20.352  0.00  0.00    +0.000 C 
BRANCH   5  14
ATOM     11  C   UNL     1       1.071  10.403  19.044  0.00  0.00    +0.000 C 
ATOM     12  C   UNL     1       1.687   9.114  18.689  0.00  0.00    +0.000 A 
ATOM     13  N   UNL     1       1.765   8.017  19.397  0.00  0.00    +0.000 NA
ATOM     14  C   UNL     1       2.381   7.144  18.530  0.00  0.00    +0.000 A 
ATOM     15  N   UNL     1       2.737   7.691  17.354  0.00  0.00    +0.000 NA
ATOM     16  O   UNL     1       2.267   9.007  17.458  0.00  0.00    +0.000 OA
ENDBRANCH   5  14
ENDBRANCH   1   5
BRANCH   2  17
ATOM     17  C   UNL     1       6.312   5.018  17.759  0.00  0.00    +0.000 C 
BRANCH  17  18
ATOM     18  C   UNL     1       7.074   6.300  18.000  0.00  0.00    +0.000 A 
ATOM     19  C   UNL     1       6.823   7.434  17.223  0.00  0.00    +0.000 A 
ATOM     20  C   UNL     1       7.499   8.636  17.475  0.00  0.00    +0.000 A 
ATOM     21  C   UNL     1       8.442   8.750  18.512  0.00  0.00    +0.000 A 
ATOM     22  C   UNL     1       8.685   7.595  19.279  0.00  0.00    +0.000 A 
ATOM     23  C   UNL     1       8.021   6.388  19.023  0.00  0.00    +0.000 A 
BRANCH  21  24
ATOM     24  C   UNL     1       9.145  10.029  18.788  0.00  0.00    +0.000 A 
ATOM     25  C   UNL     1       9.532  10.902  17.753  0.00  0.00    +0.000 A 
ATOM     26  C   UNL     1      10.204  12.101  18.011  0.00  0.00    +0.000 A 
ATOM     27  C   UNL     1      10.498  12.468  19.320  0.00  0.00    +0.000 A 
ATOM     28  C   UNL     1      10.125  11.633  20.365  0.00  0.00    +0.000 A 
ATOM     29  C   UNL     1       9.461  10.430  20.102  0.00  0.00    +0.000 A 
ENDBRANCH  21  24
ENDBRANCH  17  18
ENDBRANCH   2  17
TORSDOF 5
ENDMDL
MODEL 5
REMARK VINA RESULT:      -8.6      3.293      7.467
REMARK  Name = 
REMARK  6 active torsions:
REMARK  status: ('A' for Active; 'I' for Inactive)
REMARK    1  A    between atoms: C_1  and  C_2
REMARK    2  A    between atoms: C_4  and  C_5
REMARK    3  A    between atoms: C_5  and  N_6
REMARK    4  A    between atoms: C_7  and  C_9
REMARK    5  A    between atoms: C_9  and  C_10
REMARK    6  A    between atoms: C_13  and  C_14
REMARK                            x       y       z     vdW  Elec       q    Type
REMARK                         _______ _______ _______ _____ _____    ______ ____
ROOT
ATOM      1  N   UNL     1       5.413   5.397  17.413  0.00  0.00    +0.000 N 
ATOM      2  C   UNL     1       4.398   6.290  17.169  0.00  0.00    +0.000 C 
ATOM      3  O   UNL     1       4.569   7.340  16.550  0.00  0.00    +0.000 OA
ATOM      4  H   UNL     1       5.146   4.482  17.753  0.00  0.00    +0.000 HD
ENDROOT
BRANCH   1   5
ATOM      5  C   UNL     1       6.780   5.515  16.840  0.00  0.00    +0.000 C 
ATOM      6  C   UNL     1       7.332   6.968  16.916  0.00  0.00    +0.000 C 
ATOM      7  C   UNL     1       7.660   7.475  18.317  0.00  0.00    +0.000 C 
ATOM      8  C   UNL     1       8.474   6.495  19.150  0.00  0.00    +0.000 C 
ATOM      9  C   UNL     1       7.941   5.071  19.089  0.00  0.00    +0.000 C 
ATOM     10  C   UNL     1       7.732   4.597  17.651  0.00  0.00    +0.000 C 
BRANCH   5  14
ATOM     11  C   UNL     1       5.541   3.167  12.632  0.00  0.00    +0.000 C 
ATOM     12  C   UNL     1       6.148   4.026  13.662  0.00  0.00    +0.000 A 
ATOM     13  N   UNL     1       5.783   4.203  14.906  0.00  0.00    +0.000 NA
ATOM     14  C   UNL     1       6.754   5.051  15.386  0.00  0.00    +0.000 A 
ATOM     15  N   UNL     1       7.651   5.445  14.463  0.00  0.00    +0.000 NA
ATOM     16  O   UNL     1       7.249   4.754  13.312  0.00  0.00    +0.000 OA
ENDBRANCH   5  14
ENDBRANCH   1   5
BRANCH   2  17
ATOM     17  C   UNL     1       3.005   5.952  17.686  0.00  0.00    +0.000 C 
BRANCH  17  18
ATOM     18  C   UNL     1       2.294   6.967  18.549  0.00  0.00    +0.000 A 
ATOM     19  C   UNL     1       2.023   6.694  19.893  0.00  0.00    +0.000 A 
ATOM     20  C   UNL     1       1.403   7.653  20.706  0.00  0.00    +0.000 A 
ATOM     21  C   UNL     1       1.037   8.917  20.209  0.00  0.00    +0.000 A 
ATOM     22  C   UNL     1       1.313   9.170  18.854  0.00  0.00    +0.000 A 
ATOM     23  C   UNL     1       1.921   8.211  18.033  0.00  0.00    +0.000 A 
BRANCH  21  24
ATOM     24  C   UNL     1       0.394   9.938  21.077  0.00  0.00    +0.000 A 
ATOM     25  C   UNL     1      -0.215   9.596  22.300  0.00  0.00    +0.000 A 
ATOM     26  C   UNL     1      -0.830  10.554  23.111  0.00  0.00    +0.000 A 
ATOM     27  C   UNL     1      -0.842  11.890  22.727  0.00  0.00    +0.000 A 
ATOM     28  C   UNL     1      -0.244  12.263  21.529  0.00  0.00    +0.000 A 
ATOM     29  C   UNL     1       0.362  11.299  20.716  0.00  0.00    +0.000 A 
ENDBRANCH  21  24
ENDBRANCH  17  18
ENDBRANCH   2  17
TORSDOF 5
ENDMDL
MODEL 6
REMARK VINA RESULT:      -8.5      3.419      7.467
REMARK  Name = 
REMARK  6 active torsions:
REMARK  status: ('A' for Active; 'I' for Inactive)
REMARK    1  A    between atoms: C_1  and  C_2
REMARK    2  A    between atoms: C_4  and  C_5
REMARK    3  A    between atoms: C_5  and  N_6
REMARK    4  A    between atoms: C_7  and  C_9
REMARK    5  A    between atoms: C_9  and  C_10
REMARK    6  A    between atoms: C_13  and  C_14
REMARK                            x       y       z     vdW  Elec       q    Type
REMARK                         _______ _______ _______ _____ _____    ______ ____
ROOT
ATOM      1  N   UNL     1       5.351   5.385  17.107  0.00  0.00    +0.000 N 
ATOM      2  C   UNL     1       4.510   6.471  17.146  0.00  0.00    +0.000 C 
ATOM      3  O   UNL     1       4.887   7.615  16.893  0.00  0.00    +0.000 OA
ATOM      4  H   UNL     1       4.920   4.471  17.137  0.00  0.00    +0.000 HD
ENDROOT
BRANCH   1   5
ATOM      5  C   UNL     1       6.754   5.438  16.618  0.00  0.00    +0.000 C 
ATOM      6  C   UNL     1       7.379   6.857  16.758  0.00  0.00    +0.000 C 
ATOM      7  C   UNL     1       7.650   7.318  18.186  0.00  0.00    +0.000 C 
ATOM      8  C   UNL     1       8.359   6.278  19.044  0.00  0.00    +0.000 C 
ATOM      9  C   UNL     1       7.753   4.888  18.921  0.00  0.00    +0.000 C 
ATOM     10  C   UNL     1       7.605   4.453  17.462  0.00  0.00    +0.000 C 
BRANCH   5  14
ATOM     11  C   UNL     1       5.744   3.121  12.332  0.00  0.00    +0.000 C 
ATOM     12  C   UNL     1       6.281   3.987  13.395  0.00  0.00    +0.000 A 
ATOM     13  N   UNL     1       5.874   4.121  14.631  0.00  0.00    +0.000 NA
ATOM     14  C   UNL     1       6.790   5.004  15.154  0.00  0.00    +0.000 A 
ATOM     15  N   UNL     1       7.692   5.459  14.265  0.00  0.00    +0.000 NA
ATOM     16  O   UNL     1       7.354   4.773  13.090  0.00  0.00    +0.000 OA
ENDBRANCH   5  14
ENDBRANCH   1   5
BRANCH   2  17
ATOM     17  C   UNL     1       3.050   6.234  17.512  0.00  0.00    +0.000 C 
BRANCH  17  18
ATOM     18  C   UNL     1       2.374   7.218  18.438  0.00  0.00    +0.000 A 
ATOM     19  C   UNL     1       1.870   8.426  17.949  0.00  0.00    +0.000 A 
ATOM     20  C   UNL     1       1.204   9.319  18.799  0.00  0.00    +0.000 A 
ATOM     21  C   UNL     1       1.013   9.036  20.164  0.00  0.00    +0.000 A 
ATOM     22  C   UNL     1       1.532   7.818  20.639  0.00  0.00    +0.000 A 
ATOM     23  C   UNL     1       2.210   6.927  19.795  0.00  0.00    +0.000 A 
BRANCH  21  24
ATOM     24  C   UNL     1       0.293   9.977  21.060  0.00  0.00    +0.000 A 
ATOM     25  C   UNL     1       0.036  11.310  20.686  0.00  0.00    +0.000 A 
ATOM     26  C   UNL     1      -0.632  12.199  21.534  0.00  0.00    +0.000 A 
ATOM     27  C   UNL     1      -1.076  11.774  22.781  0.00  0.00    +0.000 A 
ATOM     28  C   UNL     1      -0.845  10.463  23.179  0.00  0.00    +0.000 A 
ATOM     29  C   UNL     1      -0.168   9.579  22.332  0.00  0.00    +0.000 A 
ENDBRANCH  21  24
ENDBRANCH  17  18
ENDBRANCH   2  17
TORSDOF 5
ENDMDL
MODEL 7
REMARK VINA RESULT:      -8.5      0.817      1.665
REMARK  Name = 
REMARK  6 active torsions:
REMARK  status: ('A' for Active; 'I' for Inactive)
REMARK    1  A    between atoms: C_1  and  C_2
REMARK    2  A    between atoms: C_4  and  C_5
REMARK    3  A    between atoms: C_5  and  N_6
REMARK    4  A    between atoms: C_7  and  C_9
REMARK    5  A    between atoms: C_9  and  C_10
REMARK    6  A    between atoms: C_13  and  C_14
REMARK                            x       y       z     vdW  Elec       q    Type
REMARK                         _______ _______ _______ _____ _____    ______ ____
ROOT
ATOM      1  N   UNL     1       4.494   4.814  18.655  0.00  0.00    +0.000 N 
ATOM      2  C   UNL     1       5.067   5.043  17.428  0.00  0.00    +0.000 C 
ATOM      3  O   UNL     1       4.408   5.161  16.396  0.00  0.00    +0.000 OA
ATOM      4  H   UNL     1       5.088   4.924  19.466  0.00  0.00    +0.000 HD
ENDROOT
BRANCH   1   5
ATOM      5  C   UNL     1       3.028   4.831  18.903  0.00  0.00    +0.000 C 
ATOM      6  C   UNL     1       2.220   4.202  17.731  0.00  0.00    +0.000 C 
ATOM      7  C   UNL     1       2.374   2.693  17.562  0.00  0.00    +0.000 C 
ATOM      8  C   UNL     1       2.230   1.911  18.860  0.00  0.00    +0.000 C 
ATOM      9  C   UNL     1       3.020   2.513  20.012  0.00  0.00    +0.000 C 
ATOM     10  C   UNL     1       2.738   4.006  20.184  0.00  0.00    +0.000 C 
BRANCH   5  14
ATOM     11  C   UNL     1       1.063   8.928  20.930  0.00  0.00    +0.000 C 
ATOM     12  C   UNL     1       1.735   7.945  20.065  0.00  0.00    +0.000 A 
ATOM     13  N   UNL     1       2.016   6.690  20.308  0.00  0.00    +0.000 NA
ATOM     14  C   UNL     1       2.575   6.273  19.123  0.00  0.00    +0.000 A 
ATOM     15  N   UNL     1       2.703   7.242  18.199  0.00  0.00    +0.000 NA
ATOM     16  O   UNL     1       2.136   8.359  18.828  0.00  0.00    +0.000 OA
ENDBRANCH   5  14
ENDBRANCH   1   5
BRANCH   2  17
ATOM     17  C   UNL     1       6.585   5.161  17.356  0.00  0.00    +0.000 C 
BRANCH  17  18
ATOM     18  C   UNL     1       7.224   6.462  17.780  0.00  0.00    +0.000 A 
ATOM     19  C   UNL     1       8.090   6.506  18.877  0.00  0.00    +0.000 A 
ATOM     20  C   UNL     1       8.717   7.704  19.244  0.00  0.00    +0.000 A 
ATOM     21  C   UNL     1       8.509   8.897  18.529  0.00  0.00    +0.000 A 
ATOM     22  C   UNL     1       7.631   8.833  17.432  0.00  0.00    +0.000 A 
ATOM     23  C   UNL     1       6.991   7.641  17.068  0.00  0.00    +0.000 A 
BRANCH  21  24
ATOM     24  C   UNL     1       9.188  10.162  18.910  0.00  0.00    +0.000 A 
ATOM     25  C   UNL     1       9.358  10.537  20.256  0.00  0.00    +0.000 A 
ATOM     26  C   UNL     1       9.987  11.733  20.616  0.00  0.00    +0.000 A 
ATOM     27  C   UNL     1      10.478  12.586  19.633  0.00  0.00    +0.000 A 
ATOM     28  C   UNL     1      10.334  12.242  18.295  0.00  0.00    +0.000 A 
ATOM     29  C   UNL     1       9.696  11.049  17.940  0.00  0.00    +0.000 A 
ENDBRANCH  21  24
ENDBRANCH  17  18
ENDBRANCH   2  17
TORSDOF 5
ENDMDL
MODEL 8
REMARK VINA RESULT:      -8.5      4.155      7.469
REMARK  Name = 
REMARK  6 active torsions:
REMARK  status: ('A' for Active; 'I' for Inactive)
REMARK    1  A    between atoms: C_1  and  C_2
REMARK    2  A    between atoms: C_4  and  C_5
REMARK    3  A    between atoms: C_5  and  N_6
REMARK    4  A    between atoms: C_7  and  C_9
REMARK    5  A    between atoms: C_9  and  C_10
REMARK    6  A    between atoms: C_13  and  C_14
REMARK                            x       y       z     vdW  Elec       q    Type
REMARK                         _______ _______ _______ _____ _____    ______ ____
ROOT
ATOM      1  N   UNL     1       2.404   5.576  18.220  0.00  0.00    +0.000 N 
ATOM      2  C   UNL     1       2.868   6.837  18.506  0.00  0.00    +0.000 C 
ATOM      3  O   UNL     1       3.805   7.042  19.277  0.00  0.00    +0.000 OA
ATOM      4  H   UNL     1       1.768   5.489  17.438  0.00  0.00    +0.000 HD
ENDROOT
BRANCH   1   5
ATOM      5  C   UNL     1       3.062   4.324  18.679  0.00  0.00    +0.000 C 
ATOM      6  C   UNL     1       2.996   4.151  20.224  0.00  0.00    +0.000 C 
ATOM      7  C   UNL     1       1.611   3.867  20.796  0.00  0.00    +0.000 C 
ATOM      8  C   UNL     1       0.850   2.779  20.051  0.00  0.00    +0.000 C 
ATOM      9  C   UNL     1       0.901   2.941  18.540  0.00  0.00    +0.000 C 
ATOM     10  C   UNL     1       2.331   3.120  18.029  0.00  0.00    +0.000 C 
BRANCH   5  14
ATOM     11  C   UNL     1       7.144   4.511  15.840  0.00  0.00    +0.000 C 
ATOM     12  C   UNL     1       6.178   4.435  16.949  0.00  0.00    +0.000 A 
ATOM     13  N   UNL     1       4.876   4.563  16.916  0.00  0.00    +0.000 NA
ATOM     14  C   UNL     1       4.520   4.330  18.224  0.00  0.00    +0.000 A 
ATOM     15  N   UNL     1       5.559   4.133  19.056  0.00  0.00    +0.000 NA
ATOM     16  O   UNL     1       6.668   4.197  18.200  0.00  0.00    +0.000 OA
ENDBRANCH   5  14
ENDBRANCH   1   5
BRANCH   2  17
ATOM     17  C   UNL     1       2.190   8.022  17.830  0.00  0.00    +0.000 C 
BRANCH  17  18
ATOM     18  C   UNL     1       1.276   8.894  18.658  0.00  0.00    +0.000 A 
ATOM     19  C   UNL     1       1.257   8.784  20.052  0.00  0.00    +0.000 A 
ATOM     20  C   UNL     1       0.441   9.623  20.823  0.00  0.00    +0.000 A 
ATOM     21  C   UNL     1      -0.378  10.603  20.234  0.00  0.00    +0.000 A 
ATOM     22  C   UNL     1      -0.349  10.694  18.831  0.00  0.00    +0.000 A 
ATOM     23  C   UNL     1       0.455   9.849  18.054  0.00  0.00    +0.000 A 
BRANCH  21  24
ATOM     24  C   UNL     1      -1.229  11.502  21.055  0.00  0.00    +0.000 A 
ATOM     25  C   UNL     1      -1.210  11.462  22.463  0.00  0.00    +0.000 A 
ATOM     26  C   UNL     1      -2.020  12.300  23.236  0.00  0.00    +0.000 A 
ATOM     27  C   UNL     1      -2.866  13.215  22.620  0.00  0.00    +0.000 A 
ATOM     28  C   UNL     1      -2.904  13.286  21.233  0.00  0.00    +0.000 A 
ATOM     29  C   UNL     1      -2.099  12.439  20.463  0.00  0.00    +0.000 A 
ENDBRANCH  21  24
ENDBRANCH  17  18
ENDBRANCH   2  17
TORSDOF 5
ENDMDL
MODEL 9
REMARK VINA RESULT:      -8.5      4.211      7.367
REMARK  Name = 
REMARK  6 active torsions:
REMARK  status: ('A' for Active; 'I' for Inactive)
REMARK    1  A    between atoms: C_1  and  C_2
REMARK    2  A    between atoms: C_4  and  C_5
REMARK    3  A    between atoms: C_5  and  N_6
REMARK    4  A    between atoms: C_7  and  C_9
REMARK    5  A    between atoms: C_9  and  C_10
REMARK    6  A    between atoms: C_13  and  C_14
REMARK                            x       y       z     vdW  Elec       q    Type
REMARK                         _______ _______ _______ _____ _____    ______ ____
ROOT
ATOM      1  N   UNL     1       2.420   5.540  18.209  0.00  0.00    +0.000 N 
ATOM      2  C   UNL     1       2.843   6.799  18.562  0.00  0.00    +0.000 C 
ATOM      3  O   UNL     1       3.741   6.995  19.380  0.00  0.00    +0.000 OA
ATOM      4  H   UNL     1       1.821   5.470  17.397  0.00  0.00    +0.000 HD
ENDROOT
BRANCH   1   5
ATOM      5  C   UNL     1       3.087   4.286  18.649  0.00  0.00    +0.000 C 
ATOM      6  C   UNL     1       3.067   4.114  20.195  0.00  0.00    +0.000 C 
ATOM      7  C   UNL     1       1.698   3.835  20.809  0.00  0.00    +0.000 C 
ATOM      8  C   UNL     1       0.911   2.750  20.087  0.00  0.00    +0.000 C 
ATOM      9  C   UNL     1       0.918   2.910  18.575  0.00  0.00    +0.000 C 
ATOM     10  C   UNL     1       2.333   3.084  18.022  0.00  0.00    +0.000 C 
BRANCH   5  14
ATOM     11  C   UNL     1       7.083   4.455  15.690  0.00  0.00    +0.000 C 
ATOM     12  C   UNL     1       6.151   4.384  16.827  0.00  0.00    +0.000 A 
ATOM     13  N   UNL     1       4.849   4.516  16.833  0.00  0.00    +0.000 NA
ATOM     14  C   UNL     1       4.531   4.286  18.151  0.00  0.00    +0.000 A 
ATOM     15  N   UNL     1       5.594   4.088  18.952  0.00  0.00    +0.000 NA
ATOM     16  O   UNL     1       6.677   4.147  18.064  0.00  0.00    +0.000 OA
ENDBRANCH   5  14
ENDBRANCH   1   5
BRANCH   2  17
ATOM     17  C   UNL     1       2.166   7.994  17.902  0.00  0.00    +0.000 C 
BRANCH  17  18
ATOM     18  C   UNL     1       1.334   8.914  18.764  0.00  0.00    +0.000 A 
ATOM     19  C   UNL     1       0.658  10.000  18.201  0.00  0.00    +0.000 A 
ATOM     20  C   UNL     1      -0.149  10.827  18.992  0.00  0.00    +0.000 A 
ATOM     21  C   UNL     1      -0.315  10.598  20.370  0.00  0.00    +0.000 A 
ATOM     22  C   UNL     1       0.377   9.504  20.920  0.00  0.00    +0.000 A 
ATOM     23  C   UNL     1       1.196   8.681  20.135  0.00  0.00    +0.000 A 
BRANCH  21  24
ATOM     24  C   UNL     1      -1.185  11.467  21.205  0.00  0.00    +0.000 A 
ATOM     25  C   UNL     1      -2.068  12.403  20.632  0.00  0.00    +0.000 A 
ATOM     26  C   UNL     1      -2.879  13.229  21.417  0.00  0.00    +0.000 A 
ATOM     27  C   UNL     1      -2.837  13.134  22.804  0.00  0.00    +0.000 A 
ATOM     28  C   UNL     1      -1.982  12.217  23.401  0.00  0.00    +0.000 A 
ATOM     29  C   UNL     1      -1.166  11.398  22.612  0.00  0.00    +0.000 A 
ENDBRANCH  21  24
ENDBRANCH  17  18
ENDBRANCH   2  17
TORSDOF 5
ENDMDL
