MODEL 1
REMARK VINA RESULT:      -9.4      0.000      0.000
REMARK  Name = 
REMARK  8 active torsions:
REMARK  status: ('A' for Active; 'I' for Inactive)
REMARK    1  A    between atoms: C_1  and  C_2
REMARK    2  A    between atoms: C_5  and  C_6
REMARK    3  A    between atoms: N_8  and  C_9
REMARK    4  A    between atoms: C_14  and  N_15
REMARK    5  A    between atoms: C_22  and  S_23
REMARK    6  A    between atoms: S_23  and  N_26
REMARK    7  A    between atoms: N_26  and  C_27
REMARK    8  A    between atoms: C_27  and  C_28
REMARK                            x       y       z     vdW  Elec       q    Type
REMARK                         _______ _______ _______ _____ _____    ______ ____
ROOT
ATOM      1  C   UNL     1      -0.528  10.781  22.873  0.00  0.00    +0.000 C 
ATOM      2  C   UNL     1       0.178  10.071  21.754  0.00  0.00    +0.000 A 
ATOM      3  C   UNL     1       0.507   8.713  21.821  0.00  0.00    +0.000 A 
ATOM      4  C   UNL     1       1.184   8.057  20.760  0.00  0.00    +0.000 A 
ATOM      5  C   UNL     1       1.565   8.755  19.608  0.00  0.00    +0.000 A 
ATOM      6  C   UNL     1       1.231  10.089  19.549  0.00  0.00    +0.000 A 
ATOM      7  C   UNL     1       0.517  10.734  20.581  0.00  0.00    +0.000 A 
ENDROOT
BRANCH   5   8
ATOM      8  C   UNL     1       2.293   8.151  18.436  0.00  0.00    +0.000 C 
ATOM      9  O   UNL     1       2.245   8.694  17.358  0.00  0.00    +0.000 OA
ATOM     10  N   UNL     1       2.967   6.958  18.719  0.00  0.00    +0.000 N 
ATOM     11  H   UNL     1       2.739   6.454  19.566  0.00  0.00    +0.000 HD
BRANCH  10  12
ATOM     12  C   UNL     1       3.703   6.236  17.752  0.00  0.00    +0.000 A 
ATOM     13  C   UNL     1       4.496   6.924  16.825  0.00  0.00    +0.000 A 
ATOM     14  C   UNL     1       5.304   6.217  15.929  0.00  0.00    +0.000 A 
ATOM     15  C   UNL     1       5.331   4.824  15.964  0.00  0.00    +0.000 A 
ATOM     16  C   UNL     1       4.535   4.132  16.883  0.00  0.00    +0.000 A 
ATOM     17  C   UNL     1       3.682   4.824  17.754  0.00  0.00    +0.000 A 
BRANCH  17  18
ATOM     18  N   UNL     1       2.746   4.098  18.526  0.00  0.00    +0.000 N 
ATOM     19  C   UNL     1       3.042   3.524  19.812  0.00  0.00    +0.000 C 
ATOM     20  C   UNL     1       2.017   2.416  19.969  0.00  0.00    +0.000 C 
ATOM     21  C   UNL     1       0.839   2.877  19.124  0.00  0.00    +0.000 C 
ATOM     22  C   UNL     1       1.495   3.704  18.049  0.00  0.00    +0.000 C 
ATOM     23  O   UNL     1       0.981   3.945  16.964  0.00  0.00    +0.000 OA
ENDBRANCH  17  18
ENDBRANCH  10  12
ENDBRANCH   5   8
BRANCH   7  24
ATOM     24  S   UNL     1       0.356  12.465  20.328  0.00  0.00    +0.000 S 
ATOM     25  O   UNL     1       0.844  13.063  21.521  0.00  0.00    +0.000 OA
ATOM     26  O   UNL     1       1.007  12.686  19.024  0.00  0.00    +0.000 OA
BRANCH  24  27
ATOM     27  N   UNL     1      -1.239  13.060  20.110  0.00  0.00    +0.000 NA
ATOM     28  H   UNL     1      -1.151  13.622  19.257  0.00  0.00    +0.000 HD
BRANCH  27  29
ATOM     29  C   UNL     1      -2.289  11.985  19.974  0.00  0.00    +0.000 C 
BRANCH  29  30
ATOM     30  C   UNL     1      -2.637  11.391  18.595  0.00  0.00    +0.000 A 
ATOM     31  C   UNL     1      -1.862  10.414  17.917  0.00  0.00    +0.000 A 
ATOM     32  C   UNL     1      -2.218   9.830  16.686  0.00  0.00    +0.000 A 
ATOM     33  C   UNL     1      -3.407  10.178  16.093  0.00  0.00    +0.000 A 
ATOM     34  C   UNL     1      -4.220  11.112  16.742  0.00  0.00    +0.000 A 
ATOM     35  C   UNL     1      -3.844  11.699  17.967  0.00  0.00    +0.000 A 
ENDBRANCH  29  30
ENDBRANCH  27  29
ENDBRANCH  24  27
ENDBRANCH   7  24
TORSDOF 7
ENDMDL
MODEL 2
REMARK VINA RESULT:      -8.7      2.000      2.881
REMARK  Name = 
REMARK  8 active torsions:
REMARK  status: ('A' for Active; 'I' for Inactive)
REMARK    1  A    between atoms: C_1  and  C_2
REMARK    2  A    between atoms: C_5  and  C_6
REMARK    3  A    between atoms: N_8  and  C_9
REMARK    4  A    between atoms: C_14  and  N_15
REMARK    5  A    between atoms: C_22  and  S_23
REMARK    6  A    between atoms: S_23  and  N_26
REMARK    7  A    between atoms: N_26  and  C_27
REMARK    8  A    between atoms: C_27  and  C_28
REMARK                            x       y       z     vdW  Elec       q    Type
REMARK                         _______ _______ _______ _____ _____    ______ ____
ROOT
ATOM      1  C   UNL     1      -0.873  10.922  22.977  0.00  0.00    +0.000 C 
ATOM      2  C   UNL     1      -0.134  10.187  21.896  0.00  0.00    +0.000 A 
ATOM      3  C   UNL     1       0.462   8.941  22.114  0.00  0.00    +0.000 A 
ATOM      4  C   UNL     1       1.167   8.262  21.086  0.00  0.00    +0.000 A 
ATOM      5  C   UNL     1       1.307   8.828  19.814  0.00  0.00    +0.000 A 
ATOM      6  C   UNL     1       0.712  10.052  19.607  0.00  0.00    +0.000 A 
ATOM      7  C   UNL     1      -0.029  10.708  20.613  0.00  0.00    +0.000 A 
ENDROOT
BRANCH   5   8
ATOM      8  C   UNL     1       2.043   8.192  18.664  0.00  0.00    +0.000 C 
ATOM      9  O   UNL     1       1.892   8.623  17.546  0.00  0.00    +0.000 OA
ATOM     10  N   UNL     1       2.849   7.104  19.016  0.00  0.00    +0.000 N 
ATOM     11  H   UNL     1       2.711   6.661  19.916  0.00  0.00    +0.000 HD
BRANCH  10  12
ATOM     12  C   UNL     1       3.613   6.370  18.080  0.00  0.00    +0.000 A 
ATOM     13  C   UNL     1       4.407   7.048  17.146  0.00  0.00    +0.000 A 
ATOM     14  C   UNL     1       5.241   6.334  16.282  0.00  0.00    +0.000 A 
ATOM     15  C   UNL     1       5.295   4.944  16.355  0.00  0.00    +0.000 A 
ATOM     16  C   UNL     1       4.498   4.261  17.281  0.00  0.00    +0.000 A 
ATOM     17  C   UNL     1       3.619   4.959  18.120  0.00  0.00    +0.000 A 
BRANCH  17  18
ATOM     18  N   UNL     1       2.686   4.236  18.898  0.00  0.00    +0.000 N 
ATOM     19  C   UNL     1       2.955   3.749  20.225  0.00  0.00    +0.000 C 
ATOM     20  C   UNL     1       1.973   2.606  20.407  0.00  0.00    +0.000 C 
ATOM     21  C   UNL     1       0.811   2.965  19.493  0.00  0.00    +0.000 C 
ATOM     22  C   UNL     1       1.473   3.759  18.397  0.00  0.00    +0.000 C 
ATOM     23  O   UNL     1       0.992   3.914  17.282  0.00  0.00    +0.000 OA
ENDBRANCH  17  18
ENDBRANCH  10  12
ENDBRANCH   5   8
BRANCH   7  24
ATOM     24  S   UNL     1      -0.550  12.319  20.142  0.00  0.00    +0.000 S 
ATOM     25  O   UNL     1       0.592  13.145  20.313  0.00  0.00    +0.000 OA
ATOM     26  O   UNL     1      -1.170  12.109  18.821  0.00  0.00    +0.000 OA
BRANCH  24  27
ATOM     27  N   UNL     1      -1.798  13.024  21.086  0.00  0.00    +0.000 NA
ATOM     28  H   UNL     1      -1.628  14.027  20.965  0.00  0.00    +0.000 HD
BRANCH  27  29
ATOM     29  C   UNL     1      -3.193  12.632  20.662  0.00  0.00    +0.000 C 
BRANCH  29  30
ATOM     30  C   UNL     1      -4.378  12.754  21.639  0.00  0.00    +0.000 A 
ATOM     31  C   UNL     1      -5.740  12.564  21.286  0.00  0.00    +0.000 A 
ATOM     32  C   UNL     1      -6.813  12.617  22.196  0.00  0.00    +0.000 A 
ATOM     33  C   UNL     1      -6.558  12.823  23.529  0.00  0.00    +0.000 A 
ATOM     34  C   UNL     1      -5.227  12.981  23.929  0.00  0.00    +0.000 A 
ATOM     35  C   UNL     1      -4.164  12.942  23.005  0.00  0.00    +0.000 A 
ENDBRANCH  29  30
ENDBRANCH  27  29
ENDBRANCH  24  27
ENDBRANCH   7  24
TORSDOF 7
ENDMDL
MODEL 3
REMARK VINA RESULT:      -8.7      2.182      3.130
REMARK  Name = 
REMARK  8 active torsions:
REMARK  status: ('A' for Active; 'I' for Inactive)
REMARK    1  A    between atoms: C_1  and  C_2
REMARK    2  A    between atoms: C_5  and  C_6
REMARK    3  A    between atoms: N_8  and  C_9
REMARK    4  A    between atoms: C_14  and  N_15
REMARK    5  A    between atoms: C_22  and  S_23
REMARK    6  A    between atoms: S_23  and  N_26
REMARK    7  A    between atoms: N_26  and  C_27
REMARK    8  A    between atoms: C_27  and  C_28
REMARK                            x       y       z     vdW  Elec       q    Type
REMARK                         _______ _______ _______ _____ _____    ______ ____
ROOT
ATOM      1  C   UNL     1      -0.415   9.737  22.787  0.00  0.00    +0.000 C 
ATOM      2  C   UNL     1       0.352   9.169  21.628  0.00  0.00    +0.000 A 
ATOM      3  C   UNL     1       0.899   7.882  21.654  0.00  0.00    +0.000 A 
ATOM      4  C   UNL     1       1.631   7.361  20.555  0.00  0.00    +0.000 A 
ATOM      5  C   UNL     1       1.848   8.129  19.405  0.00  0.00    +0.000 A 
ATOM      6  C   UNL     1       1.300   9.392  19.387  0.00  0.00    +0.000 A 
ATOM      7  C   UNL     1       0.533   9.896  20.458  0.00  0.00    +0.000 A 
ENDROOT
BRANCH   5   8
ATOM      8  C   UNL     1       2.618   7.669  18.195  0.00  0.00    +0.000 C 
ATOM      9  O   UNL     1       2.533   8.290  17.162  0.00  0.00    +0.000 OA
ATOM     10  N   UNL     1       3.372   6.507  18.389  0.00  0.00    +0.000 N 
ATOM     11  H   UNL     1       3.178   5.924  19.193  0.00  0.00    +0.000 HD
BRANCH  10  12
ATOM     12  C   UNL     1       4.157   5.915  17.374  0.00  0.00    +0.000 A 
ATOM     13  C   UNL     1       4.928   6.724  16.529  0.00  0.00    +0.000 A 
ATOM     14  C   UNL     1       5.783   6.143  15.587  0.00  0.00    +0.000 A 
ATOM     15  C   UNL     1       5.880   4.757  15.494  0.00  0.00    +0.000 A 
ATOM     16  C   UNL     1       5.106   3.944  16.330  0.00  0.00    +0.000 A 
ATOM     17  C   UNL     1       4.206   4.510  17.245  0.00  0.00    +0.000 A 
BRANCH  17  18
ATOM     18  N   UNL     1       3.298   3.671  17.929  0.00  0.00    +0.000 N 
ATOM     19  C   UNL     1       1.896   3.585  17.618  0.00  0.00    +0.000 C 
ATOM     20  C   UNL     1       1.263   3.067  18.897  0.00  0.00    +0.000 C 
ATOM     21  C   UNL     1       2.375   2.275  19.567  0.00  0.00    +0.000 C 
ATOM     22  C   UNL     1       3.623   2.972  19.094  0.00  0.00    +0.000 C 
ATOM     23  O   UNL     1       4.700   2.912  19.673  0.00  0.00    +0.000 OA
ENDBRANCH  17  18
ENDBRANCH  10  12
ENDBRANCH   5   8
BRANCH   7  24
ATOM     24  S   UNL     1       0.083  11.581  20.249  0.00  0.00    +0.000 S 
ATOM     25  O   UNL     1       0.615  12.253  21.382  0.00  0.00    +0.000 OA
ATOM     26  O   UNL     1       0.530  11.890  18.878  0.00  0.00    +0.000 OA
BRANCH  24  27
ATOM     27  N   UNL     1      -1.598  11.927  20.231  0.00  0.00    +0.000 NA
ATOM     28  H   UNL     1      -2.005  11.069  20.616  0.00  0.00    +0.000 HD
BRANCH  27  29
ATOM     29  C   UNL     1      -1.989  13.147  21.029  0.00  0.00    +0.000 C 
BRANCH  29  30
ATOM     30  C   UNL     1      -3.127  13.080  22.066  0.00  0.00    +0.000 A 
ATOM     31  C   UNL     1      -4.497  13.316  21.778  0.00  0.00    +0.000 A 
ATOM     32  C   UNL     1      -5.540  13.193  22.716  0.00  0.00    +0.000 A 
ATOM     33  C   UNL     1      -5.253  12.780  23.994  0.00  0.00    +0.000 A 
ATOM     34  C   UNL     1      -3.921  12.502  24.314  0.00  0.00    +0.000 A 
ATOM     35  C   UNL     1      -2.885  12.645  23.369  0.00  0.00    +0.000 A 
ENDBRANCH  29  30
ENDBRANCH  27  29
ENDBRANCH  24  27
ENDBRANCH   7  24
TORSDOF 7
ENDMDL
MODEL 4
REMARK VINA RESULT:      -8.7      1.560      2.154
REMARK  Name = 
REMARK  8 active torsions:
REMARK  status: ('A' for Active; 'I' for Inactive)
REMARK    1  A    between atoms: C_1  and  C_2
REMARK    2  A    between atoms: C_5  and  C_6
REMARK    3  A    between atoms: N_8  and  C_9
REMARK    4  A    between atoms: C_14  and  N_15
REMARK    5  A    between atoms: C_22  and  S_23
REMARK    6  A    between atoms: S_23  and  N_26
REMARK    7  A    between atoms: N_26  and  C_27
REMARK    8  A    between atoms: C_27  and  C_28
REMARK                            x       y       z     vdW  Elec       q    Type
REMARK                         _______ _______ _______ _____ _____    ______ ____
ROOT
ATOM      1  C   UNL     1      -0.738  10.515  22.561  0.00  0.00    +0.000 C 
ATOM      2  C   UNL     1       0.056   9.824  21.491  0.00  0.00    +0.000 A 
ATOM      3  C   UNL     1       0.790   8.660  21.740  0.00  0.00    +0.000 A 
ATOM      4  C   UNL     1       1.545   8.023  20.720  0.00  0.00    +0.000 A 
ATOM      5  C   UNL     1       1.597   8.550  19.426  0.00  0.00    +0.000 A 
ATOM      6  C   UNL     1       0.867   9.693  19.189  0.00  0.00    +0.000 A 
ATOM      7  C   UNL     1       0.078  10.303  20.187  0.00  0.00    +0.000 A 
ENDROOT
BRANCH   5   8
ATOM      8  C   UNL     1       2.376   7.954  18.283  0.00  0.00    +0.000 C 
ATOM      9  O   UNL     1       2.392   8.516  17.213  0.00  0.00    +0.000 OA
ATOM     10  N   UNL     1       3.017   6.746  18.580  0.00  0.00    +0.000 N 
ATOM     11  H   UNL     1       2.738   6.232  19.405  0.00  0.00    +0.000 HD
BRANCH  10  12
ATOM     12  C   UNL     1       3.790   6.028  17.640  0.00  0.00    +0.000 A 
ATOM     13  C   UNL     1       4.596   6.722  16.727  0.00  0.00    +0.000 A 
ATOM     14  C   UNL     1       5.439   6.021  15.860  0.00  0.00    +0.000 A 
ATOM     15  C   UNL     1       5.490   4.630  15.909  0.00  0.00    +0.000 A 
ATOM     16  C   UNL     1       4.682   3.932  16.813  0.00  0.00    +0.000 A 
ATOM     17  C   UNL     1       3.794   4.617  17.654  0.00  0.00    +0.000 A 
BRANCH  17  18
ATOM     18  N   UNL     1       2.851   3.881  18.408  0.00  0.00    +0.000 N 
ATOM     19  C   UNL     1       1.429   3.953  18.204  0.00  0.00    +0.000 C 
ATOM     20  C   UNL     1       0.840   3.505  19.528  0.00  0.00    +0.000 C 
ATOM     21  C   UNL     1       1.903   2.591  20.118  0.00  0.00    +0.000 C 
ATOM     22  C   UNL     1       3.182   3.147  19.549  0.00  0.00    +0.000 C 
ATOM     23  O   UNL     1       4.286   2.966  20.047  0.00  0.00    +0.000 OA
ENDBRANCH  17  18
ENDBRANCH  10  12
ENDBRANCH   5   8
BRANCH   7  24
ATOM     24  S   UNL     1      -0.626  11.828  19.670  0.00  0.00    +0.000 S 
ATOM     25  O   UNL     1      -0.009  12.817  20.481  0.00  0.00    +0.000 OA
ATOM     26  O   UNL     1      -0.461  11.806  18.205  0.00  0.00    +0.000 OA
BRANCH  24  27
ATOM     27  N   UNL     1      -2.318  12.005  19.900  0.00  0.00    +0.000 NA
ATOM     28  H   UNL     1      -2.405  12.993  20.154  0.00  0.00    +0.000 HD
BRANCH  27  29
ATOM     29  C   UNL     1      -3.148  11.655  18.689  0.00  0.00    +0.000 C 
BRANCH  29  30
ATOM     30  C   UNL     1      -4.664  11.933  18.665  0.00  0.00    +0.000 A 
ATOM     31  C   UNL     1      -5.464  12.154  19.817  0.00  0.00    +0.000 A 
ATOM     32  C   UNL     1      -6.836  12.468  19.785  0.00  0.00    +0.000 A 
ATOM     33  C   UNL     1      -7.466  12.618  18.574  0.00  0.00    +0.000 A 
ATOM     34  C   UNL     1      -6.710  12.444  17.411  0.00  0.00    +0.000 A 
ATOM     35  C   UNL     1      -5.340  12.114  17.458  0.00  0.00    +0.000 A 
ENDBRANCH  29  30
ENDBRANCH  27  29
ENDBRANCH  24  27
ENDBRANCH   7  24
TORSDOF 7
ENDMDL
MODEL 5
REMARK VINA RESULT:      -8.6      2.784      3.424
REMARK  Name = 
REMARK  8 active torsions:
REMARK  status: ('A' for Active; 'I' for Inactive)
REMARK    1  A    between atoms: C_1  and  C_2
REMARK    2  A    between atoms: C_5  and  C_6
REMARK    3  A    between atoms: N_8  and  C_9
REMARK    4  A    between atoms: C_14  and  N_15
REMARK    5  A    between atoms: C_22  and  S_23
REMARK    6  A    between atoms: S_23  and  N_26
REMARK    7  A    between atoms: N_26  and  C_27
REMARK    8  A    between atoms: C_27  and  C_28
REMARK                            x       y       z     vdW  Elec       q    Type
REMARK                         _______ _______ _______ _____ _____    ______ ____
ROOT
ATOM      1  C   UNL     1      -0.466  10.158  22.870  0.00  0.00    +0.000 C 
ATOM      2  C   UNL     1       0.273   9.513  21.733  0.00  0.00    +0.000 A 
ATOM      3  C   UNL     1       0.716   8.187  21.789  0.00  0.00    +0.000 A 
ATOM      4  C   UNL     1       1.424   7.593  20.711  0.00  0.00    +0.000 A 
ATOM      5  C   UNL     1       1.721   8.323  19.555  0.00  0.00    +0.000 A 
ATOM      6  C   UNL     1       1.276   9.625  19.508  0.00  0.00    +0.000 A 
ATOM      7  C   UNL     1       0.532  10.205  20.557  0.00  0.00    +0.000 A 
ENDROOT
BRANCH   5   8
ATOM      8  C   UNL     1       2.473   7.785  18.366  0.00  0.00    +0.000 C 
ATOM      9  O   UNL     1       2.454   8.392  17.322  0.00  0.00    +0.000 OA
ATOM     10  N   UNL     1       3.133   6.572  18.592  0.00  0.00    +0.000 N 
ATOM     11  H   UNL     1       2.881   6.019  19.401  0.00  0.00    +0.000 HD
BRANCH  10  12
ATOM     12  C   UNL     1       3.886   5.903  17.601  0.00  0.00    +0.000 A 
ATOM     13  C   UNL     1       4.691   6.641  16.723  0.00  0.00    +0.000 A 
ATOM     14  C   UNL     1       5.516   5.984  15.805  0.00  0.00    +0.000 A 
ATOM     15  C   UNL     1       5.549   4.592  15.768  0.00  0.00    +0.000 A 
ATOM     16  C   UNL     1       4.741   3.850  16.637  0.00  0.00    +0.000 A 
ATOM     17  C   UNL     1       3.871   4.494  17.529  0.00  0.00    +0.000 A 
BRANCH  17  18
ATOM     18  N   UNL     1       2.927   3.725  18.247  0.00  0.00    +0.000 N 
ATOM     19  C   UNL     1       1.513   3.740  17.982  0.00  0.00    +0.000 C 
ATOM     20  C   UNL     1       0.886   3.275  19.283  0.00  0.00    +0.000 C 
ATOM     21  C   UNL     1       1.958   2.407  19.923  0.00  0.00    +0.000 C 
ATOM     22  C   UNL     1       3.238   3.009  19.405  0.00  0.00    +0.000 C 
ATOM     23  O   UNL     1       4.326   2.873  19.949  0.00  0.00    +0.000 OA
ENDBRANCH  17  18
ENDBRANCH  10  12
ENDBRANCH   5   8
BRANCH   7  24
ATOM     24  S   UNL     1       0.221  11.917  20.315  0.00  0.00    +0.000 S 
ATOM     25  O   UNL     1      -1.184  12.019  20.134  0.00  0.00    +0.000 OA
ATOM     26  O   UNL     1       0.909  12.557  21.451  0.00  0.00    +0.000 OA
BRANCH  24  27
ATOM     27  N   UNL     1       0.937  12.635  18.930  0.00  0.00    +0.000 NA
ATOM     28  H   UNL     1       0.126  12.832  18.337  0.00  0.00    +0.000 HD
BRANCH  27  29
ATOM     29  C   UNL     1       1.741  13.879  19.222  0.00  0.00    +0.000 C 
BRANCH  29  30
ATOM     30  C   UNL     1       1.213  15.271  18.822  0.00  0.00    +0.000 A 
ATOM     31  C   UNL     1       2.009  16.311  18.275  0.00  0.00    +0.000 A 
ATOM     32  C   UNL     1       1.510  17.559  17.854  0.00  0.00    +0.000 A 
ATOM     33  C   UNL     1       0.161  17.804  17.927  0.00  0.00    +0.000 A 
ATOM     34  C   UNL     1      -0.668  16.796  18.428  0.00  0.00    +0.000 A 
ATOM     35  C   UNL     1      -0.153  15.558  18.860  0.00  0.00    +0.000 A 
ENDBRANCH  29  30
ENDBRANCH  27  29
ENDBRANCH  24  27
ENDBRANCH   7  24
TORSDOF 7
ENDMDL
MODEL 6
REMARK VINA RESULT:      -8.6      2.227      3.732
REMARK  Name = 
REMARK  8 active torsions:
REMARK  status: ('A' for Active; 'I' for Inactive)
REMARK    1  A    between atoms: C_1  and  C_2
REMARK    2  A    between atoms: C_5  and  C_6
REMARK    3  A    between atoms: N_8  and  C_9
REMARK    4  A    between atoms: C_14  and  N_15
REMARK    5  A    between atoms: C_22  and  S_23
REMARK    6  A    between atoms: S_23  and  N_26
REMARK    7  A    between atoms: N_26  and  C_27
REMARK    8  A    between atoms: C_27  and  C_28
REMARK                            x       y       z     vdW  Elec       q    Type
REMARK                         _______ _______ _______ _____ _____    ______ ____
ROOT
ATOM      1  C   UNL     1      -0.795  10.643  22.810  0.00  0.00    +0.000 C 
ATOM      2  C   UNL     1      -0.030   9.952  21.717  0.00  0.00    +0.000 A 
ATOM      3  C   UNL     1       0.684   8.771  21.938  0.00  0.00    +0.000 A 
ATOM      4  C   UNL     1       1.412   8.134  20.898  0.00  0.00    +0.000 A 
ATOM      5  C   UNL     1       1.455   8.681  19.611  0.00  0.00    +0.000 A 
ATOM      6  C   UNL     1       0.745   9.841  19.402  0.00  0.00    +0.000 A 
ATOM      7  C   UNL     1      -0.017  10.451  20.421  0.00  0.00    +0.000 A 
ENDROOT
BRANCH   5   8
ATOM      8  C   UNL     1       2.206   8.087  18.448  0.00  0.00    +0.000 C 
ATOM      9  O   UNL     1       2.126   8.604  17.359  0.00  0.00    +0.000 OA
ATOM     10  N   UNL     1       2.937   6.934  18.752  0.00  0.00    +0.000 N 
ATOM     11  H   UNL     1       2.738   6.438  19.611  0.00  0.00    +0.000 HD
BRANCH  10  12
ATOM     12  C   UNL     1       3.701   6.227  17.796  0.00  0.00    +0.000 A 
ATOM     13  C   UNL     1       4.490   6.931  16.877  0.00  0.00    +0.000 A 
ATOM     14  C   UNL     1       5.324   6.241  15.993  0.00  0.00    +0.000 A 
ATOM     15  C   UNL     1       5.384   4.849  16.032  0.00  0.00    +0.000 A 
ATOM     16  C   UNL     1       4.593   4.141  16.943  0.00  0.00    +0.000 A 
ATOM     17  C   UNL     1       3.713   4.815  17.801  0.00  0.00    +0.000 A 
BRANCH  17  18
ATOM     18  N   UNL     1       2.786   4.069  18.564  0.00  0.00    +0.000 N 
ATOM     19  C   UNL     1       3.128   3.346  19.759  0.00  0.00    +0.000 C 
ATOM     20  C   UNL     1       2.044   2.292  19.879  0.00  0.00    +0.000 C 
ATOM     21  C   UNL     1       0.845   2.909  19.175  0.00  0.00    +0.000 C 
ATOM     22  C   UNL     1       1.481   3.804  18.144  0.00  0.00    +0.000 C 
ATOM     23  O   UNL     1       0.912   4.188  17.130  0.00  0.00    +0.000 OA
ENDBRANCH  17  18
ENDBRANCH  10  12
ENDBRANCH   5   8
BRANCH   7  24
ATOM     24  S   UNL     1      -0.699  11.997  19.937  0.00  0.00    +0.000 S 
ATOM     25  O   UNL     1       0.053  12.397  18.801  0.00  0.00    +0.000 OA
ATOM     26  O   UNL     1      -2.146  11.727  19.859  0.00  0.00    +0.000 OA
BRANCH  24  27
ATOM     27  N   UNL     1      -0.570  13.277  21.073  0.00  0.00    +0.000 NA
ATOM     28  H   UNL     1      -0.073  13.998  20.541  0.00  0.00    +0.000 HD
BRANCH  27  29
ATOM     29  C   UNL     1      -1.895  13.775  21.600  0.00  0.00    +0.000 C 
BRANCH  29  30
ATOM     30  C   UNL     1      -2.027  14.282  23.049  0.00  0.00    +0.000 A 
ATOM     31  C   UNL     1      -0.981  14.888  23.792  0.00  0.00    +0.000 A 
ATOM     32  C   UNL     1      -1.125  15.405  25.094  0.00  0.00    +0.000 A 
ATOM     33  C   UNL     1      -2.357  15.374  25.699  0.00  0.00    +0.000 A 
ATOM     34  C   UNL     1      -3.426  14.817  24.991  0.00  0.00    +0.000 A 
ATOM     35  C   UNL     1      -3.264  14.289  23.695  0.00  0.00    +0.000 A 
ENDBRANCH  29  30
ENDBRANCH  27  29
ENDBRANCH  24  27
ENDBRANCH   7  24
TORSDOF 7
ENDMDL
MODEL 7
REMARK VINA RESULT:      -8.5      2.669      3.545
REMARK  Name = 
REMARK  8 active torsions:
REMARK  status: ('A' for Active; 'I' for Inactive)
REMARK    1  A    between atoms: C_1  and  C_2
REMARK    2  A    between atoms: C_5  and  C_6
REMARK    3  A    between atoms: N_8  and  C_9
REMARK    4  A    between atoms: C_14  and  N_15
REMARK    5  A    between atoms: C_22  and  S_23
REMARK    6  A    between atoms: S_23  and  N_26
REMARK    7  A    between atoms: N_26  and  C_27
REMARK    8  A    between atoms: C_27  and  C_28
REMARK                            x       y       z     vdW  Elec       q    Type
REMARK                         _______ _______ _______ _____ _____    ______ ____
ROOT
ATOM      1  C   UNL     1      -0.682  10.177  23.194  0.00  0.00    +0.000 C 
ATOM      2  C   UNL     1       0.061   9.589  22.028  0.00  0.00    +0.000 A 
ATOM      3  C   UNL     1       0.624   8.310  22.071  0.00  0.00    +0.000 A 
ATOM      4  C   UNL     1       1.333   7.771  20.965  0.00  0.00    +0.000 A 
ATOM      5  C   UNL     1       1.510   8.513  19.792  0.00  0.00    +0.000 A 
ATOM      6  C   UNL     1       0.947   9.768  19.758  0.00  0.00    +0.000 A 
ATOM      7  C   UNL     1       0.202  10.289  20.837  0.00  0.00    +0.000 A 
ENDROOT
BRANCH   5   8
ATOM      8  C   UNL     1       2.253   8.033  18.573  0.00  0.00    +0.000 C 
ATOM      9  O   UNL     1       2.185   8.664  17.545  0.00  0.00    +0.000 OA
ATOM     10  N   UNL     1       2.964   6.842  18.754  0.00  0.00    +0.000 N 
ATOM     11  H   UNL     1       2.755   6.261  19.555  0.00  0.00    +0.000 HD
BRANCH  10  12
ATOM     12  C   UNL     1       3.719   6.227  17.729  0.00  0.00    +0.000 A 
ATOM     13  C   UNL     1       4.470   7.017  16.848  0.00  0.00    +0.000 A 
ATOM     14  C   UNL     1       5.296   6.415  15.895  0.00  0.00    +0.000 A 
ATOM     15  C   UNL     1       5.385   5.027  15.825  0.00  0.00    +0.000 A 
ATOM     16  C   UNL     1       4.631   4.233  16.697  0.00  0.00    +0.000 A 
ATOM     17  C   UNL     1       3.759   4.820  17.625  0.00  0.00    +0.000 A 
BRANCH  17  18
ATOM     18  N   UNL     1       2.866   3.997  18.348  0.00  0.00    +0.000 N 
ATOM     19  C   UNL     1       3.262   3.156  19.446  0.00  0.00    +0.000 C 
ATOM     20  C   UNL     1       2.181   2.092  19.506  0.00  0.00    +0.000 C 
ATOM     21  C   UNL     1       0.953   2.776  18.926  0.00  0.00    +0.000 C 
ATOM     22  C   UNL     1       1.542   3.774  17.964  0.00  0.00    +0.000 C 
ATOM     23  O   UNL     1       0.928   4.260  17.023  0.00  0.00    +0.000 OA
ENDBRANCH  17  18
ENDBRANCH  10  12
ENDBRANCH   5   8
BRANCH   7  24
ATOM     24  S   UNL     1      -0.274  11.964  20.599  0.00  0.00    +0.000 S 
ATOM     25  O   UNL     1      -1.682  11.929  20.417  0.00  0.00    +0.000 OA
ATOM     26  O   UNL     1       0.348  12.665  21.738  0.00  0.00    +0.000 OA
BRANCH  24  27
ATOM     27  N   UNL     1       0.370  12.752  19.217  0.00  0.00    +0.000 NA
ATOM     28  H   UNL     1      -0.401  12.687  18.546  0.00  0.00    +0.000 HD
BRANCH  27  29
ATOM     29  C   UNL     1       0.791  14.181  19.458  0.00  0.00    +0.000 C 
BRANCH  29  30
ATOM     30  C   UNL     1       2.086  14.738  18.834  0.00  0.00    +0.000 A 
ATOM     31  C   UNL     1       3.289  14.001  18.675  0.00  0.00    +0.000 A 
ATOM     32  C   UNL     1       4.448  14.496  18.047  0.00  0.00    +0.000 A 
ATOM     33  C   UNL     1       4.436  15.758  17.507  0.00  0.00    +0.000 A 
ATOM     34  C   UNL     1       3.261  16.509  17.610  0.00  0.00    +0.000 A 
ATOM     35  C   UNL     1       2.113  16.007  18.254  0.00  0.00    +0.000 A 
ENDBRANCH  29  30
ENDBRANCH  27  29
ENDBRANCH  24  27
ENDBRANCH   7  24
TORSDOF 7
ENDMDL
MODEL 8
REMARK VINA RESULT:      -8.5      2.027      3.564
REMARK  Name = 
REMARK  8 active torsions:
REMARK  status: ('A' for Active; 'I' for Inactive)
REMARK    1  A    between atoms: C_1  and  C_2
REMARK    2  A    between atoms: C_5  and  C_6
REMARK    3  A    between atoms: N_8  and  C_9
REMARK    4  A    between atoms: C_14  and  N_15
REMARK    5  A    between atoms: C_22  and  S_23
REMARK    6  A    between atoms: S_23  and  N_26
REMARK    7  A    between atoms: N_26  and  C_27
REMARK    8  A    between atoms: C_27  and  C_28
REMARK                            x       y       z     vdW  Elec       q    Type
REMARK                         _______ _______ _______ _____ _____    ______ ____
ROOT
ATOM      1  C   UNL     1       1.097  12.671  18.633  0.00  0.00    +0.000 C 
ATOM      2  C   UNL     1       1.394  11.206  18.767  0.00  0.00    +0.000 A 
ATOM      3  C   UNL     1       2.135  10.504  17.811  0.00  0.00    +0.000 A 
ATOM      4  C   UNL     1       2.400   9.115  17.945  0.00  0.00    +0.000 A 
ATOM      5  C   UNL     1       1.910   8.391  19.037  0.00  0.00    +0.000 A 
ATOM      6  C   UNL     1       1.186   9.091  19.975  0.00  0.00    +0.000 A 
ATOM      7  C   UNL     1       0.960  10.480  19.869  0.00  0.00    +0.000 A 
ENDROOT
BRANCH   5   8
ATOM      8  C   UNL     1       2.128   6.918  19.261  0.00  0.00    +0.000 C 
ATOM      9  O   UNL     1       2.127   6.478  20.386  0.00  0.00    +0.000 OA
ATOM     10  N   UNL     1       2.338   6.174  18.095  0.00  0.00    +0.000 N 
ATOM     11  H   UNL     1       2.577   6.659  17.239  0.00  0.00    +0.000 HD
BRANCH  10  12
ATOM     12  C   UNL     1       2.568   4.780  18.097  0.00  0.00    +0.000 A 
ATOM     13  C   UNL     1       1.521   3.902  18.405  0.00  0.00    +0.000 A 
ATOM     14  C   UNL     1       1.711   2.520  18.313  0.00  0.00    +0.000 A 
ATOM     15  C   UNL     1       2.940   2.011  17.902  0.00  0.00    +0.000 A 
ATOM     16  C   UNL     1       3.993   2.883  17.600  0.00  0.00    +0.000 A 
ATOM     17  C   UNL     1       3.834   4.269  17.736  0.00  0.00    +0.000 A 
BRANCH  17  18
ATOM     18  N   UNL     1       4.966   5.108  17.621  0.00  0.00    +0.000 N 
ATOM     19  C   UNL     1       5.388   5.720  16.389  0.00  0.00    +0.000 C 
ATOM     20  C   UNL     1       6.863   6.004  16.602  0.00  0.00    +0.000 C 
ATOM     21  C   UNL     1       6.997   6.168  18.108  0.00  0.00    +0.000 C 
ATOM     22  C   UNL     1       5.899   5.288  18.644  0.00  0.00    +0.000 C 
ATOM     23  O   UNL     1       5.884   4.830  19.779  0.00  0.00    +0.000 OA
ENDBRANCH  17  18
ENDBRANCH  10  12
ENDBRANCH   5   8
BRANCH   7  24
ATOM     24  S   UNL     1      -0.118  11.098  21.112  0.00  0.00    +0.000 S 
ATOM     25  O   UNL     1      -0.519   9.958  21.858  0.00  0.00    +0.000 OA
ATOM     26  O   UNL     1       0.652  12.198  21.721  0.00  0.00    +0.000 OA
BRANCH  24  27
ATOM     27  N   UNL     1      -1.562  11.847  20.566  0.00  0.00    +0.000 NA
ATOM     28  H   UNL     1      -1.287  12.831  20.488  0.00  0.00    +0.000 HD
BRANCH  27  29
ATOM     29  C   UNL     1      -2.089  11.302  19.261  0.00  0.00    +0.000 C 
BRANCH  29  30
ATOM     30  C   UNL     1      -3.458  11.749  18.714  0.00  0.00    +0.000 A 
ATOM     31  C   UNL     1      -3.937  11.471  17.406  0.00  0.00    +0.000 A 
ATOM     32  C   UNL     1      -5.214  11.829  16.933  0.00  0.00    +0.000 A 
ATOM     33  C   UNL     1      -6.095  12.456  17.779  0.00  0.00    +0.000 A 
ATOM     34  C   UNL     1      -5.680  12.721  19.087  0.00  0.00    +0.000 A 
ATOM     35  C   UNL     1      -4.393  12.370  19.543  0.00  0.00    +0.000 A 
ENDBRANCH  29  30
ENDBRANCH  27  29
ENDBRANCH  24  27
ENDBRANCH   7  24
TORSDOF 7
ENDMDL
MODEL 9
REMARK VINA RESULT:      -8.5      2.770      3.491
REMARK  Name = 
REMARK  8 active torsions:
REMARK  status: ('A' for Active; 'I' for Inactive)
REMARK    1  A    between atoms: C_1  and  C_2
REMARK    2  A    between atoms: C_5  and  C_6
REMARK    3  A    between atoms: N_8  and  C_9
REMARK    4  A    between atoms: C_14  and  N_15
REMARK    5  A    between atoms: C_22  and  S_23
REMARK    6  A    between atoms: S_23  and  N_26
REMARK    7  A    between atoms: N_26  and  C_27
REMARK    8  A    between atoms: C_27  and  C_28
REMARK                            x       y       z     vdW  Elec       q    Type
REMARK                         _______ _______ _______ _____ _____    ______ ____
ROOT
ATOM      1  C   UNL     1      -0.527  10.479  22.666  0.00  0.00    +0.000 C 
ATOM      2  C   UNL     1       0.224   9.783  21.569  0.00  0.00    +0.000 A 
ATOM      3  C   UNL     1       0.905   8.580  21.777  0.00  0.00    +0.000 A 
ATOM      4  C   UNL     1       1.621   7.938  20.732  0.00  0.00    +0.000 A 
ATOM      5  C   UNL     1       1.685   8.501  19.452  0.00  0.00    +0.000 A 
ATOM      6  C   UNL     1       1.007   9.682  19.256  0.00  0.00    +0.000 A 
ATOM      7  C   UNL     1       0.257  10.299  20.279  0.00  0.00    +0.000 A 
ENDROOT
BRANCH   5   8
ATOM      8  C   UNL     1       2.426   7.903  18.285  0.00  0.00    +0.000 C 
ATOM      9  O   UNL     1       2.395   8.456  17.211  0.00  0.00    +0.000 OA
ATOM     10  N   UNL     1       3.088   6.703  18.565  0.00  0.00    +0.000 N 
ATOM     11  H   UNL     1       2.845   6.192  19.404  0.00  0.00    +0.000 HD
BRANCH  10  12
ATOM     12  C   UNL     1       3.831   5.984  17.602  0.00  0.00    +0.000 A 
ATOM     13  C   UNL     1       4.636   6.675  16.687  0.00  0.00    +0.000 A 
ATOM     14  C   UNL     1       5.451   5.972  15.795  0.00  0.00    +0.000 A 
ATOM     15  C   UNL     1       5.474   4.579  15.821  0.00  0.00    +0.000 A 
ATOM     16  C   UNL     1       4.665   3.883  16.728  0.00  0.00    +0.000 A 
ATOM     17  C   UNL     1       3.805   4.573  17.594  0.00  0.00    +0.000 A 
BRANCH  17  18
ATOM     18  N   UNL     1       2.860   3.845  18.351  0.00  0.00    +0.000 N 
ATOM     19  C   UNL     1       1.438   3.919  18.145  0.00  0.00    +0.000 C 
ATOM     20  C   UNL     1       0.846   3.481  19.471  0.00  0.00    +0.000 C 
ATOM     21  C   UNL     1       1.907   2.568  20.068  0.00  0.00    +0.000 C 
ATOM     22  C   UNL     1       3.188   3.117  19.497  0.00  0.00    +0.000 C 
ATOM     23  O   UNL     1       4.291   2.935  19.997  0.00  0.00    +0.000 OA
ENDBRANCH  17  18
ENDBRANCH  10  12
ENDBRANCH   5   8
BRANCH   7  24
ATOM     24  S   UNL     1      -0.381  11.869  19.813  0.00  0.00    +0.000 S 
ATOM     25  O   UNL     1      -0.011  12.032  18.452  0.00  0.00    +0.000 OA
ATOM     26  O   UNL     1      -1.792  11.808  20.236  0.00  0.00    +0.000 OA
BRANCH  24  27
ATOM     27  N   UNL     1       0.251  13.228  20.649  0.00  0.00    +0.000 NA
ATOM     28  H   UNL     1       0.588  12.814  21.524  0.00  0.00    +0.000 HD
BRANCH  27  29
ATOM     29  C   UNL     1       1.345  13.958  19.909  0.00  0.00    +0.000 C 
BRANCH  29  30
ATOM     30  C   UNL     1       1.036  15.230  19.097  0.00  0.00    +0.000 A 
ATOM     31  C   UNL     1      -0.262  15.774  18.909  0.00  0.00    +0.000 A 
ATOM     32  C   UNL     1      -0.532  16.971  18.218  0.00  0.00    +0.000 A 
ATOM     33  C   UNL     1       0.511  17.708  17.713  0.00  0.00    +0.000 A 
ATOM     34  C   UNL     1       1.811  17.229  17.904  0.00  0.00    +0.000 A 
ATOM     35  C   UNL     1       2.065  16.021  18.584  0.00  0.00    +0.000 A 
ENDBRANCH  29  30
ENDBRANCH  27  29
ENDBRANCH  24  27
ENDBRANCH   7  24
TORSDOF 7
ENDMDL
