MODEL 1
REMARK VINA RESULT:      -7.5      0.000      0.000
REMARK  Name = 
REMARK  6 active torsions:
REMARK  status: ('A' for Active; 'I' for Inactive)
REMARK    1  A    between atoms: C_1  and  O_2
REMARK    2  A    between atoms: O_2  and  C_3
REMARK    3  A    between atoms: C_5  and  C_6
REMARK    4  A    between atoms: C_8  and  C_9
REMARK    5  A    between atoms: N_14  and  S_15
REMARK    6  A    between atoms: S_15  and  C_18
REMARK                            x       y       z     vdW  Elec       q    Type
REMARK                         _______ _______ _______ _____ _____    ______ ____
ROOT
ATOM      1  C   UNL     1       1.508   2.939  19.532  0.00  0.00    +0.000 C 
ATOM      2  C   UNL     1       2.737   2.855  18.648  0.00  0.00    +0.000 C 
ATOM      3  C   UNL     1       3.667   3.876  19.309  0.00  0.00    +0.000 C 
ATOM      4  N   UNL     1       2.758   5.031  19.556  0.00  0.00    +0.000 NA
ATOM      5  C   UNL     1       1.417   4.437  19.880  0.00  0.00    +0.000 C 
ENDROOT
BRANCH   3   6
ATOM      6  C   UNL     1       4.916   4.084  18.535  0.00  0.00    +0.000 A 
ATOM      7  N   UNL     1       5.074   3.991  17.231  0.00  0.00    +0.000 NA
ATOM      8  C   UNL     1       6.375   4.360  17.031  0.00  0.00    +0.000 A 
ATOM      9  N   UNL     1       7.073   4.560  18.155  0.00  0.00    +0.000 NA
ATOM     10  N   UNL     1       6.126   4.391  19.099  0.00  0.00    +0.000 N 
ATOM     11  H   UNL     1       6.333   4.625  20.063  0.00  0.00    +0.000 HD
BRANCH   8  12
ATOM     12  C   UNL     1       6.867   4.687  15.631  0.00  0.00    +0.000 C 
ATOM     13  C   UNL     1       5.953   5.266  14.582  0.00  0.00    +0.000 C 
ATOM     14  C   UNL     1       6.335   3.829  14.495  0.00  0.00    +0.000 C 
ENDBRANCH   8  12
ENDBRANCH   3   6
BRANCH   4  15
ATOM     15  S   UNL     1       2.761   6.478  18.669  0.00  0.00    +0.000 S 
ATOM     16  O   UNL     1       4.144   6.875  18.517  0.00  0.00    +0.000 OA
ATOM     17  O   UNL     1       1.974   6.242  17.476  0.00  0.00    +0.000 OA
BRANCH  15  18
ATOM     18  C   UNL     1       1.899   7.683  19.687  0.00  0.00    +0.000 A 
ATOM     19  C   UNL     1       1.368   7.184  20.886  0.00  0.00    +0.000 A 
ATOM     20  C   UNL     1       0.843   8.030  21.853  0.00  0.00    +0.000 A 
ATOM     21  C   UNL     1       0.733   9.382  21.580  0.00  0.00    +0.000 A 
ATOM     22  C   UNL     1       1.079   9.885  20.320  0.00  0.00    +0.000 A 
ATOM     23  C   UNL     1       0.779  11.228  20.046  0.00  0.00    +0.000 A 
ATOM     24  C   UNL     1       1.026  11.773  18.792  0.00  0.00    +0.000 A 
ATOM     25  C   UNL     1       1.624  10.994  17.816  0.00  0.00    +0.000 A 
ATOM     26  C   UNL     1       1.966   9.664  18.087  0.00  0.00    +0.000 A 
ATOM     27  C   UNL     1       1.683   9.048  19.335  0.00  0.00    +0.000 A 
ENDBRANCH  15  18
ENDBRANCH   4  15
BRANCH   1  29
ATOM     28  C   UNL     1       1.416   2.680  21.909  0.00  0.00    +0.000 C 
ATOM     29  O   UNL     1       1.769   2.101  20.662  0.00  0.00    +0.000 OA
ENDBRANCH   1  29
TORSDOF 5
ENDMDL
MODEL 2
REMARK VINA RESULT:      -7.5      2.294      5.004
REMARK  Name = 
REMARK  6 active torsions:
REMARK  status: ('A' for Active; 'I' for Inactive)
REMARK    1  A    between atoms: C_1  and  O_2
REMARK    2  A    between atoms: O_2  and  C_3
REMARK    3  A    between atoms: C_5  and  C_6
REMARK    4  A    between atoms: C_8  and  C_9
REMARK    5  A    between atoms: N_14  and  S_15
REMARK    6  A    between atoms: S_15  and  C_18
REMARK                            x       y       z     vdW  Elec       q    Type
REMARK                         _______ _______ _______ _____ _____    ______ ____
ROOT
ATOM      1  C   UNL     1       6.534   4.325  14.655  0.00  0.00    +0.000 C 
ATOM      2  C   UNL     1       5.854   3.228  15.453  0.00  0.00    +0.000 C 
ATOM      3  C   UNL     1       4.705   3.991  16.116  0.00  0.00    +0.000 C 
ATOM      4  N   UNL     1       5.374   5.233  16.598  0.00  0.00    +0.000 NA
ATOM      5  C   UNL     1       6.425   5.557  15.575  0.00  0.00    +0.000 C 
ENDROOT
BRANCH   3   6
ATOM      6  C   UNL     1       3.951   3.150  17.079  0.00  0.00    +0.000 A 
ATOM      7  N   UNL     1       2.762   3.390  17.592  0.00  0.00    +0.000 NA
ATOM      8  C   UNL     1       2.497   2.276  18.339  0.00  0.00    +0.000 A 
ATOM      9  N   UNL     1       3.510   1.407  18.417  0.00  0.00    +0.000 NA
ATOM     10  N   UNL     1       4.421   1.973  17.601  0.00  0.00    +0.000 N 
ATOM     11  H   UNL     1       5.255   1.457  17.347  0.00  0.00    +0.000 HD
BRANCH   8  12
ATOM     12  C   UNL     1       1.087   2.018  18.845  0.00  0.00    +0.000 C 
ATOM     13  C   UNL     1       0.140   3.145  19.170  0.00  0.00    +0.000 C 
ATOM     14  C   UNL     1       0.790   2.402  20.286  0.00  0.00    +0.000 C 
ENDBRANCH   8  12
ENDBRANCH   3   6
BRANCH   4  15
ATOM     15  S   UNL     1       5.754   5.567  18.217  0.00  0.00    +0.000 S 
ATOM     16  O   UNL     1       6.320   4.357  18.775  0.00  0.00    +0.000 OA
ATOM     17  O   UNL     1       6.559   6.772  18.221  0.00  0.00    +0.000 OA
BRANCH  15  18
ATOM     18  C   UNL     1       4.191   5.928  19.028  0.00  0.00    +0.000 A 
ATOM     19  C   UNL     1       3.784   4.991  19.989  0.00  0.00    +0.000 A 
ATOM     20  C   UNL     1       2.701   5.231  20.822  0.00  0.00    +0.000 A 
ATOM     21  C   UNL     1       1.934   6.366  20.623  0.00  0.00    +0.000 A 
ATOM     22  C   UNL     1       2.200   7.226  19.551  0.00  0.00    +0.000 A 
ATOM     23  C   UNL     1       1.284   8.258  19.296  0.00  0.00    +0.000 A 
ATOM     24  C   UNL     1       1.445   9.102  18.205  0.00  0.00    +0.000 A 
ATOM     25  C   UNL     1       2.553   8.956  17.388  0.00  0.00    +0.000 A 
ATOM     26  C   UNL     1       3.498   7.958  17.653  0.00  0.00    +0.000 A 
ATOM     27  C   UNL     1       3.347   7.037  18.724  0.00  0.00    +0.000 A 
ENDBRANCH  15  18
ENDBRANCH   4  15
BRANCH   1  29
ATOM     28  C   UNL     1       6.130   3.482  12.453  0.00  0.00    +0.000 C 
ATOM     29  O   UNL     1       5.796   4.450  13.436  0.00  0.00    +0.000 OA
ENDBRANCH   1  29
TORSDOF 5
ENDMDL
MODEL 3
REMARK VINA RESULT:      -7.3      1.223      1.292
REMARK  Name = 
REMARK  6 active torsions:
REMARK  status: ('A' for Active; 'I' for Inactive)
REMARK    1  A    between atoms: C_1  and  O_2
REMARK    2  A    between atoms: O_2  and  C_3
REMARK    3  A    between atoms: C_5  and  C_6
REMARK    4  A    between atoms: C_8  and  C_9
REMARK    5  A    between atoms: N_14  and  S_15
REMARK    6  A    between atoms: S_15  and  C_18
REMARK                            x       y       z     vdW  Elec       q    Type
REMARK                         _______ _______ _______ _____ _____    ______ ____
ROOT
ATOM      1  C   UNL     1       1.721   3.622  19.815  0.00  0.00    +0.000 C 
ATOM      2  C   UNL     1       2.685   3.615  18.643  0.00  0.00    +0.000 C 
ATOM      3  C   UNL     1       3.652   4.737  19.028  0.00  0.00    +0.000 C 
ATOM      4  N   UNL     1       2.732   5.816  19.488  0.00  0.00    +0.000 NA
ATOM      5  C   UNL     1       1.581   5.118  20.155  0.00  0.00    +0.000 C 
ENDROOT
BRANCH   3   6
ATOM      6  C   UNL     1       4.635   5.026  17.955  0.00  0.00    +0.000 A 
ATOM      7  N   UNL     1       4.605   4.603  16.708  0.00  0.00    +0.000 NA
ATOM      8  C   UNL     1       5.678   5.220  16.127  0.00  0.00    +0.000 A 
ATOM      9  N   UNL     1       6.447   5.909  16.977  0.00  0.00    +0.000 NA
ATOM     10  N   UNL     1       5.763   5.784  18.130  0.00  0.00    +0.000 N 
ATOM     11  H   UNL     1       6.036   6.333  18.937  0.00  0.00    +0.000 HD
BRANCH   8  12
ATOM     12  C   UNL     1       5.816   5.242  14.614  0.00  0.00    +0.000 C 
ATOM     13  C   UNL     1       5.932   3.974  13.806  0.00  0.00    +0.000 C 
ATOM     14  C   UNL     1       7.151   4.800  14.036  0.00  0.00    +0.000 C 
ENDBRANCH   8  12
ENDBRANCH   3   6
BRANCH   4  15
ATOM     15  S   UNL     1       2.369   7.223  18.612  0.00  0.00    +0.000 S 
ATOM     16  O   UNL     1       3.633   7.815  18.224  0.00  0.00    +0.000 OA
ATOM     17  O   UNL     1       1.436   6.844  17.572  0.00  0.00    +0.000 OA
BRANCH  15  18
ATOM     18  C   UNL     1       1.523   8.316  19.761  0.00  0.00    +0.000 A 
ATOM     19  C   UNL     1       1.747   8.047  21.119  0.00  0.00    +0.000 A 
ATOM     20  C   UNL     1       1.314   8.915  22.111  0.00  0.00    +0.000 A 
ATOM     21  C   UNL     1       0.541  10.009  21.761  0.00  0.00    +0.000 A 
ATOM     22  C   UNL     1       0.139  10.202  20.434  0.00  0.00    +0.000 A 
ATOM     23  C   UNL     1      -0.786  11.223  20.171  0.00  0.00    +0.000 A 
ATOM     24  C   UNL     1      -1.285  11.423  18.890  0.00  0.00    +0.000 A 
ATOM     25  C   UNL     1      -0.823  10.636  17.849  0.00  0.00    +0.000 A 
ATOM     26  C   UNL     1       0.130   9.639  18.088  0.00  0.00    +0.000 A 
ATOM     27  C   UNL     1       0.627   9.362  19.389  0.00  0.00    +0.000 A 
ENDBRANCH  15  18
ENDBRANCH   4  15
BRANCH   1  29
ATOM     28  C   UNL     1       1.486   2.547  21.940  0.00  0.00    +0.000 C 
ATOM     29  O   UNL     1       2.342   2.852  20.849  0.00  0.00    +0.000 OA
ENDBRANCH   1  29
TORSDOF 5
ENDMDL
MODEL 4
REMARK VINA RESULT:      -7.2      1.970      2.247
REMARK  Name = 
REMARK  6 active torsions:
REMARK  status: ('A' for Active; 'I' for Inactive)
REMARK    1  A    between atoms: C_1  and  O_2
REMARK    2  A    between atoms: O_2  and  C_3
REMARK    3  A    between atoms: C_5  and  C_6
REMARK    4  A    between atoms: C_8  and  C_9
REMARK    5  A    between atoms: N_14  and  S_15
REMARK    6  A    between atoms: S_15  and  C_18
REMARK                            x       y       z     vdW  Elec       q    Type
REMARK                         _______ _______ _______ _____ _____    ______ ____
ROOT
ATOM      1  C   UNL     1       1.618   4.859  20.383  0.00  0.00    +0.000 C 
ATOM      2  C   UNL     1       2.496   4.653  19.164  0.00  0.00    +0.000 C 
ATOM      3  C   UNL     1       3.444   5.851  19.256  0.00  0.00    +0.000 C 
ATOM      4  N   UNL     1       2.517   6.975  19.573  0.00  0.00    +0.000 NA
ATOM      5  C   UNL     1       1.444   6.389  20.446  0.00  0.00    +0.000 C 
ENDROOT
BRANCH   3   6
ATOM      6  C   UNL     1       4.337   5.955  18.076  0.00  0.00    +0.000 A 
ATOM      7  N   UNL     1       4.417   5.124  17.057  0.00  0.00    +0.000 NA
ATOM      8  C   UNL     1       5.317   5.720  16.218  0.00  0.00    +0.000 A 
ATOM      9  N   UNL     1       5.894   6.819  16.716  0.00  0.00    +0.000 NA
ATOM     10  N   UNL     1       5.251   6.958  17.891  0.00  0.00    +0.000 N 
ATOM     11  H   UNL     1       5.381   7.803  18.436  0.00  0.00    +0.000 HD
BRANCH   8  12
ATOM     12  C   UNL     1       5.455   5.237  14.784  0.00  0.00    +0.000 C 
ATOM     13  C   UNL     1       5.840   3.816  14.456  0.00  0.00    +0.000 C 
ATOM     14  C   UNL     1       6.856   4.895  14.303  0.00  0.00    +0.000 C 
ENDBRANCH   8  12
ENDBRANCH   3   6
BRANCH   4  15
ATOM     15  S   UNL     1       2.039   8.180  18.479  0.00  0.00    +0.000 S 
ATOM     16  O   UNL     1       3.239   8.885  18.080  0.00  0.00    +0.000 OA
ATOM     17  O   UNL     1       1.247   7.531  17.455  0.00  0.00    +0.000 OA
BRANCH  15  18
ATOM     18  C   UNL     1       0.970   9.291  19.403  0.00  0.00    +0.000 A 
ATOM     19  C   UNL     1       1.276   9.422  20.765  0.00  0.00    +0.000 A 
ATOM     20  C   UNL     1       0.659  10.380  21.558  0.00  0.00    +0.000 A 
ATOM     21  C   UNL     1      -0.364  11.143  21.022  0.00  0.00    +0.000 A 
ATOM     22  C   UNL     1      -0.822  10.907  19.721  0.00  0.00    +0.000 A 
ATOM     23  C   UNL     1      -1.973  11.588  19.298  0.00  0.00    +0.000 A 
ATOM     24  C   UNL     1      -2.527  11.347  18.047  0.00  0.00    +0.000 A 
ATOM     25  C   UNL     1      -1.904  10.460  17.186  0.00  0.00    +0.000 A 
ATOM     26  C   UNL     1      -0.732   9.803  17.578  0.00  0.00    +0.000 A 
ATOM     27  C   UNL     1      -0.160   9.976  18.866  0.00  0.00    +0.000 A 
ENDBRANCH  15  18
ENDBRANCH   4  15
BRANCH   1  29
ATOM     28  C   UNL     1       2.277   2.901  21.590  0.00  0.00    +0.000 C 
ATOM     29  O   UNL     1       2.338   4.316  21.493  0.00  0.00    +0.000 OA
ENDBRANCH   1  29
TORSDOF 5
ENDMDL
MODEL 5
REMARK VINA RESULT:      -7.1      2.506      4.464
REMARK  Name = 
REMARK  6 active torsions:
REMARK  status: ('A' for Active; 'I' for Inactive)
REMARK    1  A    between atoms: C_1  and  O_2
REMARK    2  A    between atoms: O_2  and  C_3
REMARK    3  A    between atoms: C_5  and  C_6
REMARK    4  A    between atoms: C_8  and  C_9
REMARK    5  A    between atoms: N_14  and  S_15
REMARK    6  A    between atoms: S_15  and  C_18
REMARK                            x       y       z     vdW  Elec       q    Type
REMARK                         _______ _______ _______ _____ _____    ______ ____
ROOT
ATOM      1  C   UNL     1       7.510   6.907  17.958  0.00  0.00    +0.000 C 
ATOM      2  C   UNL     1       7.633   5.816  16.911  0.00  0.00    +0.000 C 
ATOM      3  C   UNL     1       6.288   5.922  16.190  0.00  0.00    +0.000 C 
ATOM      4  N   UNL     1       5.322   6.043  17.319  0.00  0.00    +0.000 NA
ATOM      5  C   UNL     1       6.032   6.829  18.384  0.00  0.00    +0.000 C 
ENDROOT
BRANCH   3   6
ATOM      6  C   UNL     1       6.101   4.847  15.184  0.00  0.00    +0.000 A 
ATOM      7  N   UNL     1       5.624   4.968  13.962  0.00  0.00    +0.000 NA
ATOM      8  C   UNL     1       5.745   3.712  13.437  0.00  0.00    +0.000 A 
ATOM      9  N   UNL     1       6.158   2.785  14.309  0.00  0.00    +0.000 NA
ATOM     10  N   UNL     1       6.391   3.527  15.408  0.00  0.00    +0.000 N 
ATOM     11  H   UNL     1       6.858   3.109  16.205  0.00  0.00    +0.000 HD
BRANCH   8  12
ATOM     12  C   UNL     1       5.596   3.495  11.941  0.00  0.00    +0.000 C 
ATOM     13  C   UNL     1       4.245   3.331  11.291  0.00  0.00    +0.000 C 
ATOM     14  C   UNL     1       5.104   2.130  11.487  0.00  0.00    +0.000 C 
ENDBRANCH   8  12
ENDBRANCH   3   6
BRANCH   4  15
ATOM     15  S   UNL     1       4.281   4.810  17.845  0.00  0.00    +0.000 S 
ATOM     16  O   UNL     1       3.568   4.336  16.677  0.00  0.00    +0.000 OA
ATOM     17  O   UNL     1       5.087   3.867  18.592  0.00  0.00    +0.000 OA
BRANCH  15  18
ATOM     18  C   UNL     1       3.124   5.590  18.978  0.00  0.00    +0.000 A 
ATOM     19  C   UNL     1       2.668   4.774  20.024  0.00  0.00    +0.000 A 
ATOM     20  C   UNL     1       1.923   5.290  21.074  0.00  0.00    +0.000 A 
ATOM     21  C   UNL     1       1.521   6.614  21.030  0.00  0.00    +0.000 A 
ATOM     22  C   UNL     1       1.800   7.406  19.910  0.00  0.00    +0.000 A 
ATOM     23  C   UNL     1       1.216   8.680  19.847  0.00  0.00    +0.000 A 
ATOM     24  C   UNL     1       1.388   9.490  18.732  0.00  0.00    +0.000 A 
ATOM     25  C   UNL     1       2.189   9.055  17.690  0.00  0.00    +0.000 A 
ATOM     26  C   UNL     1       2.811   7.802  17.756  0.00  0.00    +0.000 A 
ATOM     27  C   UNL     1       2.620   6.918  18.850  0.00  0.00    +0.000 A 
ENDBRANCH  15  18
ENDBRANCH   4  15
BRANCH   1  29
ATOM     28  C   UNL     1       8.278   9.161  18.185  0.00  0.00    +0.000 C 
ATOM     29  O   UNL     1       7.857   8.131  17.304  0.00  0.00    +0.000 OA
ENDBRANCH   1  29
TORSDOF 5
ENDMDL
MODEL 6
REMARK VINA RESULT:      -7.1      2.402      4.247
REMARK  Name = 
REMARK  6 active torsions:
REMARK  status: ('A' for Active; 'I' for Inactive)
REMARK    1  A    between atoms: C_1  and  O_2
REMARK    2  A    between atoms: O_2  and  C_3
REMARK    3  A    between atoms: C_5  and  C_6
REMARK    4  A    between atoms: C_8  and  C_9
REMARK    5  A    between atoms: N_14  and  S_15
REMARK    6  A    between atoms: S_15  and  C_18
REMARK                            x       y       z     vdW  Elec       q    Type
REMARK                         _______ _______ _______ _____ _____    ______ ____
ROOT
ATOM      1  C   UNL     1       7.729   5.383  19.149  0.00  0.00    +0.000 C 
ATOM      2  C   UNL     1       7.895   4.692  17.809  0.00  0.00    +0.000 C 
ATOM      3  C   UNL     1       6.961   5.512  16.916  0.00  0.00    +0.000 C 
ATOM      4  N   UNL     1       5.742   5.651  17.763  0.00  0.00    +0.000 NA
ATOM      5  C   UNL     1       6.233   5.753  19.178  0.00  0.00    +0.000 C 
ENDROOT
BRANCH   3   6
ATOM      6  C   UNL     1       6.840   4.941  15.552  0.00  0.00    +0.000 A 
ATOM      7  N   UNL     1       6.224   3.831  15.201  0.00  0.00    +0.000 NA
ATOM      8  C   UNL     1       6.333   3.813  13.839  0.00  0.00    +0.000 A 
ATOM      9  N   UNL     1       7.091   4.791  13.331  0.00  0.00    +0.000 NA
ATOM     10  N   UNL     1       7.394   5.503  14.432  0.00  0.00    +0.000 N 
ATOM     11  H   UNL     1       7.851   6.403  14.337  0.00  0.00    +0.000 HD
BRANCH   8  12
ATOM     12  C   UNL     1       5.482   2.856  13.021  0.00  0.00    +0.000 C 
ATOM     13  C   UNL     1       5.841   2.484  11.604  0.00  0.00    +0.000 C 
ATOM     14  C   UNL     1       4.726   3.443  11.840  0.00  0.00    +0.000 C 
ENDBRANCH   8  12
ENDBRANCH   3   6
BRANCH   4  15
ATOM     15  S   UNL     1       4.287   4.813  17.517  0.00  0.00    +0.000 S 
ATOM     16  O   UNL     1       3.828   5.150  16.186  0.00  0.00    +0.000 OA
ATOM     17  O   UNL     1       4.543   3.422  17.828  0.00  0.00    +0.000 OA
BRANCH  15  18
ATOM     18  C   UNL     1       3.132   5.461  18.731  0.00  0.00    +0.000 A 
ATOM     19  C   UNL     1       2.654   4.526  19.662  0.00  0.00    +0.000 A 
ATOM     20  C   UNL     1       1.907   4.918  20.764  0.00  0.00    +0.000 A 
ATOM     21  C   UNL     1       1.525   6.242  20.885  0.00  0.00    +0.000 A 
ATOM     22  C   UNL     1       1.825   7.165  19.877  0.00  0.00    +0.000 A 
ATOM     23  C   UNL     1       1.261   8.446  19.972  0.00  0.00    +0.000 A 
ATOM     24  C   UNL     1       1.455   9.388  18.970  0.00  0.00    +0.000 A 
ATOM     25  C   UNL     1       2.259   9.076  17.887  0.00  0.00    +0.000 A 
ATOM     26  C   UNL     1       2.862   7.815  17.797  0.00  0.00    +0.000 A 
ATOM     27  C   UNL     1       2.648   6.803  18.769  0.00  0.00    +0.000 A 
ENDBRANCH  15  18
ENDBRANCH   4  15
BRANCH   1  29
ATOM     28  C   UNL     1       8.087   7.632  18.416  0.00  0.00    +0.000 C 
ATOM     29  O   UNL     1       8.601   6.516  19.127  0.00  0.00    +0.000 OA
ENDBRANCH   1  29
TORSDOF 5
ENDMDL
MODEL 7
REMARK VINA RESULT:      -7.0      1.228      1.442
REMARK  Name = 
REMARK  6 active torsions:
REMARK  status: ('A' for Active; 'I' for Inactive)
REMARK    1  A    between atoms: C_1  and  O_2
REMARK    2  A    between atoms: O_2  and  C_3
REMARK    3  A    between atoms: C_5  and  C_6
REMARK    4  A    between atoms: C_8  and  C_9
REMARK    5  A    between atoms: N_14  and  S_15
REMARK    6  A    between atoms: S_15  and  C_18
REMARK                            x       y       z     vdW  Elec       q    Type
REMARK                         _______ _______ _______ _____ _____    ______ ____
ROOT
ATOM      1  C   UNL     1       3.502   2.639  20.128  0.00  0.00    +0.000 C 
ATOM      2  C   UNL     1       4.364   2.714  18.882  0.00  0.00    +0.000 C 
ATOM      3  C   UNL     1       4.974   4.112  19.008  0.00  0.00    +0.000 C 
ATOM      4  N   UNL     1       3.800   4.945  19.396  0.00  0.00    +0.000 NA
ATOM      5  C   UNL     1       2.943   4.069  20.263  0.00  0.00    +0.000 C 
ENDROOT
BRANCH   3   6
ATOM      6  C   UNL     1       5.772   4.488  17.815  0.00  0.00    +0.000 A 
ATOM      7  N   UNL     1       5.600   4.078  16.576  0.00  0.00    +0.000 NA
ATOM      8  C   UNL     1       6.532   4.782  15.865  0.00  0.00    +0.000 A 
ATOM      9  N   UNL     1       7.359   5.520  16.615  0.00  0.00    +0.000 NA
ATOM     10  N   UNL     1       6.854   5.329  17.848  0.00  0.00    +0.000 N 
ATOM     11  H   UNL     1       7.196   5.889  18.622  0.00  0.00    +0.000 HD
BRANCH   8  12
ATOM     12  C   UNL     1       6.454   4.832  14.348  0.00  0.00    +0.000 C 
ATOM     13  C   UNL     1       5.238   4.350  13.598  0.00  0.00    +0.000 C 
ATOM     14  C   UNL     1       6.462   3.501  13.613  0.00  0.00    +0.000 C 
ENDBRANCH   8  12
ENDBRANCH   3   6
BRANCH   4  15
ATOM     15  S   UNL     1       2.994   6.027  18.367  0.00  0.00    +0.000 S 
ATOM     16  O   UNL     1       4.013   6.763  17.649  0.00  0.00    +0.000 OA
ATOM     17  O   UNL     1       2.036   5.252  17.606  0.00  0.00    +0.000 OA
BRANCH  15  18
ATOM     18  C   UNL     1       2.089   7.149  19.441  0.00  0.00    +0.000 A 
ATOM     19  C   UNL     1       1.568   6.571  20.608  0.00  0.00    +0.000 A 
ATOM     20  C   UNL     1       1.011   7.347  21.615  0.00  0.00    +0.000 A 
ATOM     21  C   UNL     1       0.860   8.708  21.413  0.00  0.00    +0.000 A 
ATOM     22  C   UNL     1       1.196   9.287  20.184  0.00  0.00    +0.000 A 
ATOM     23  C   UNL     1       0.855  10.633  19.980  0.00  0.00    +0.000 A 
ATOM     24  C   UNL     1       1.091  11.251  18.758  0.00  0.00    +0.000 A 
ATOM     25  C   UNL     1       1.718  10.545  17.746  0.00  0.00    +0.000 A 
ATOM     26  C   UNL     1       2.101   9.214  17.949  0.00  0.00    +0.000 A 
ATOM     27  C   UNL     1       1.831   8.524  19.161  0.00  0.00    +0.000 A 
ENDBRANCH  15  18
ENDBRANCH   4  15
BRANCH   1  29
ATOM     28  C   UNL     1       5.157   1.106  20.926  0.00  0.00    +0.000 C 
ATOM     29  O   UNL     1       4.373   2.259  21.197  0.00  0.00    +0.000 OA
ENDBRANCH   1  29
TORSDOF 5
ENDMDL
MODEL 8
REMARK VINA RESULT:      -7.0      2.550      5.527
REMARK  Name = 
REMARK  6 active torsions:
REMARK  status: ('A' for Active; 'I' for Inactive)
REMARK    1  A    between atoms: C_1  and  O_2
REMARK    2  A    between atoms: O_2  and  C_3
REMARK    3  A    between atoms: C_5  and  C_6
REMARK    4  A    between atoms: C_8  and  C_9
REMARK    5  A    between atoms: N_14  and  S_15
REMARK    6  A    between atoms: S_15  and  C_18
REMARK                            x       y       z     vdW  Elec       q    Type
REMARK                         _______ _______ _______ _____ _____    ______ ____
ROOT
ATOM      1  C   UNL     1       6.537   4.240  14.050  0.00  0.00    +0.000 C 
ATOM      2  C   UNL     1       5.955   3.276  15.067  0.00  0.00    +0.000 C 
ATOM      3  C   UNL     1       4.762   4.070  15.604  0.00  0.00    +0.000 C 
ATOM      4  N   UNL     1       5.343   5.427  15.814  0.00  0.00    +0.000 NA
ATOM      5  C   UNL     1       6.350   5.617  14.715  0.00  0.00    +0.000 C 
ENDROOT
BRANCH   3   6
ATOM      6  C   UNL     1       4.090   3.383  16.734  0.00  0.00    +0.000 A 
ATOM      7  N   UNL     1       2.814   3.430  17.054  0.00  0.00    +0.000 NA
ATOM      8  C   UNL     1       2.708   2.563  18.106  0.00  0.00    +0.000 A 
ATOM      9  N   UNL     1       3.874   2.071  18.538  0.00  0.00    +0.000 NA
ATOM     10  N   UNL     1       4.739   2.594  17.648  0.00  0.00    +0.000 N 
ATOM     11  H   UNL     1       5.701   2.275  17.638  0.00  0.00    +0.000 HD
BRANCH   8  12
ATOM     12  C   UNL     1       1.339   2.092  18.568  0.00  0.00    +0.000 C 
ATOM     13  C   UNL     1       0.270   3.060  19.009  0.00  0.00    +0.000 C 
ATOM     14  C   UNL     1       1.006   2.276  20.040  0.00  0.00    +0.000 C 
ENDBRANCH   8  12
ENDBRANCH   3   6
BRANCH   4  15
ATOM     15  S   UNL     1       5.724   6.099  17.325  0.00  0.00    +0.000 S 
ATOM     16  O   UNL     1       6.127   5.005  18.182  0.00  0.00    +0.000 OA
ATOM     17  O   UNL     1       6.667   7.172  17.083  0.00  0.00    +0.000 OA
BRANCH  15  18
ATOM     18  C   UNL     1       4.197   6.817  17.945  0.00  0.00    +0.000 A 
ATOM     19  C   UNL     1       3.807   8.017  17.333  0.00  0.00    +0.000 A 
ATOM     20  C   UNL     1       2.564   8.584  17.576  0.00  0.00    +0.000 A 
ATOM     21  C   UNL     1       1.739   8.018  18.532  0.00  0.00    +0.000 A 
ATOM     22  C   UNL     1       2.176   6.929  19.296  0.00  0.00    +0.000 A 
ATOM     23  C   UNL     1       1.369   6.514  20.366  0.00  0.00    +0.000 A 
ATOM     24  C   UNL     1       1.776   5.490  21.212  0.00  0.00    +0.000 A 
ATOM     25  C   UNL     1       2.971   4.836  20.964  0.00  0.00    +0.000 A 
ATOM     26  C   UNL     1       3.768   5.212  19.877  0.00  0.00    +0.000 A 
ATOM     27  C   UNL     1       3.420   6.289  19.019  0.00  0.00    +0.000 A 
ENDBRANCH  15  18
ENDBRANCH   4  15
BRANCH   1  29
ATOM     28  C   UNL     1       6.198   2.987  12.040  0.00  0.00    +0.000 C 
ATOM     29  O   UNL     1       5.772   4.070  12.854  0.00  0.00    +0.000 OA
ENDBRANCH   1  29
TORSDOF 5
ENDMDL
MODEL 9
REMARK VINA RESULT:      -7.0      6.185      9.862
REMARK  Name = 
REMARK  6 active torsions:
REMARK  status: ('A' for Active; 'I' for Inactive)
REMARK    1  A    between atoms: C_1  and  O_2
REMARK    2  A    between atoms: O_2  and  C_3
REMARK    3  A    between atoms: C_5  and  C_6
REMARK    4  A    between atoms: C_8  and  C_9
REMARK    5  A    between atoms: N_14  and  S_15
REMARK    6  A    between atoms: S_15  and  C_18
REMARK                            x       y       z     vdW  Elec       q    Type
REMARK                         _______ _______ _______ _____ _____    ______ ____
ROOT
ATOM      1  C   UNL     1      -2.685  10.038  17.685  0.00  0.00    +0.000 C 
ATOM      2  C   UNL     1      -3.409  10.531  18.923  0.00  0.00    +0.000 C 
ATOM      3  C   UNL     1      -3.258  12.048  18.790  0.00  0.00    +0.000 C 
ATOM      4  N   UNL     1      -1.824  12.200  18.411  0.00  0.00    +0.000 NA
ATOM      5  C   UNL     1      -1.498  11.011  17.553  0.00  0.00    +0.000 C 
ENDROOT
BRANCH   3   6
ATOM      6  C   UNL     1      -3.779  12.772  19.975  0.00  0.00    +0.000 A 
ATOM      7  N   UNL     1      -3.825  12.342  21.219  0.00  0.00    +0.000 NA
ATOM      8  C   UNL     1      -4.306  13.414  21.919  0.00  0.00    +0.000 A 
ATOM      9  N   UNL     1      -4.678  14.450  21.159  0.00  0.00    +0.000 NA
ATOM     10  N   UNL     1      -4.325  14.028  19.929  0.00  0.00    +0.000 N 
ATOM     11  H   UNL     1      -4.357  14.675  19.149  0.00  0.00    +0.000 HD
BRANCH   8  12
ATOM     12  C   UNL     1      -4.214  13.436  23.436  0.00  0.00    +0.000 C 
ATOM     13  C   UNL     1      -3.973  12.181  24.236  0.00  0.00    +0.000 C 
ATOM     14  C   UNL     1      -5.343  12.767  24.204  0.00  0.00    +0.000 C 
ENDBRANCH   8  12
ENDBRANCH   3   6
BRANCH   4  15
ATOM     15  S   UNL     1      -0.599  12.756  19.445  0.00  0.00    +0.000 S 
ATOM     16  O   UNL     1       0.591  12.919  18.637  0.00  0.00    +0.000 OA
ATOM     17  O   UNL     1      -1.126  13.913  20.139  0.00  0.00    +0.000 OA
BRANCH  15  18
ATOM     18  C   UNL     1      -0.335  11.447  20.648  0.00  0.00    +0.000 A 
ATOM     19  C   UNL     1      -0.809  11.716  21.940  0.00  0.00    +0.000 A 
ATOM     20  C   UNL     1      -0.842  10.733  22.919  0.00  0.00    +0.000 A 
ATOM     21  C   UNL     1      -0.287   9.494  22.651  0.00  0.00    +0.000 A 
ATOM     22  C   UNL     1       0.364   9.253  21.435  0.00  0.00    +0.000 A 
ATOM     23  C   UNL     1       1.058   8.042  21.293  0.00  0.00    +0.000 A 
ATOM     24  C   UNL     1       1.788   7.769  20.143  0.00  0.00    +0.000 A 
ATOM     25  C   UNL     1       1.789   8.682  19.103  0.00  0.00    +0.000 A 
ATOM     26  C   UNL     1       1.068   9.877  19.214  0.00  0.00    +0.000 A 
ATOM     27  C   UNL     1       0.352  10.223  20.390  0.00  0.00    +0.000 A 
ENDBRANCH  15  18
ENDBRANCH   4  15
BRANCH   1  29
ATOM     28  C   UNL     1      -3.031  10.325  15.335  0.00  0.00    +0.000 C 
ATOM     29  O   UNL     1      -3.624  10.125  16.610  0.00  0.00    +0.000 OA
ENDBRANCH   1  29
TORSDOF 5
ENDMDL
