MODEL 1
REMARK VINA RESULT:      -9.5      0.000      0.000
REMARK  Name = 
REMARK  5 active torsions:
REMARK  status: ('A' for Active; 'I' for Inactive)
REMARK    1  A    between atoms: C_1  and  C_2
REMARK    2  A    between atoms: C_5  and  N_6
REMARK    3  A    between atoms: C_7  and  C_9
REMARK    4  A    between atoms: C_17  and  S_18
REMARK    5  A    between atoms: S_18  and  N_21
REMARK                            x       y       z     vdW  Elec       q    Type
REMARK                         _______ _______ _______ _____ _____    ______ ____
ROOT
ATOM      1  C   UNL     1       2.476   5.422  20.090  0.00  0.00    +0.000 A 
ATOM      2  C   UNL     1       1.922   4.679  21.065  0.00  0.00    +0.000 A 
ATOM      3  C   UNL     1       2.101   3.217  21.131  0.00  0.00    +0.000 A 
ATOM      4  O   UNL     1       1.637   2.576  22.073  0.00  0.00    +0.000 OA
ATOM      5  N   UNL     1       2.762   2.626  20.096  0.00  0.00    +0.000 N 
ATOM      6  C   UNL     1       3.338   3.338  19.044  0.00  0.00    +0.000 A 
ATOM      7  C   UNL     1       3.989   2.629  18.032  0.00  0.00    +0.000 A 
ATOM      8  C   UNL     1       4.597   3.316  16.979  0.00  0.00    +0.000 A 
ATOM      9  C   UNL     1       4.577   4.712  16.966  0.00  0.00    +0.000 A 
ATOM     10  C   UNL     1       3.945   5.424  17.991  0.00  0.00    +0.000 A 
ATOM     11  C   UNL     1       3.270   4.740  19.027  0.00  0.00    +0.000 A 
ATOM     12  H   UNL     1       2.842   1.618  20.148  0.00  0.00    +0.000 HD
ENDROOT
BRANCH   1  14
ATOM     13  N   UNL     1       1.386   7.422  21.022  0.00  0.00    +0.000 N 
ATOM     14  C   UNL     1       2.104   6.879  19.974  0.00  0.00    +0.000 C 
ATOM     15  O   UNL     1       2.431   7.487  18.958  0.00  0.00    +0.000 OA
ATOM     16  H   UNL     1       1.116   6.832  21.794  0.00  0.00    +0.000 HD
BRANCH  13  21
ATOM     17  C   UNL     1      -0.403  12.839  21.569  0.00  0.00    +0.000 C 
ATOM     18  C   UNL     1       0.057  11.422  21.412  0.00  0.00    +0.000 A 
ATOM     19  C   UNL     1       0.631  10.999  20.215  0.00  0.00    +0.000 A 
ATOM     20  C   UNL     1       1.071   9.685  20.067  0.00  0.00    +0.000 A 
ATOM     21  C   UNL     1       0.947   8.765  21.109  0.00  0.00    +0.000 A 
ATOM     22  C   UNL     1       0.374   9.188  22.313  0.00  0.00    +0.000 A 
ATOM     23  C   UNL     1      -0.073  10.506  22.462  0.00  0.00    +0.000 A 
ENDBRANCH  13  21
ENDBRANCH   1  14
BRANCH   9  24
ATOM     24  S   UNL     1       5.451   5.594  15.684  0.00  0.00    +0.000 S 
ATOM     25  O   UNL     1       5.321   4.807  14.480  0.00  0.00    +0.000 OA
ATOM     26  O   UNL     1       4.995   6.967  15.721  0.00  0.00    +0.000 OA
BRANCH  24  27
ATOM     27  N   UNL     1       7.090   5.588  16.146  0.00  0.00    +0.000 NA
ATOM     28  C   UNL     1       7.533   4.602  17.178  0.00  0.00    +0.000 C 
ATOM     29  C   UNL     1       7.212   5.066  18.605  0.00  0.00    +0.000 C 
ATOM     30  O   UNL     1       7.738   6.373  18.880  0.00  0.00    +0.000 OA
ATOM     31  C   UNL     1       7.262   7.342  17.934  0.00  0.00    +0.000 C 
ATOM     32  C   UNL     1       7.638   6.943  16.502  0.00  0.00    +0.000 C 
ENDBRANCH  24  27
ENDBRANCH   9  24
TORSDOF 4
ENDMDL
MODEL 2
REMARK VINA RESULT:      -8.9      8.203     11.060
REMARK  Name = 
REMARK  5 active torsions:
REMARK  status: ('A' for Active; 'I' for Inactive)
REMARK    1  A    between atoms: C_1  and  C_2
REMARK    2  A    between atoms: C_5  and  N_6
REMARK    3  A    between atoms: C_7  and  C_9
REMARK    4  A    between atoms: C_17  and  S_18
REMARK    5  A    between atoms: S_18  and  N_21
REMARK                            x       y       z     vdW  Elec       q    Type
REMARK                         _______ _______ _______ _____ _____    ______ ____
ROOT
ATOM      1  C   UNL     1      -2.435  11.495  17.418  0.00  0.00    +0.000 A 
ATOM      2  C   UNL     1      -2.367  10.977  16.179  0.00  0.00    +0.000 A 
ATOM      3  C   UNL     1      -3.577  10.607  15.419  0.00  0.00    +0.000 A 
ATOM      4  O   UNL     1      -3.483  10.199  14.263  0.00  0.00    +0.000 OA
ATOM      5  N   UNL     1      -4.771  10.707  16.068  0.00  0.00    +0.000 N 
ATOM      6  C   UNL     1      -4.904  11.213  17.362  0.00  0.00    +0.000 A 
ATOM      7  C   UNL     1      -6.178  11.264  17.933  0.00  0.00    +0.000 A 
ATOM      8  C   UNL     1      -6.346  11.790  19.215  0.00  0.00    +0.000 A 
ATOM      9  C   UNL     1      -5.240  12.291  19.905  0.00  0.00    +0.000 A 
ATOM     10  C   UNL     1      -3.968  12.259  19.325  0.00  0.00    +0.000 A 
ATOM     11  C   UNL     1      -3.773  11.671  18.054  0.00  0.00    +0.000 A 
ATOM     12  H   UNL     1      -5.582  10.415  15.537  0.00  0.00    +0.000 HD
ENDROOT
BRANCH   1  14
ATOM     13  N   UNL     1      -0.567  12.922  18.148  0.00  0.00    +0.000 N 
ATOM     14  C   UNL     1      -1.164  11.678  18.210  0.00  0.00    +0.000 C 
ATOM     15  O   UNL     1      -0.723  10.718  18.836  0.00  0.00    +0.000 OA
ATOM     16  H   UNL     1      -0.975  13.637  17.564  0.00  0.00    +0.000 HD
BRANCH  13  21
ATOM     17  C   UNL     1       4.150  14.430  21.032  0.00  0.00    +0.000 C 
ATOM     18  C   UNL     1       2.922  14.045  20.266  0.00  0.00    +0.000 A 
ATOM     19  C   UNL     1       3.017  13.673  18.926  0.00  0.00    +0.000 A 
ATOM     20  C   UNL     1       1.879  13.304  18.212  0.00  0.00    +0.000 A 
ATOM     21  C   UNL     1       0.621  13.298  18.818  0.00  0.00    +0.000 A 
ATOM     22  C   UNL     1       0.523  13.668  20.164  0.00  0.00    +0.000 A 
ATOM     23  C   UNL     1       1.664  14.045  20.881  0.00  0.00    +0.000 A 
ENDBRANCH  13  21
ENDBRANCH   1  14
BRANCH   9  24
ATOM     24  S   UNL     1      -5.469  13.066  21.495  0.00  0.00    +0.000 S 
ATOM     25  O   UNL     1      -6.079  14.351  21.243  0.00  0.00    +0.000 OA
ATOM     26  O   UNL     1      -6.116  12.097  22.355  0.00  0.00    +0.000 OA
BRANCH  24  27
ATOM     27  N   UNL     1      -3.906  13.335  22.114  0.00  0.00    +0.000 NA
ATOM     28  C   UNL     1      -3.382  12.396  23.152  0.00  0.00    +0.000 C 
ATOM     29  C   UNL     1      -3.911  12.724  24.556  0.00  0.00    +0.000 C 
ATOM     30  O   UNL     1      -3.663  14.089  24.922  0.00  0.00    +0.000 OA
ATOM     31  C   UNL     1      -4.224  15.000  23.966  0.00  0.00    +0.000 C 
ATOM     32  C   UNL     1      -3.653  14.748  22.565  0.00  0.00    +0.000 C 
ENDBRANCH  24  27
ENDBRANCH   9  24
TORSDOF 4
ENDMDL
MODEL 3
REMARK VINA RESULT:      -8.9      4.920      9.003
REMARK  Name = 
REMARK  5 active torsions:
REMARK  status: ('A' for Active; 'I' for Inactive)
REMARK    1  A    between atoms: C_1  and  C_2
REMARK    2  A    between atoms: C_5  and  N_6
REMARK    3  A    between atoms: C_7  and  C_9
REMARK    4  A    between atoms: C_17  and  S_18
REMARK    5  A    between atoms: S_18  and  N_21
REMARK                            x       y       z     vdW  Elec       q    Type
REMARK                         _______ _______ _______ _____ _____    ______ ____
ROOT
ATOM      1  C   UNL     1       0.098  10.427  18.454  0.00  0.00    +0.000 A 
ATOM      2  C   UNL     1      -1.014  10.040  17.804  0.00  0.00    +0.000 A 
ATOM      3  C   UNL     1      -2.075  10.995  17.433  0.00  0.00    +0.000 A 
ATOM      4  O   UNL     1      -3.048  10.621  16.780  0.00  0.00    +0.000 OA
ATOM      5  N   UNL     1      -1.937  12.277  17.876  0.00  0.00    +0.000 N 
ATOM      6  C   UNL     1      -0.820  12.734  18.575  0.00  0.00    +0.000 A 
ATOM      7  C   UNL     1      -0.786  14.068  18.986  0.00  0.00    +0.000 A 
ATOM      8  C   UNL     1       0.330  14.561  19.665  0.00  0.00    +0.000 A 
ATOM      9  C   UNL     1       1.420  13.720  19.899  0.00  0.00    +0.000 A 
ATOM     10  C   UNL     1       1.395  12.389  19.469  0.00  0.00    +0.000 A 
ATOM     11  C   UNL     1       0.247  11.860  18.838  0.00  0.00    +0.000 A 
ATOM     12  H   UNL     1      -2.695  12.905  17.637  0.00  0.00    +0.000 HD
ENDROOT
BRANCH   1  14
ATOM     13  N   UNL     1       1.663   8.578  18.019  0.00  0.00    +0.000 N 
ATOM     14  C   UNL     1       1.053   9.378  18.966  0.00  0.00    +0.000 C 
ATOM     15  O   UNL     1       1.214   9.276  20.179  0.00  0.00    +0.000 OA
ATOM     16  H   UNL     1       1.429   8.699  17.045  0.00  0.00    +0.000 HD
BRANCH  13  21
ATOM     17  C   UNL     1       5.550   4.483  19.000  0.00  0.00    +0.000 C 
ATOM     18  C   UNL     1       4.523   5.542  18.745  0.00  0.00    +0.000 A 
ATOM     19  C   UNL     1       3.402   5.646  19.567  0.00  0.00    +0.000 A 
ATOM     20  C   UNL     1       2.448   6.636  19.341  0.00  0.00    +0.000 A 
ATOM     21  C   UNL     1       2.591   7.545  18.290  0.00  0.00    +0.000 A 
ATOM     22  C   UNL     1       3.717   7.444  17.465  0.00  0.00    +0.000 A 
ATOM     23  C   UNL     1       4.673   6.447  17.688  0.00  0.00    +0.000 A 
ENDBRANCH  13  21
ENDBRANCH   1  14
BRANCH   9  24
ATOM     24  S   UNL     1       2.892  14.376  20.665  0.00  0.00    +0.000 S 
ATOM     25  O   UNL     1       2.561  15.707  21.120  0.00  0.00    +0.000 OA
ATOM     26  O   UNL     1       3.374  13.376  21.594  0.00  0.00    +0.000 OA
BRANCH  24  27
ATOM     27  N   UNL     1       4.044  14.516  19.419  0.00  0.00    +0.000 NA
ATOM     28  C   UNL     1       5.296  15.286  19.693  0.00  0.00    +0.000 C 
ATOM     29  C   UNL     1       5.087  16.802  19.565  0.00  0.00    +0.000 C 
ATOM     30  O   UNL     1       4.524  17.165  18.297  0.00  0.00    +0.000 OA
ATOM     31  C   UNL     1       3.285  16.483  18.056  0.00  0.00    +0.000 C 
ATOM     32  C   UNL     1       3.478  14.962  18.099  0.00  0.00    +0.000 C 
ENDBRANCH  24  27
ENDBRANCH   9  24
TORSDOF 4
ENDMDL
MODEL 4
REMARK VINA RESULT:      -8.8      3.022      7.936
REMARK  Name = 
REMARK  5 active torsions:
REMARK  status: ('A' for Active; 'I' for Inactive)
REMARK    1  A    between atoms: C_1  and  C_2
REMARK    2  A    between atoms: C_5  and  N_6
REMARK    3  A    between atoms: C_7  and  C_9
REMARK    4  A    between atoms: C_17  and  S_18
REMARK    5  A    between atoms: S_18  and  N_21
REMARK                            x       y       z     vdW  Elec       q    Type
REMARK                         _______ _______ _______ _____ _____    ______ ____
ROOT
ATOM      1  C   UNL     1       3.287   5.327  18.631  0.00  0.00    +0.000 A 
ATOM      2  C   UNL     1       3.452   4.177  19.308  0.00  0.00    +0.000 A 
ATOM      3  C   UNL     1       2.841   3.955  20.632  0.00  0.00    +0.000 A 
ATOM      4  O   UNL     1       2.955   2.867  21.195  0.00  0.00    +0.000 OA
ATOM      5  N   UNL     1       2.191   5.010  21.200  0.00  0.00    +0.000 N 
ATOM      6  C   UNL     1       2.008   6.236  20.560  0.00  0.00    +0.000 A 
ATOM      7  C   UNL     1       1.330   7.251  21.238  0.00  0.00    +0.000 A 
ATOM      8  C   UNL     1       1.109   8.480  20.613  0.00  0.00    +0.000 A 
ATOM      9  C   UNL     1       1.541   8.672  19.300  0.00  0.00    +0.000 A 
ATOM     10  C   UNL     1       2.202   7.648  18.612  0.00  0.00    +0.000 A 
ATOM     11  C   UNL     1       2.489   6.423  19.254  0.00  0.00    +0.000 A 
ATOM     12  H   UNL     1       1.811   4.842  22.123  0.00  0.00    +0.000 HD
ENDROOT
BRANCH   1  14
ATOM     13  N   UNL     1       4.615   4.444  16.757  0.00  0.00    +0.000 N 
ATOM     14  C   UNL     1       4.085   5.561  17.373  0.00  0.00    +0.000 C 
ATOM     15  O   UNL     1       4.239   6.715  16.984  0.00  0.00    +0.000 OA
ATOM     16  H   UNL     1       4.480   3.537  17.178  0.00  0.00    +0.000 HD
BRANCH  13  21
ATOM     17  C   UNL     1       7.574   4.411  11.849  0.00  0.00    +0.000 C 
ATOM     18  C   UNL     1       6.813   4.414  13.139  0.00  0.00    +0.000 A 
ATOM     19  C   UNL     1       7.373   4.981  14.283  0.00  0.00    +0.000 A 
ATOM     20  C   UNL     1       6.666   4.997  15.484  0.00  0.00    +0.000 A 
ATOM     21  C   UNL     1       5.385   4.447  15.570  0.00  0.00    +0.000 A 
ATOM     22  C   UNL     1       4.820   3.879  14.423  0.00  0.00    +0.000 A 
ATOM     23  C   UNL     1       5.531   3.858  13.217  0.00  0.00    +0.000 A 
ENDBRANCH  13  21
ENDBRANCH   1  14
BRANCH   9  24
ATOM     24  S   UNL     1       1.160  10.200  18.460  0.00  0.00    +0.000 S 
ATOM     25  O   UNL     1       2.326  10.542  17.680  0.00  0.00    +0.000 OA
ATOM     26  O   UNL     1      -0.130  10.030  17.825  0.00  0.00    +0.000 OA
BRANCH  24  27
ATOM     27  N   UNL     1       0.978  11.372  19.681  0.00  0.00    +0.000 NA
ATOM     28  C   UNL     1      -0.404  11.810  20.046  0.00  0.00    +0.000 C 
ATOM     29  C   UNL     1      -0.963  12.852  19.067  0.00  0.00    +0.000 C 
ATOM     30  O   UNL     1      -0.087  13.979  18.919  0.00  0.00    +0.000 OA
ATOM     31  C   UNL     1       1.225  13.575  18.502  0.00  0.00    +0.000 C 
ATOM     32  C   UNL     1       1.842  12.591  19.503  0.00  0.00    +0.000 C 
ENDBRANCH  24  27
ENDBRANCH   9  24
TORSDOF 4
ENDMDL
MODEL 5
REMARK VINA RESULT:      -8.5      8.402     11.692
REMARK  Name = 
REMARK  5 active torsions:
REMARK  status: ('A' for Active; 'I' for Inactive)
REMARK    1  A    between atoms: C_1  and  C_2
REMARK    2  A    between atoms: C_5  and  N_6
REMARK    3  A    between atoms: C_7  and  C_9
REMARK    4  A    between atoms: C_17  and  S_18
REMARK    5  A    between atoms: S_18  and  N_21
REMARK                            x       y       z     vdW  Elec       q    Type
REMARK                         _______ _______ _______ _____ _____    ______ ____
ROOT
ATOM      1  C   UNL     1      -2.661  11.630  17.762  0.00  0.00    +0.000 A 
ATOM      2  C   UNL     1      -2.526  11.177  16.503  0.00  0.00    +0.000 A 
ATOM      3  C   UNL     1      -3.691  10.814  15.674  0.00  0.00    +0.000 A 
ATOM      4  O   UNL     1      -3.538  10.467  14.504  0.00  0.00    +0.000 OA
ATOM      5  N   UNL     1      -4.914  10.847  16.275  0.00  0.00    +0.000 N 
ATOM      6  C   UNL     1      -5.116  11.283  17.585  0.00  0.00    +0.000 A 
ATOM      7  C   UNL     1      -6.413  11.271  18.103  0.00  0.00    +0.000 A 
ATOM      8  C   UNL     1      -6.651  11.726  19.401  0.00  0.00    +0.000 A 
ATOM      9  C   UNL     1      -5.589  12.221  20.161  0.00  0.00    +0.000 A 
ATOM     10  C   UNL     1      -4.293  12.254  19.636  0.00  0.00    +0.000 A 
ATOM     11  C   UNL     1      -4.029  11.737  18.348  0.00  0.00    +0.000 A 
ATOM     12  H   UNL     1      -5.693  10.561  15.695  0.00  0.00    +0.000 HD
ENDROOT
BRANCH   1  14
ATOM     13  N   UNL     1      -0.786  13.026  18.532  0.00  0.00    +0.000 N 
ATOM     14  C   UNL     1      -1.430  11.807  18.615  0.00  0.00    +0.000 C 
ATOM     15  O   UNL     1      -1.058  10.863  19.308  0.00  0.00    +0.000 OA
ATOM     16  H   UNL     1      -1.135  13.726  17.895  0.00  0.00    +0.000 HD
BRANCH  13  21
ATOM     17  C   UNL     1       4.013  14.534  21.278  0.00  0.00    +0.000 C 
ATOM     18  C   UNL     1       2.755  14.130  20.572  0.00  0.00    +0.000 A 
ATOM     19  C   UNL     1       1.537  14.136  21.250  0.00  0.00    +0.000 A 
ATOM     20  C   UNL     1       0.362  13.771  20.596  0.00  0.00    +0.000 A 
ATOM     21  C   UNL     1       0.376  13.394  19.252  0.00  0.00    +0.000 A 
ATOM     22  C   UNL     1       1.596  13.390  18.569  0.00  0.00    +0.000 A 
ATOM     23  C   UNL     1       2.779  13.751  19.226  0.00  0.00    +0.000 A 
ENDBRANCH  13  21
ENDBRANCH   1  14
BRANCH   9  24
ATOM     24  S   UNL     1      -5.907  12.908  21.778  0.00  0.00    +0.000 S 
ATOM     25  O   UNL     1      -7.333  12.818  21.990  0.00  0.00    +0.000 OA
ATOM     26  O   UNL     1      -4.982  12.282  22.699  0.00  0.00    +0.000 OA
BRANCH  24  27
ATOM     27  N   UNL     1      -5.490  14.556  21.675  0.00  0.00    +0.000 NA
ATOM     28  C   UNL     1      -4.177  14.993  22.240  0.00  0.00    +0.000 C 
ATOM     29  C   UNL     1      -4.230  15.179  23.763  0.00  0.00    +0.000 C 
ATOM     30  O   UNL     1      -5.284  16.065  24.163  0.00  0.00    +0.000 OA
ATOM     31  C   UNL     1      -6.560  15.616  23.685  0.00  0.00    +0.000 C 
ATOM     32  C   UNL     1      -6.562  15.496  22.155  0.00  0.00    +0.000 C 
ENDBRANCH  24  27
ENDBRANCH   9  24
TORSDOF 4
ENDMDL
MODEL 6
REMARK VINA RESULT:      -8.5      1.208      1.497
REMARK  Name = 
REMARK  5 active torsions:
REMARK  status: ('A' for Active; 'I' for Inactive)
REMARK    1  A    between atoms: C_1  and  C_2
REMARK    2  A    between atoms: C_5  and  N_6
REMARK    3  A    between atoms: C_7  and  C_9
REMARK    4  A    between atoms: C_17  and  S_18
REMARK    5  A    between atoms: S_18  and  N_21
REMARK                            x       y       z     vdW  Elec       q    Type
REMARK                         _______ _______ _______ _____ _____    ______ ____
ROOT
ATOM      1  C   UNL     1       2.366   5.325  20.268  0.00  0.00    +0.000 A 
ATOM      2  C   UNL     1       1.753   4.520  21.155  0.00  0.00    +0.000 A 
ATOM      3  C   UNL     1       1.845   3.050  21.070  0.00  0.00    +0.000 A 
ATOM      4  O   UNL     1       1.329   2.344  21.935  0.00  0.00    +0.000 OA
ATOM      5  N   UNL     1       2.486   2.531  19.985  0.00  0.00    +0.000 N 
ATOM      6  C   UNL     1       3.120   3.313  19.018  0.00  0.00    +0.000 A 
ATOM      7  C   UNL     1       3.743   2.674  17.944  0.00  0.00    +0.000 A 
ATOM      8  C   UNL     1       4.408   3.429  16.975  0.00  0.00    +0.000 A 
ATOM      9  C   UNL     1       4.470   4.817  17.107  0.00  0.00    +0.000 A 
ATOM     10  C   UNL     1       3.865   5.456  18.194  0.00  0.00    +0.000 A 
ATOM     11  C   UNL     1       3.134   4.711  19.147  0.00  0.00    +0.000 A 
ATOM     12  H   UNL     1       2.506   1.520  19.933  0.00  0.00    +0.000 HD
ENDROOT
BRANCH   1  14
ATOM     13  N   UNL     1       1.983   7.446  19.081  0.00  0.00    +0.000 N 
ATOM     14  C   UNL     1       2.081   6.806  20.301  0.00  0.00    +0.000 C 
ATOM     15  O   UNL     1       1.980   7.358  21.392  0.00  0.00    +0.000 OA
ATOM     16  H   UNL     1       2.132   6.920  18.233  0.00  0.00    +0.000 HD
BRANCH  13  21
ATOM     17  C   UNL     1       0.811  13.025  18.495  0.00  0.00    +0.000 C 
ATOM     18  C   UNL     1       1.115  11.566  18.632  0.00  0.00    +0.000 A 
ATOM     19  C   UNL     1       2.068  10.967  17.810  0.00  0.00    +0.000 A 
ATOM     20  C   UNL     1       2.364   9.611  17.940  0.00  0.00    +0.000 A 
ATOM     21  C   UNL     1       1.716   8.823  18.894  0.00  0.00    +0.000 A 
ATOM     22  C   UNL     1       0.761   9.423  19.722  0.00  0.00    +0.000 A 
ATOM     23  C   UNL     1       0.458  10.783  19.588  0.00  0.00    +0.000 A 
ENDBRANCH  13  21
ENDBRANCH   1  14
BRANCH   9  24
ATOM     24  S   UNL     1       5.415   5.773  15.933  0.00  0.00    +0.000 S 
ATOM     25  O   UNL     1       5.214   5.155  14.643  0.00  0.00    +0.000 OA
ATOM     26  O   UNL     1       5.079   7.165  16.145  0.00  0.00    +0.000 OA
BRANCH  24  27
ATOM     27  N   UNL     1       7.048   5.569  16.369  0.00  0.00    +0.000 NA
ATOM     28  C   UNL     1       7.367   4.693  17.537  0.00  0.00    +0.000 C 
ATOM     29  C   UNL     1       7.178   5.417  18.878  0.00  0.00    +0.000 C 
ATOM     30  O   UNL     1       7.916   6.646  18.937  0.00  0.00    +0.000 OA
ATOM     31  C   UNL     1       7.566   7.524  17.857  0.00  0.00    +0.000 C 
ATOM     32  C   UNL     1       7.818   6.854  16.501  0.00  0.00    +0.000 C 
ENDBRANCH  24  27
ENDBRANCH   9  24
TORSDOF 4
ENDMDL
MODEL 7
REMARK VINA RESULT:      -8.5      4.974      9.268
REMARK  Name = 
REMARK  5 active torsions:
REMARK  status: ('A' for Active; 'I' for Inactive)
REMARK    1  A    between atoms: C_1  and  C_2
REMARK    2  A    between atoms: C_5  and  N_6
REMARK    3  A    between atoms: C_7  and  C_9
REMARK    4  A    between atoms: C_17  and  S_18
REMARK    5  A    between atoms: S_18  and  N_21
REMARK                            x       y       z     vdW  Elec       q    Type
REMARK                         _______ _______ _______ _____ _____    ______ ____
ROOT
ATOM      1  C   UNL     1       0.161  10.502  18.428  0.00  0.00    +0.000 A 
ATOM      2  C   UNL     1      -0.999  10.150  17.845  0.00  0.00    +0.000 A 
ATOM      3  C   UNL     1      -2.021  11.147  17.476  0.00  0.00    +0.000 A 
ATOM      4  O   UNL     1      -3.042  10.800  16.882  0.00  0.00    +0.000 OA
ATOM      5  N   UNL     1      -1.794  12.437  17.853  0.00  0.00    +0.000 N 
ATOM      6  C   UNL     1      -0.623  12.860  18.483  0.00  0.00    +0.000 A 
ATOM      7  C   UNL     1      -0.499  14.207  18.830  0.00  0.00    +0.000 A 
ATOM      8  C   UNL     1       0.672  14.665  19.438  0.00  0.00    +0.000 A 
ATOM      9  C   UNL     1       1.724  13.775  19.663  0.00  0.00    +0.000 A 
ATOM     10  C   UNL     1       1.608  12.430  19.296  0.00  0.00    +0.000 A 
ATOM     11  C   UNL     1       0.405  11.940  18.740  0.00  0.00    +0.000 A 
ATOM     12  H   UNL     1      -2.527  13.095  17.618  0.00  0.00    +0.000 HD
ENDROOT
BRANCH   1  14
ATOM     13  N   UNL     1       1.701   8.630  18.002  0.00  0.00    +0.000 N 
ATOM     14  C   UNL     1       1.080   9.424  18.947  0.00  0.00    +0.000 C 
ATOM     15  O   UNL     1       1.203   9.296  20.161  0.00  0.00    +0.000 OA
ATOM     16  H   UNL     1       1.499   8.775  17.025  0.00  0.00    +0.000 HD
BRANCH  13  21
ATOM     17  C   UNL     1       5.475   4.437  19.011  0.00  0.00    +0.000 C 
ATOM     18  C   UNL     1       4.477   5.521  18.748  0.00  0.00    +0.000 A 
ATOM     19  C   UNL     1       3.347   5.647  19.555  0.00  0.00    +0.000 A 
ATOM     20  C   UNL     1       2.421   6.662  19.322  0.00  0.00    +0.000 A 
ATOM     21  C   UNL     1       2.601   7.573  18.279  0.00  0.00    +0.000 A 
ATOM     22  C   UNL     1       3.735   7.450  17.470  0.00  0.00    +0.000 A 
ATOM     23  C   UNL     1       4.664   6.428  17.699  0.00  0.00    +0.000 A 
ENDBRANCH  13  21
ENDBRANCH   1  14
BRANCH   9  24
ATOM     24  S   UNL     1       3.263  14.380  20.335  0.00  0.00    +0.000 S 
ATOM     25  O   UNL     1       3.533  13.594  21.517  0.00  0.00    +0.000 OA
ATOM     26  O   UNL     1       4.215  14.428  19.246  0.00  0.00    +0.000 OA
BRANCH  24  27
ATOM     27  N   UNL     1       2.962  15.983  20.823  0.00  0.00    +0.000 NA
ATOM     28  C   UNL     1       3.486  17.094  19.972  0.00  0.00    +0.000 C 
ATOM     29  C   UNL     1       4.973  17.375  20.229  0.00  0.00    +0.000 C 
ATOM     30  O   UNL     1       5.245  17.616  21.617  0.00  0.00    +0.000 OA
ATOM     31  C   UNL     1       4.808  16.522  22.437  0.00  0.00    +0.000 C 
ATOM     32  C   UNL     1       3.306  16.267  22.259  0.00  0.00    +0.000 C 
ENDBRANCH  24  27
ENDBRANCH   9  24
TORSDOF 4
ENDMDL
MODEL 8
REMARK VINA RESULT:      -8.5      8.321     11.953
REMARK  Name = 
REMARK  5 active torsions:
REMARK  status: ('A' for Active; 'I' for Inactive)
REMARK    1  A    between atoms: C_1  and  C_2
REMARK    2  A    between atoms: C_5  and  N_6
REMARK    3  A    between atoms: C_7  and  C_9
REMARK    4  A    between atoms: C_17  and  S_18
REMARK    5  A    between atoms: S_18  and  N_21
REMARK                            x       y       z     vdW  Elec       q    Type
REMARK                         _______ _______ _______ _____ _____    ______ ____
ROOT
ATOM      1  C   UNL     1      -2.513  11.559  17.484  0.00  0.00    +0.000 A 
ATOM      2  C   UNL     1      -2.477  10.991  16.266  0.00  0.00    +0.000 A 
ATOM      3  C   UNL     1      -3.698  10.514  15.589  0.00  0.00    +0.000 A 
ATOM      4  O   UNL     1      -3.638  10.061  14.447  0.00  0.00    +0.000 OA
ATOM      5  N   UNL     1      -4.861  10.570  16.297  0.00  0.00    +0.000 N 
ATOM      6  C   UNL     1      -4.959  11.124  17.573  0.00  0.00    +0.000 A 
ATOM      7  C   UNL     1      -6.202  11.124  18.210  0.00  0.00    +0.000 A 
ATOM      8  C   UNL     1      -6.337  11.695  19.477  0.00  0.00    +0.000 A 
ATOM      9  C   UNL     1      -5.231  12.293  20.084  0.00  0.00    +0.000 A 
ATOM     10  C   UNL     1      -3.990  12.313  19.437  0.00  0.00    +0.000 A 
ATOM     11  C   UNL     1      -3.825  11.682  18.184  0.00  0.00    +0.000 A 
ATOM     12  H   UNL     1      -5.678  10.205  15.823  0.00  0.00    +0.000 HD
ENDROOT
BRANCH   1  14
ATOM     13  N   UNL     1      -0.645  13.089  17.959  0.00  0.00    +0.000 N 
ATOM     14  C   UNL     1      -1.217  11.854  18.197  0.00  0.00    +0.000 C 
ATOM     15  O   UNL     1      -0.736  10.985  18.918  0.00  0.00    +0.000 OA
ATOM     16  H   UNL     1      -1.086  13.721  17.308  0.00  0.00    +0.000 HD
BRANCH  13  21
ATOM     17  C   UNL     1       4.132  15.083  20.418  0.00  0.00    +0.000 C 
ATOM     18  C   UNL     1       2.891  14.564  19.761  0.00  0.00    +0.000 A 
ATOM     19  C   UNL     1       2.975  13.567  18.789  0.00  0.00    +0.000 A 
ATOM     20  C   UNL     1       1.822  13.073  18.183  0.00  0.00    +0.000 A 
ATOM     21  C   UNL     1       0.561  13.561  18.531  0.00  0.00    +0.000 A 
ATOM     22  C   UNL     1       0.474  14.558  19.508  0.00  0.00    +0.000 A 
ATOM     23  C   UNL     1       1.631  15.061  20.115  0.00  0.00    +0.000 A 
ENDBRANCH  13  21
ENDBRANCH   1  14
BRANCH   9  24
ATOM     24  S   UNL     1      -5.426  13.123  21.651  0.00  0.00    +0.000 S 
ATOM     25  O   UNL     1      -5.050  12.171  22.671  0.00  0.00    +0.000 OA
ATOM     26  O   UNL     1      -4.750  14.399  21.547  0.00  0.00    +0.000 OA
BRANCH  24  27
ATOM     27  N   UNL     1      -7.091  13.438  21.809  0.00  0.00    +0.000 NA
ATOM     28  C   UNL     1      -7.603  14.779  21.392  0.00  0.00    +0.000 C 
ATOM     29  C   UNL     1      -7.376  15.851  22.467  0.00  0.00    +0.000 C 
ATOM     30  O   UNL     1      -7.917  15.465  23.738  0.00  0.00    +0.000 OA
ATOM     31  C   UNL     1      -7.378  14.211  24.181  0.00  0.00    +0.000 C 
ATOM     32  C   UNL     1      -7.659  13.101  23.161  0.00  0.00    +0.000 C 
ENDBRANCH  24  27
ENDBRANCH   9  24
TORSDOF 4
ENDMDL
MODEL 9
REMARK VINA RESULT:      -8.4      4.780      9.116
REMARK  Name = 
REMARK  5 active torsions:
REMARK  status: ('A' for Active; 'I' for Inactive)
REMARK    1  A    between atoms: C_1  and  C_2
REMARK    2  A    between atoms: C_5  and  N_6
REMARK    3  A    between atoms: C_7  and  C_9
REMARK    4  A    between atoms: C_17  and  S_18
REMARK    5  A    between atoms: S_18  and  N_21
REMARK                            x       y       z     vdW  Elec       q    Type
REMARK                         _______ _______ _______ _____ _____    ______ ____
ROOT
ATOM      1  C   UNL     1       0.080  10.302  18.145  0.00  0.00    +0.000 A 
ATOM      2  C   UNL     1      -1.036   9.692  17.707  0.00  0.00    +0.000 A 
ATOM      3  C   UNL     1      -2.378  10.263  17.931  0.00  0.00    +0.000 A 
ATOM      4  O   UNL     1      -3.373   9.715  17.458  0.00  0.00    +0.000 OA
ATOM      5  N   UNL     1      -2.454  11.384  18.703  0.00  0.00    +0.000 N 
ATOM      6  C   UNL     1      -1.336  12.048  19.207  0.00  0.00    +0.000 A 
ATOM      7  C   UNL     1      -1.531  13.187  19.992  0.00  0.00    +0.000 A 
ATOM      8  C   UNL     1      -0.430  13.888  20.490  0.00  0.00    +0.000 A 
ATOM      9  C   UNL     1       0.860  13.461  20.169  0.00  0.00    +0.000 A 
ATOM     10  C   UNL     1       1.056  12.333  19.365  0.00  0.00    +0.000 A 
ATOM     11  C   UNL     1      -0.047  11.577  18.908  0.00  0.00    +0.000 A 
ATOM     12  H   UNL     1      -3.389  11.736  18.869  0.00  0.00    +0.000 HD
ENDROOT
BRANCH   1  14
ATOM     13  N   UNL     1       1.420   8.264  18.472  0.00  0.00    +0.000 N 
ATOM     14  C   UNL     1       1.399   9.579  18.048  0.00  0.00    +0.000 C 
ATOM     15  O   UNL     1       2.375  10.195  17.628  0.00  0.00    +0.000 OA
ATOM     16  H   UNL     1       0.580   7.854  18.852  0.00  0.00    +0.000 HD
BRANCH  13  21
ATOM     17  C   UNL     1       5.911   4.705  18.547  0.00  0.00    +0.000 C 
ATOM     18  C   UNL     1       4.747   5.647  18.525  0.00  0.00    +0.000 A 
ATOM     19  C   UNL     1       4.602   6.558  17.480  0.00  0.00    +0.000 A 
ATOM     20  C   UNL     1       3.515   7.430  17.448  0.00  0.00    +0.000 A 
ATOM     21  C   UNL     1       2.550   7.412  18.457  0.00  0.00    +0.000 A 
ATOM     22  C   UNL     1       2.693   6.497  19.506  0.00  0.00    +0.000 A 
ATOM     23  C   UNL     1       3.787   5.624  19.542  0.00  0.00    +0.000 A 
ENDBRANCH  13  21
ENDBRANCH   1  14
BRANCH   9  24
ATOM     24  S   UNL     1       2.265  14.419  20.708  0.00  0.00    +0.000 S 
ATOM     25  O   UNL     1       2.186  14.493  22.148  0.00  0.00    +0.000 OA
ATOM     26  O   UNL     1       3.435  13.865  20.060  0.00  0.00    +0.000 OA
BRANCH  24  27
ATOM     27  N   UNL     1       2.030  15.986  20.084  0.00  0.00    +0.000 NA
ATOM     28  C   UNL     1       1.959  16.157  18.601  0.00  0.00    +0.000 C 
ATOM     29  C   UNL     1       3.349  16.189  17.950  0.00  0.00    +0.000 C 
ATOM     30  O   UNL     1       4.201  17.179  18.544  0.00  0.00    +0.000 OA
ATOM     31  C   UNL     1       4.332  16.982  19.959  0.00  0.00    +0.000 C 
ATOM     32  C   UNL     1       2.962  17.023  20.649  0.00  0.00    +0.000 C 
ENDBRANCH  24  27
ENDBRANCH   9  24
TORSDOF 4
ENDMDL
