MODEL 1
REMARK VINA RESULT:      -8.7      0.000      0.000
REMARK  Name = 
REMARK  5 active torsions:
REMARK  status: ('A' for Active; 'I' for Inactive)
REMARK    1  A    between atoms: C_1  and  N_2
REMARK    2  A    between atoms: C_3  and  C_5
REMARK    3  A    between atoms: C_8  and  S_9
REMARK    4  A    between atoms: S_9  and  N_12
REMARK    5  A    between atoms: C_16  and  C_17
REMARK                            x       y       z     vdW  Elec       q    Type
REMARK                         _______ _______ _______ _____ _____    ______ ____
ROOT
ATOM      1  N   UNL     1       5.338   5.338  16.334  0.00  0.00    +0.000 N 
ATOM      2  C   UNL     1       4.301   5.632  17.247  0.00  0.00    +0.000 A 
ATOM      3  N   UNL     1       3.415   4.733  17.611  0.00  0.00    +0.000 NA
ATOM      4  N   UNL     1       2.481   5.396  18.375  0.00  0.00    +0.000 NA
ATOM      5  C   UNL     1       2.826   6.671  18.371  0.00  0.00    +0.000 A 
ATOM      6  O   UNL     1       3.995   6.893  17.684  0.00  0.00    +0.000 OA
ATOM      7  H   UNL     1       5.061   4.501  15.818  0.00  0.00    +0.000 HD
ENDROOT
BRANCH   5   8
ATOM      8  C   UNL     1       2.094   7.828  18.880  0.00  0.00    +0.000 A 
ATOM      9  C   UNL     1       1.647   8.869  18.037  0.00  0.00    +0.000 A 
ATOM     10  C   UNL     1       0.898   9.941  18.540  0.00  0.00    +0.000 A 
ATOM     11  C   UNL     1       0.581   9.956  19.887  0.00  0.00    +0.000 A 
ATOM     12  C   UNL     1       1.001   8.930  20.731  0.00  0.00    +0.000 A 
ATOM     13  C   UNL     1       1.770   7.881  20.248  0.00  0.00    +0.000 A 
ATOM     14  C   UNL     1       0.529   9.140  22.134  0.00  0.00    +0.000 C 
ATOM     15  C   UNL     1      -0.440  10.324  21.990  0.00  0.00    +0.000 C 
ATOM     16  C   UNL     1      -0.163  11.010  20.643  0.00  0.00    +0.000 C 
ENDBRANCH   5   8
BRANCH   1  17
ATOM     17  S   UNL     1       6.730   4.863  17.167  0.00  0.00    +0.000 S 
ATOM     18  O   UNL     1       7.635   4.344  16.161  0.00  0.00    +0.000 OA
ATOM     19  O   UNL     1       6.398   4.106  18.356  0.00  0.00    +0.000 OA
BRANCH  17  23
ATOM     20  C   UNL     1       8.531   8.849  18.513  0.00  0.00    +0.000 A 
ATOM     21  C   UNL     1       8.677   7.704  19.307  0.00  0.00    +0.000 A 
ATOM     22  C   UNL     1       8.106   6.493  18.902  0.00  0.00    +0.000 A 
ATOM     23  C   UNL     1       7.377   6.431  17.708  0.00  0.00    +0.000 A 
ATOM     24  C   UNL     1       7.231   7.567  16.906  0.00  0.00    +0.000 A 
ATOM     25  C   UNL     1       7.800   8.776  17.318  0.00  0.00    +0.000 A 
BRANCH  20  28
ATOM     26  C   UNL     1       9.915  11.574  20.750  0.00  0.00    +0.000 C 
ATOM     27  N   UNL     1       9.351  10.338  20.263  0.00  0.00    +0.000 N 
ATOM     28  C   UNL     1       9.095  10.167  18.922  0.00  0.00    +0.000 C 
ATOM     29  O   UNL     1       9.325  11.022  18.073  0.00  0.00    +0.000 OA
ATOM     30  H   UNL     1       9.323   9.546  20.891  0.00  0.00    +0.000 HD
ENDBRANCH  20  28
ENDBRANCH  17  23
ENDBRANCH   1  17
TORSDOF 4
ENDMDL
MODEL 2
REMARK VINA RESULT:      -8.6      5.180      9.857
REMARK  Name = 
REMARK  5 active torsions:
REMARK  status: ('A' for Active; 'I' for Inactive)
REMARK    1  A    between atoms: C_1  and  N_2
REMARK    2  A    between atoms: C_3  and  C_5
REMARK    3  A    between atoms: C_8  and  S_9
REMARK    4  A    between atoms: S_9  and  N_12
REMARK    5  A    between atoms: C_16  and  C_17
REMARK                            x       y       z     vdW  Elec       q    Type
REMARK                         _______ _______ _______ _____ _____    ______ ____
ROOT
ATOM      1  N   UNL     1      -0.071  10.297  19.705  0.00  0.00    +0.000 N 
ATOM      2  C   UNL     1       0.998   9.665  19.030  0.00  0.00    +0.000 A 
ATOM      3  N   UNL     1       1.625  10.235  18.027  0.00  0.00    +0.000 NA
ATOM      4  N   UNL     1       2.488   9.289  17.522  0.00  0.00    +0.000 NA
ATOM      5  C   UNL     1       2.280   8.182  18.211  0.00  0.00    +0.000 A 
ATOM      6  O   UNL     1       1.352   8.354  19.209  0.00  0.00    +0.000 OA
ATOM      7  H   UNL     1      -0.428  11.029  19.090  0.00  0.00    +0.000 HD
ENDROOT
BRANCH   5   8
ATOM      8  C   UNL     1       2.802   6.837  17.979  0.00  0.00    +0.000 A 
ATOM      9  C   UNL     1       4.156   6.598  17.660  0.00  0.00    +0.000 A 
ATOM     10  C   UNL     1       4.646   5.295  17.496  0.00  0.00    +0.000 A 
ATOM     11  C   UNL     1       3.777   4.231  17.674  0.00  0.00    +0.000 A 
ATOM     12  C   UNL     1       2.441   4.449  18.003  0.00  0.00    +0.000 A 
ATOM     13  C   UNL     1       1.940   5.736  18.135  0.00  0.00    +0.000 A 
ATOM     14  C   UNL     1       1.696   3.163  18.166  0.00  0.00    +0.000 C 
ATOM     15  C   UNL     1       2.819   2.114  18.118  0.00  0.00    +0.000 C 
ATOM     16  C   UNL     1       4.066   2.774  17.509  0.00  0.00    +0.000 C 
ENDBRANCH   5   8
BRANCH   1  17
ATOM     17  S   UNL     1       0.509  11.142  21.050  0.00  0.00    +0.000 S 
ATOM     18  O   UNL     1       1.270  12.255  20.520  0.00  0.00    +0.000 OA
ATOM     19  O   UNL     1       1.066  10.239  22.036  0.00  0.00    +0.000 OA
BRANCH  17  23
ATOM     20  C   UNL     1      -3.438  12.738  22.727  0.00  0.00    +0.000 A 
ATOM     21  C   UNL     1      -3.012  13.113  21.447  0.00  0.00    +0.000 A 
ATOM     22  C   UNL     1      -1.794  12.640  20.947  0.00  0.00    +0.000 A 
ATOM     23  C   UNL     1      -0.996  11.802  21.736  0.00  0.00    +0.000 A 
ATOM     24  C   UNL     1      -1.416  11.416  23.012  0.00  0.00    +0.000 A 
ATOM     25  C   UNL     1      -2.632  11.897  23.509  0.00  0.00    +0.000 A 
BRANCH  20  28
ATOM     26  C   UNL     1      -7.034  12.754  23.918  0.00  0.00    +0.000 C 
ATOM     27  N   UNL     1      -5.766  12.359  23.352  0.00  0.00    +0.000 N 
ATOM     28  C   UNL     1      -4.713  13.244  23.312  0.00  0.00    +0.000 C 
ATOM     29  O   UNL     1      -4.773  14.390  23.745  0.00  0.00    +0.000 OA
ATOM     30  H   UNL     1      -5.614  11.378  23.160  0.00  0.00    +0.000 HD
ENDBRANCH  20  28
ENDBRANCH  17  23
ENDBRANCH   1  17
TORSDOF 4
ENDMDL
MODEL 3
REMARK VINA RESULT:      -8.3      3.086      5.397
REMARK  Name = 
REMARK  5 active torsions:
REMARK  status: ('A' for Active; 'I' for Inactive)
REMARK    1  A    between atoms: C_1  and  N_2
REMARK    2  A    between atoms: C_3  and  C_5
REMARK    3  A    between atoms: C_8  and  S_9
REMARK    4  A    between atoms: S_9  and  N_12
REMARK    5  A    between atoms: C_16  and  C_17
REMARK                            x       y       z     vdW  Elec       q    Type
REMARK                         _______ _______ _______ _____ _____    ______ ____
ROOT
ATOM      1  N   UNL     1       6.956   6.307  16.689  0.00  0.00    +0.000 N 
ATOM      2  C   UNL     1       5.602   6.710  16.702  0.00  0.00    +0.000 A 
ATOM      3  N   UNL     1       4.976   7.087  15.611  0.00  0.00    +0.000 NA
ATOM      4  N   UNL     1       3.742   7.549  16.012  0.00  0.00    +0.000 NA
ATOM      5  C   UNL     1       3.726   7.483  17.331  0.00  0.00    +0.000 A 
ATOM      6  O   UNL     1       4.878   6.936  17.841  0.00  0.00    +0.000 OA
ATOM      7  H   UNL     1       7.375   6.674  15.833  0.00  0.00    +0.000 HD
ENDROOT
BRANCH   5   8
ATOM      8  C   UNL     1       2.733   8.002  18.269  0.00  0.00    +0.000 A 
ATOM      9  C   UNL     1       2.477   7.387  19.514  0.00  0.00    +0.000 A 
ATOM     10  C   UNL     1       1.561   7.935  20.421  0.00  0.00    +0.000 A 
ATOM     11  C   UNL     1       0.916   9.113  20.085  0.00  0.00    +0.000 A 
ATOM     12  C   UNL     1       1.168   9.742  18.867  0.00  0.00    +0.000 A 
ATOM     13  C   UNL     1       2.050   9.190  17.949  0.00  0.00    +0.000 A 
ATOM     14  C   UNL     1       0.381  11.005  18.725  0.00  0.00    +0.000 C 
ATOM     15  C   UNL     1      -0.218  11.189  20.128  0.00  0.00    +0.000 C 
ATOM     16  C   UNL     1      -0.122   9.848  20.871  0.00  0.00    +0.000 C 
ENDBRANCH   5   8
BRANCH   1  17
ATOM     17  S   UNL     1       7.063   4.629  16.509  0.00  0.00    +0.000 S 
ATOM     18  O   UNL     1       8.246   4.228  17.243  0.00  0.00    +0.000 OA
ATOM     19  O   UNL     1       6.850   4.235  15.132  0.00  0.00    +0.000 OA
BRANCH  17  23
ATOM     20  C   UNL     1       3.466   3.069  18.869  0.00  0.00    +0.000 A 
ATOM     21  C   UNL     1       3.448   3.063  17.468  0.00  0.00    +0.000 A 
ATOM     22  C   UNL     1       4.541   3.561  16.751  0.00  0.00    +0.000 A 
ATOM     23  C   UNL     1       5.646   4.078  17.437  0.00  0.00    +0.000 A 
ATOM     24  C   UNL     1       5.677   4.082  18.835  0.00  0.00    +0.000 A 
ATOM     25  C   UNL     1       4.579   3.588  19.547  0.00  0.00    +0.000 A 
BRANCH  20  28
ATOM     26  C   UNL     1       1.245   2.444  21.873  0.00  0.00    +0.000 C 
ATOM     27  N   UNL     1       2.331   2.862  21.019  0.00  0.00    +0.000 N 
ATOM     28  C   UNL     1       2.310   2.578  19.672  0.00  0.00    +0.000 C 
ATOM     29  O   UNL     1       1.396   1.974  19.121  0.00  0.00    +0.000 OA
ATOM     30  H   UNL     1       3.004   3.519  21.390  0.00  0.00    +0.000 HD
ENDBRANCH  20  28
ENDBRANCH  17  23
ENDBRANCH   1  17
TORSDOF 4
ENDMDL
MODEL 4
REMARK VINA RESULT:      -8.3      2.423      3.596
REMARK  Name = 
REMARK  5 active torsions:
REMARK  status: ('A' for Active; 'I' for Inactive)
REMARK    1  A    between atoms: C_1  and  N_2
REMARK    2  A    between atoms: C_3  and  C_5
REMARK    3  A    between atoms: C_8  and  S_9
REMARK    4  A    between atoms: S_9  and  N_12
REMARK    5  A    between atoms: C_16  and  C_17
REMARK                            x       y       z     vdW  Elec       q    Type
REMARK                         _______ _______ _______ _____ _____    ______ ____
ROOT
ATOM      1  N   UNL     1       2.032   3.004  18.880  0.00  0.00    +0.000 N 
ATOM      2  C   UNL     1       1.941   4.269  19.503  0.00  0.00    +0.000 A 
ATOM      3  N   UNL     1       1.429   4.422  20.703  0.00  0.00    +0.000 NA
ATOM      4  N   UNL     1       1.361   5.779  20.924  0.00  0.00    +0.000 NA
ATOM      5  C   UNL     1       1.776   6.364  19.816  0.00  0.00    +0.000 A 
ATOM      6  O   UNL     1       2.183   5.457  18.868  0.00  0.00    +0.000 OA
ATOM      7  H   UNL     1       1.371   2.384  19.353  0.00  0.00    +0.000 HD
ENDROOT
BRANCH   5   8
ATOM      8  C   UNL     1       1.745   7.779  19.450  0.00  0.00    +0.000 A 
ATOM      9  C   UNL     1       2.163   8.240  18.183  0.00  0.00    +0.000 A 
ATOM     10  C   UNL     1       2.072   9.595  17.836  0.00  0.00    +0.000 A 
ATOM     11  C   UNL     1       1.541  10.482  18.756  0.00  0.00    +0.000 A 
ATOM     12  C   UNL     1       1.109  10.042  20.006  0.00  0.00    +0.000 A 
ATOM     13  C   UNL     1       1.225   8.708  20.370  0.00  0.00    +0.000 A 
ATOM     14  C   UNL     1       0.555  11.163  20.825  0.00  0.00    +0.000 C 
ATOM     15  C   UNL     1       0.491  12.319  19.815  0.00  0.00    +0.000 C 
ATOM     16  C   UNL     1       1.389  11.963  18.620  0.00  0.00    +0.000 C 
ENDBRANCH   5   8
BRANCH   1  17
ATOM     17  S   UNL     1       3.540   2.307  19.193  0.00  0.00    +0.000 S 
ATOM     18  O   UNL     1       3.646   1.174  18.297  0.00  0.00    +0.000 OA
ATOM     19  O   UNL     1       3.773   2.178  20.617  0.00  0.00    +0.000 OA
BRANCH  17  23
ATOM     20  C   UNL     1       6.265   5.634  17.627  0.00  0.00    +0.000 A 
ATOM     21  C   UNL     1       5.547   4.830  16.733  0.00  0.00    +0.000 A 
ATOM     22  C   UNL     1       4.732   3.801  17.215  0.00  0.00    +0.000 A 
ATOM     23  C   UNL     1       4.648   3.567  18.593  0.00  0.00    +0.000 A 
ATOM     24  C   UNL     1       5.356   4.368  19.494  0.00  0.00    +0.000 A 
ATOM     25  C   UNL     1       6.173   5.392  19.006  0.00  0.00    +0.000 A 
BRANCH  20  28
ATOM     26  C   UNL     1       8.124   8.934  17.586  0.00  0.00    +0.000 C 
ATOM     27  N   UNL     1       7.258   7.839  17.952  0.00  0.00    +0.000 N 
ATOM     28  C   UNL     1       7.170   6.720  17.155  0.00  0.00    +0.000 C 
ATOM     29  O   UNL     1       7.804   6.579  16.114  0.00  0.00    +0.000 OA
ATOM     30  H   UNL     1       6.868   7.830  18.885  0.00  0.00    +0.000 HD
ENDBRANCH  20  28
ENDBRANCH  17  23
ENDBRANCH   1  17
TORSDOF 4
ENDMDL
MODEL 5
REMARK VINA RESULT:      -8.3      5.396      9.786
REMARK  Name = 
REMARK  5 active torsions:
REMARK  status: ('A' for Active; 'I' for Inactive)
REMARK    1  A    between atoms: C_1  and  N_2
REMARK    2  A    between atoms: C_3  and  C_5
REMARK    3  A    between atoms: C_8  and  S_9
REMARK    4  A    between atoms: S_9  and  N_12
REMARK    5  A    between atoms: C_16  and  C_17
REMARK                            x       y       z     vdW  Elec       q    Type
REMARK                         _______ _______ _______ _____ _____    ______ ____
ROOT
ATOM      1  N   UNL     1      -0.112  10.563  19.350  0.00  0.00    +0.000 N 
ATOM      2  C   UNL     1       0.973   9.708  19.052  0.00  0.00    +0.000 A 
ATOM      3  N   UNL     1       1.785   9.936  18.045  0.00  0.00    +0.000 NA
ATOM      4  N   UNL     1       2.614   8.840  17.960  0.00  0.00    +0.000 NA
ATOM      5  C   UNL     1       2.207   7.986  18.881  0.00  0.00    +0.000 A 
ATOM      6  O   UNL     1       1.171   8.485  19.634  0.00  0.00    +0.000 OA
ATOM      7  H   UNL     1      -0.309  11.109  18.510  0.00  0.00    +0.000 HD
ENDROOT
BRANCH   5   8
ATOM      8  C   UNL     1       2.623   6.604  19.109  0.00  0.00    +0.000 A 
ATOM      9  C   UNL     1       3.698   6.015  18.409  0.00  0.00    +0.000 A 
ATOM     10  C   UNL     1       4.115   4.706  18.685  0.00  0.00    +0.000 A 
ATOM     11  C   UNL     1       3.463   3.996  19.679  0.00  0.00    +0.000 A 
ATOM     12  C   UNL     1       2.409   4.567  20.389  0.00  0.00    +0.000 A 
ATOM     13  C   UNL     1       1.969   5.851  20.102  0.00  0.00    +0.000 A 
ATOM     14  C   UNL     1       1.871   3.633  21.424  0.00  0.00    +0.000 C 
ATOM     15  C   UNL     1       2.894   2.486  21.409  0.00  0.00    +0.000 C 
ATOM     16  C   UNL     1       3.706   2.585  20.109  0.00  0.00    +0.000 C 
ENDBRANCH   5   8
BRANCH   1  17
ATOM     17  S   UNL     1       0.356  11.721  20.490  0.00  0.00    +0.000 S 
ATOM     18  O   UNL     1       0.800  12.870  19.727  0.00  0.00    +0.000 OA
ATOM     19  O   UNL     1       1.177  11.133  21.529  0.00  0.00    +0.000 OA
BRANCH  17  23
ATOM     20  C   UNL     1      -3.589  12.926  22.471  0.00  0.00    +0.000 A 
ATOM     21  C   UNL     1      -2.618  12.226  23.199  0.00  0.00    +0.000 A 
ATOM     22  C   UNL     1      -1.423  11.841  22.583  0.00  0.00    +0.000 A 
ATOM     23  C   UNL     1      -1.206  12.144  21.234  0.00  0.00    +0.000 A 
ATOM     24  C   UNL     1      -2.165  12.848  20.500  0.00  0.00    +0.000 A 
ATOM     25  C   UNL     1      -3.361  13.227  21.119  0.00  0.00    +0.000 A 
BRANCH  20  28
ATOM     26  C   UNL     1      -7.065  12.608  23.944  0.00  0.00    +0.000 C 
ATOM     27  N   UNL     1      -5.787  12.317  23.339  0.00  0.00    +0.000 N 
ATOM     28  C   UNL     1      -4.890  13.328  23.078  0.00  0.00    +0.000 C 
ATOM     29  O   UNL     1      -5.105  14.508  23.336  0.00  0.00    +0.000 OA
ATOM     30  H   UNL     1      -5.493  11.351  23.285  0.00  0.00    +0.000 HD
ENDBRANCH  20  28
ENDBRANCH  17  23
ENDBRANCH   1  17
TORSDOF 4
ENDMDL
MODEL 6
REMARK VINA RESULT:      -8.3      5.379      9.782
REMARK  Name = 
REMARK  5 active torsions:
REMARK  status: ('A' for Active; 'I' for Inactive)
REMARK    1  A    between atoms: C_1  and  N_2
REMARK    2  A    between atoms: C_3  and  C_5
REMARK    3  A    between atoms: C_8  and  S_9
REMARK    4  A    between atoms: S_9  and  N_12
REMARK    5  A    between atoms: C_16  and  C_17
REMARK                            x       y       z     vdW  Elec       q    Type
REMARK                         _______ _______ _______ _____ _____    ______ ____
ROOT
ATOM      1  N   UNL     1      -0.124  10.717  19.280  0.00  0.00    +0.000 N 
ATOM      2  C   UNL     1       0.941   9.857  18.932  0.00  0.00    +0.000 A 
ATOM      3  N   UNL     1       1.703  10.077  17.885  0.00  0.00    +0.000 NA
ATOM      4  N   UNL     1       2.522   8.978  17.764  0.00  0.00    +0.000 NA
ATOM      5  C   UNL     1       2.158   8.129  18.708  0.00  0.00    +0.000 A 
ATOM      6  O   UNL     1       1.162   8.635  19.508  0.00  0.00    +0.000 OA
ATOM      7  H   UNL     1      -0.360  11.261  18.449  0.00  0.00    +0.000 HD
ENDROOT
BRANCH   5   8
ATOM      8  C   UNL     1       2.579   6.746  18.920  0.00  0.00    +0.000 A 
ATOM      9  C   UNL     1       3.588   6.137  18.142  0.00  0.00    +0.000 A 
ATOM     10  C   UNL     1       4.014   4.827  18.402  0.00  0.00    +0.000 A 
ATOM     11  C   UNL     1       3.440   4.138  19.457  0.00  0.00    +0.000 A 
ATOM     12  C   UNL     1       2.455   4.729  20.244  0.00  0.00    +0.000 A 
ATOM     13  C   UNL     1       2.004   6.014  19.975  0.00  0.00    +0.000 A 
ATOM     14  C   UNL     1       1.996   3.815  21.333  0.00  0.00    +0.000 C 
ATOM     15  C   UNL     1       3.004   2.658  21.250  0.00  0.00    +0.000 C 
ATOM     16  C   UNL     1       3.706   2.731  19.886  0.00  0.00    +0.000 C 
ENDBRANCH   5   8
BRANCH   1  17
ATOM     17  S   UNL     1       0.404  11.878  20.391  0.00  0.00    +0.000 S 
ATOM     18  O   UNL     1       0.729  13.053  19.609  0.00  0.00    +0.000 OA
ATOM     19  O   UNL     1       1.340  11.309  21.338  0.00  0.00    +0.000 OA
BRANCH  17  23
ATOM     20  C   UNL     1      -3.509  12.648  22.634  0.00  0.00    +0.000 A 
ATOM     21  C   UNL     1      -3.433  12.865  21.253  0.00  0.00    +0.000 A 
ATOM     22  C   UNL     1      -2.229  12.649  20.575  0.00  0.00    +0.000 A 
ATOM     23  C   UNL     1      -1.097  12.229  21.283  0.00  0.00    +0.000 A 
ATOM     24  C   UNL     1      -1.164  12.003  22.661  0.00  0.00    +0.000 A 
ATOM     25  C   UNL     1      -2.369  12.226  23.335  0.00  0.00    +0.000 A 
BRANCH  20  28
ATOM     26  C   UNL     1      -6.704  14.346  23.755  0.00  0.00    +0.000 C 
ATOM     27  N   UNL     1      -5.468  14.033  23.079  0.00  0.00    +0.000 N 
ATOM     28  C   UNL     1      -4.763  12.896  23.402  0.00  0.00    +0.000 C 
ATOM     29  O   UNL     1      -5.126  12.094  24.256  0.00  0.00    +0.000 OA
ATOM     30  H   UNL     1      -5.233  14.559  22.248  0.00  0.00    +0.000 HD
ENDBRANCH  20  28
ENDBRANCH  17  23
ENDBRANCH   1  17
TORSDOF 4
ENDMDL
MODEL 7
REMARK VINA RESULT:      -8.3      0.918      1.556
REMARK  Name = 
REMARK  5 active torsions:
REMARK  status: ('A' for Active; 'I' for Inactive)
REMARK    1  A    between atoms: C_1  and  N_2
REMARK    2  A    between atoms: C_3  and  C_5
REMARK    3  A    between atoms: C_8  and  S_9
REMARK    4  A    between atoms: S_9  and  N_12
REMARK    5  A    between atoms: C_16  and  C_17
REMARK                            x       y       z     vdW  Elec       q    Type
REMARK                         _______ _______ _______ _____ _____    ______ ____
ROOT
ATOM      1  N   UNL     1       5.202   5.374  16.502  0.00  0.00    +0.000 N 
ATOM      2  C   UNL     1       4.205   5.552  17.487  0.00  0.00    +0.000 A 
ATOM      3  N   UNL     1       3.369   4.593  17.816  0.00  0.00    +0.000 NA
ATOM      4  N   UNL     1       2.455   5.155  18.678  0.00  0.00    +0.000 NA
ATOM      5  C   UNL     1       2.756   6.437  18.765  0.00  0.00    +0.000 A 
ATOM      6  O   UNL     1       3.880   6.760  18.042  0.00  0.00    +0.000 OA
ATOM      7  H   UNL     1       4.927   4.572  15.932  0.00  0.00    +0.000 HD
ENDROOT
BRANCH   5   8
ATOM      8  C   UNL     1       2.012   7.520  19.405  0.00  0.00    +0.000 A 
ATOM      9  C   UNL     1       1.581   7.448  20.747  0.00  0.00    +0.000 A 
ATOM     10  C   UNL     1       0.918   8.522  21.356  0.00  0.00    +0.000 A 
ATOM     11  C   UNL     1       0.707   9.676  20.621  0.00  0.00    +0.000 A 
ATOM     12  C   UNL     1       1.139   9.770  19.300  0.00  0.00    +0.000 A 
ATOM     13  C   UNL     1       1.768   8.700  18.679  0.00  0.00    +0.000 A 
ATOM     14  C   UNL     1       0.826  11.107  18.710  0.00  0.00    +0.000 C 
ATOM     15  C   UNL     1       0.346  11.909  19.930  0.00  0.00    +0.000 C 
ATOM     16  C   UNL     1      -0.009  10.917  21.047  0.00  0.00    +0.000 C 
ENDBRANCH   5   8
BRANCH   1  17
ATOM     17  S   UNL     1       6.651   4.885  17.223  0.00  0.00    +0.000 S 
ATOM     18  O   UNL     1       7.483   4.394  16.143  0.00  0.00    +0.000 OA
ATOM     19  O   UNL     1       6.406   4.098  18.413  0.00  0.00    +0.000 OA
BRANCH  17  23
ATOM     20  C   UNL     1       8.535   8.842  18.542  0.00  0.00    +0.000 A 
ATOM     21  C   UNL     1       8.677   7.693  19.332  0.00  0.00    +0.000 A 
ATOM     22  C   UNL     1       8.082   6.492  18.935  0.00  0.00    +0.000 A 
ATOM     23  C   UNL     1       7.331   6.443  17.755  0.00  0.00    +0.000 A 
ATOM     24  C   UNL     1       7.188   7.582  16.956  0.00  0.00    +0.000 A 
ATOM     25  C   UNL     1       7.782   8.782  17.360  0.00  0.00    +0.000 A 
BRANCH  20  28
ATOM     26  C   UNL     1       9.982  12.327  18.218  0.00  0.00    +0.000 C 
ATOM     27  N   UNL     1       9.425  11.028  17.926  0.00  0.00    +0.000 N 
ATOM     28  C   UNL     1       9.125  10.150  18.942  0.00  0.00    +0.000 C 
ATOM     29  O   UNL     1       9.300  10.404  20.130  0.00  0.00    +0.000 OA
ATOM     30  H   UNL     1       9.091  10.853  16.987  0.00  0.00    +0.000 HD
ENDBRANCH  20  28
ENDBRANCH  17  23
ENDBRANCH   1  17
TORSDOF 4
ENDMDL
MODEL 8
REMARK VINA RESULT:      -8.2      3.871      5.232
REMARK  Name = 
REMARK  5 active torsions:
REMARK  status: ('A' for Active; 'I' for Inactive)
REMARK    1  A    between atoms: C_1  and  N_2
REMARK    2  A    between atoms: C_3  and  C_5
REMARK    3  A    between atoms: C_8  and  S_9
REMARK    4  A    between atoms: S_9  and  N_12
REMARK    5  A    between atoms: C_16  and  C_17
REMARK                            x       y       z     vdW  Elec       q    Type
REMARK                         _______ _______ _______ _____ _____    ______ ____
ROOT
ATOM      1  N   UNL     1       3.565   6.521  19.692  0.00  0.00    +0.000 N 
ATOM      2  C   UNL     1       2.552   7.502  19.603  0.00  0.00    +0.000 A 
ATOM      3  N   UNL     1       2.474   8.335  18.590  0.00  0.00    +0.000 NA
ATOM      4  N   UNL     1       1.480   9.234  18.903  0.00  0.00    +0.000 NA
ATOM      5  C   UNL     1       1.063   8.928  20.118  0.00  0.00    +0.000 A 
ATOM      6  O   UNL     1       1.692   7.815  20.621  0.00  0.00    +0.000 OA
ATOM      7  H   UNL     1       4.322   6.807  19.070  0.00  0.00    +0.000 HD
ENDROOT
BRANCH   5   8
ATOM      8  C   UNL     1       0.148   9.658  20.992  0.00  0.00    +0.000 A 
ATOM      9  C   UNL     1      -0.017   9.329  22.356  0.00  0.00    +0.000 A 
ATOM     10  C   UNL     1      -0.859  10.080  23.188  0.00  0.00    +0.000 A 
ATOM     11  C   UNL     1      -1.519  11.173  22.653  0.00  0.00    +0.000 A 
ATOM     12  C   UNL     1      -1.357  11.520  21.314  0.00  0.00    +0.000 A 
ATOM     13  C   UNL     1      -0.551  10.764  20.475  0.00  0.00    +0.000 A 
ATOM     14  C   UNL     1      -2.145  12.740  20.961  0.00  0.00    +0.000 C 
ATOM     15  C   UNL     1      -2.634  13.234  22.331  0.00  0.00    +0.000 C 
ATOM     16  C   UNL     1      -2.491  12.082  23.336  0.00  0.00    +0.000 C 
ENDBRANCH   5   8
BRANCH   1  17
ATOM     17  S   UNL     1       3.022   5.062  19.032  0.00  0.00    +0.000 S 
ATOM     18  O   UNL     1       1.684   5.324  18.543  0.00  0.00    +0.000 OA
ATOM     19  O   UNL     1       3.306   3.949  19.914  0.00  0.00    +0.000 OA
BRANCH  17  23
ATOM     20  C   UNL     1       5.630   4.609  15.300  0.00  0.00    +0.000 A 
ATOM     21  C   UNL     1       5.066   3.481  15.908  0.00  0.00    +0.000 A 
ATOM     22  C   UNL     1       4.287   3.622  17.061  0.00  0.00    +0.000 A 
ATOM     23  C   UNL     1       4.085   4.893  17.614  0.00  0.00    +0.000 A 
ATOM     24  C   UNL     1       4.639   6.026  17.010  0.00  0.00    +0.000 A 
ATOM     25  C   UNL     1       5.421   5.878  15.860  0.00  0.00    +0.000 A 
BRANCH  20  28
ATOM     26  C   UNL     1       8.355   5.436  12.801  0.00  0.00    +0.000 C 
ATOM     27  N   UNL     1       7.460   5.469  13.933  0.00  0.00    +0.000 N 
ATOM     28  C   UNL     1       6.493   4.502  14.089  0.00  0.00    +0.000 C 
ATOM     29  O   UNL     1       6.333   3.571  13.305  0.00  0.00    +0.000 OA
ATOM     30  H   UNL     1       7.675   6.100  14.693  0.00  0.00    +0.000 HD
ENDBRANCH  20  28
ENDBRANCH  17  23
ENDBRANCH   1  17
TORSDOF 4
ENDMDL
MODEL 9
REMARK VINA RESULT:      -8.2      5.068      9.953
REMARK  Name = 
REMARK  5 active torsions:
REMARK  status: ('A' for Active; 'I' for Inactive)
REMARK    1  A    between atoms: C_1  and  N_2
REMARK    2  A    between atoms: C_3  and  C_5
REMARK    3  A    between atoms: C_8  and  S_9
REMARK    4  A    between atoms: S_9  and  N_12
REMARK    5  A    between atoms: C_16  and  C_17
REMARK                            x       y       z     vdW  Elec       q    Type
REMARK                         _______ _______ _______ _____ _____    ______ ____
ROOT
ATOM      1  N   UNL     1      -0.076   9.765  19.987  0.00  0.00    +0.000 N 
ATOM      2  C   UNL     1       1.006   9.375  19.167  0.00  0.00    +0.000 A 
ATOM      3  N   UNL     1       1.305  10.011  18.057  0.00  0.00    +0.000 NA
ATOM      4  N   UNL     1       2.299   9.280  17.447  0.00  0.00    +0.000 NA
ATOM      5  C   UNL     1       2.494   8.209  18.196  0.00  0.00    +0.000 A 
ATOM      6  O   UNL     1       1.713   8.214  19.326  0.00  0.00    +0.000 OA
ATOM      7  H   UNL     1      -0.701  10.335  19.416  0.00  0.00    +0.000 HD
ENDROOT
BRANCH   5   8
ATOM      8  C   UNL     1       3.308   7.027  17.924  0.00  0.00    +0.000 A 
ATOM      9  C   UNL     1       3.233   5.861  18.716  0.00  0.00    +0.000 A 
ATOM     10  C   UNL     1       3.983   4.719  18.402  0.00  0.00    +0.000 A 
ATOM     11  C   UNL     1       4.793   4.745  17.279  0.00  0.00    +0.000 A 
ATOM     12  C   UNL     1       4.868   5.882  16.478  0.00  0.00    +0.000 A 
ATOM     13  C   UNL     1       4.153   7.027  16.799  0.00  0.00    +0.000 A 
ATOM     14  C   UNL     1       5.783   5.678  15.314  0.00  0.00    +0.000 C 
ATOM     15  C   UNL     1       6.084   4.172  15.381  0.00  0.00    +0.000 C 
ATOM     16  C   UNL     1       5.705   3.669  16.782  0.00  0.00    +0.000 C 
ENDBRANCH   5   8
BRANCH   1  17
ATOM     17  S   UNL     1       0.458  10.825  21.192  0.00  0.00    +0.000 S 
ATOM     18  O   UNL     1       1.169  11.881  20.501  0.00  0.00    +0.000 OA
ATOM     19  O   UNL     1       1.051  10.104  22.299  0.00  0.00    +0.000 OA
BRANCH  17  23
ATOM     20  C   UNL     1      -3.414  12.694  22.760  0.00  0.00    +0.000 A 
ATOM     21  C   UNL     1      -2.611  11.918  23.605  0.00  0.00    +0.000 A 
ATOM     22  C   UNL     1      -1.440  11.331  23.116  0.00  0.00    +0.000 A 
ATOM     23  C   UNL     1      -1.080  11.509  21.775  0.00  0.00    +0.000 A 
ATOM     24  C   UNL     1      -1.870  12.288  20.924  0.00  0.00    +0.000 A 
ATOM     25  C   UNL     1      -3.043  12.868  21.418  0.00  0.00    +0.000 A 
BRANCH  20  28
ATOM     26  C   UNL     1      -7.021  12.967  23.881  0.00  0.00    +0.000 C 
ATOM     27  N   UNL     1      -5.754  12.463  23.409  0.00  0.00    +0.000 N 
ATOM     28  C   UNL     1      -4.686  13.312  23.231  0.00  0.00    +0.000 C 
ATOM     29  O   UNL     1      -4.733  14.517  23.457  0.00  0.00    +0.000 OA
ATOM     30  H   UNL     1      -5.616  11.461  23.393  0.00  0.00    +0.000 HD
ENDBRANCH  20  28
ENDBRANCH  17  23
ENDBRANCH   1  17
TORSDOF 4
ENDMDL
