MODEL 1
REMARK VINA RESULT:      -8.9      0.000      0.000
REMARK  Name = 
REMARK  5 active torsions:
REMARK  status: ('A' for Active; 'I' for Inactive)
REMARK    1  A    between atoms: C_1  and  N_2
REMARK    2  A    between atoms: C_6  and  C_7
REMARK    3  A    between atoms: C_7  and  C_8
REMARK    4  A    between atoms: C_12  and  N_13
REMARK    5  A    between atoms: C_20  and  C_21
REMARK                            x       y       z     vdW  Elec       q    Type
REMARK                         _______ _______ _______ _____ _____    ______ ____
ROOT
ATOM      1  N   UNL     1       2.030   8.330  18.999  0.00  0.00    +0.000 N 
ATOM      2  C   UNL     1       1.426   8.320  20.333  0.00  0.00    +0.000 C 
ATOM      3  C   UNL     1       0.742   9.655  20.411  0.00  0.00    +0.000 A 
ATOM      4  C   UNL     1       0.960  10.344  19.228  0.00  0.00    +0.000 A 
ATOM      5  C   UNL     1       0.426  11.587  19.002  0.00  0.00    +0.000 A 
ATOM      6  N   UNL     1      -0.332  12.195  19.939  0.00  0.00    +0.000 NA
ATOM      7  C   UNL     1      -0.534  11.524  21.108  0.00  0.00    +0.000 A 
ATOM      8  C   UNL     1      -0.025  10.255  21.402  0.00  0.00    +0.000 A 
ATOM      9  C   UNL     1       1.780   9.537  18.340  0.00  0.00    +0.000 C 
ATOM     10  O   UNL     1       2.099   9.957  17.244  0.00  0.00    +0.000 OA
ENDROOT
BRANCH   1  15
ATOM     11  C   UNL     1       2.816   4.796  17.938  0.00  0.00    +0.000 A 
ATOM     12  C   UNL     1       3.941   5.019  17.136  0.00  0.00    +0.000 A 
ATOM     13  C   UNL     1       4.452   6.300  16.994  0.00  0.00    +0.000 A 
ATOM     14  C   UNL     1       3.834   7.371  17.637  0.00  0.00    +0.000 A 
ATOM     15  C   UNL     1       2.684   7.201  18.423  0.00  0.00    +0.000 A 
ATOM     16  C   UNL     1       2.196   5.892  18.585  0.00  0.00    +0.000 A 
BRANCH  11  17
ATOM     17  C   UNL     1       2.345   3.371  18.144  0.00  0.00    +0.000 C 
BRANCH  17  23
ATOM     18  C   UNL     1       4.498   2.297  20.178  0.00  0.00    +0.000 C 
ATOM     19  N   UNL     1       3.101   2.521  20.431  0.00  0.00    +0.000 N 
ATOM     20  C   UNL     1       2.472   2.324  21.623  0.00  0.00    +0.000 A 
ATOM     21  N   UNL     1       1.202   2.629  21.506  0.00  0.00    +0.000 NA
ATOM     22  N   UNL     1       0.990   3.032  20.212  0.00  0.00    +0.000 NA
ATOM     23  C   UNL     1       2.137   2.966  19.562  0.00  0.00    +0.000 A 
ENDBRANCH  17  23
ENDBRANCH  11  17
ENDBRANCH   1  15
BRANCH   8  24
ATOM     24  C   UNL     1      -0.325   9.653  22.734  0.00  0.00    +0.000 C 
ATOM     25  F   UNL     1       0.786   9.428  23.486  0.00  0.00    +0.000 F 
ATOM     26  F   UNL     1      -1.136  10.442  23.488  0.00  0.00    +0.000 F 
ATOM     27  F   UNL     1      -0.958   8.453  22.631  0.00  0.00    +0.000 F 
ENDBRANCH   8  24
TORSDOF 4
ENDMDL
MODEL 2
REMARK VINA RESULT:      -8.9      2.383      3.687
REMARK  Name = 
REMARK  5 active torsions:
REMARK  status: ('A' for Active; 'I' for Inactive)
REMARK    1  A    between atoms: C_1  and  N_2
REMARK    2  A    between atoms: C_6  and  C_7
REMARK    3  A    between atoms: C_7  and  C_8
REMARK    4  A    between atoms: C_12  and  N_13
REMARK    5  A    between atoms: C_20  and  C_21
REMARK                            x       y       z     vdW  Elec       q    Type
REMARK                         _______ _______ _______ _____ _____    ______ ____
ROOT
ATOM      1  N   UNL     1       2.013   7.797  19.007  0.00  0.00    +0.000 N 
ATOM      2  C   UNL     1       1.440   7.925  20.349  0.00  0.00    +0.000 C 
ATOM      3  C   UNL     1       0.905   9.329  20.363  0.00  0.00    +0.000 A 
ATOM      4  C   UNL     1       1.172   9.925  19.140  0.00  0.00    +0.000 A 
ATOM      5  C   UNL     1       0.770  11.205  18.855  0.00  0.00    +0.000 A 
ATOM      6  N   UNL     1       0.102  11.942  19.767  0.00  0.00    +0.000 NA
ATOM      7  C   UNL     1      -0.147  11.360  20.975  0.00  0.00    +0.000 A 
ATOM      8  C   UNL     1       0.229  10.061  21.331  0.00  0.00    +0.000 A 
ATOM      9  C   UNL     1       1.880   8.988  18.286  0.00  0.00    +0.000 C 
ATOM     10  O   UNL     1       2.220   9.312  17.164  0.00  0.00    +0.000 OA
ENDROOT
BRANCH   1  15
ATOM     11  C   UNL     1       4.389   5.176  17.698  0.00  0.00    +0.000 A 
ATOM     12  C   UNL     1       3.521   4.082  17.592  0.00  0.00    +0.000 A 
ATOM     13  C   UNL     1       2.177   4.227  17.899  0.00  0.00    +0.000 A 
ATOM     14  C   UNL     1       1.691   5.459  18.331  0.00  0.00    +0.000 A 
ATOM     15  C   UNL     1       2.529   6.575  18.485  0.00  0.00    +0.000 A 
ATOM     16  C   UNL     1       3.883   6.422  18.138  0.00  0.00    +0.000 A 
BRANCH  11  17
ATOM     17  C   UNL     1       5.829   5.002  17.263  0.00  0.00    +0.000 C 
BRANCH  17  23
ATOM     18  C   UNL     1       7.738   5.545  19.710  0.00  0.00    +0.000 C 
ATOM     19  N   UNL     1       7.548   6.381  18.556  0.00  0.00    +0.000 N 
ATOM     20  C   UNL     1       8.194   7.555  18.315  0.00  0.00    +0.000 A 
ATOM     21  N   UNL     1       7.789   8.054  17.172  0.00  0.00    +0.000 NA
ATOM     22  N   UNL     1       6.857   7.192  16.651  0.00  0.00    +0.000 NA
ATOM     23  C   UNL     1       6.710   6.182  17.487  0.00  0.00    +0.000 A 
ENDBRANCH  17  23
ENDBRANCH  11  17
ENDBRANCH   1  15
BRANCH   8  24
ATOM     24  C   UNL     1      -0.106   9.567  22.699  0.00  0.00    +0.000 C 
ATOM     25  F   UNL     1       0.989   9.232  23.433  0.00  0.00    +0.000 F 
ATOM     26  F   UNL     1      -0.782  10.492  23.432  0.00  0.00    +0.000 F 
ATOM     27  F   UNL     1      -0.894   8.458  22.673  0.00  0.00    +0.000 F 
ENDBRANCH   8  24
TORSDOF 4
ENDMDL
MODEL 3
REMARK VINA RESULT:      -8.7      2.241      3.523
REMARK  Name = 
REMARK  5 active torsions:
REMARK  status: ('A' for Active; 'I' for Inactive)
REMARK    1  A    between atoms: C_1  and  N_2
REMARK    2  A    between atoms: C_6  and  C_7
REMARK    3  A    between atoms: C_7  and  C_8
REMARK    4  A    between atoms: C_12  and  N_13
REMARK    5  A    between atoms: C_20  and  C_21
REMARK                            x       y       z     vdW  Elec       q    Type
REMARK                         _______ _______ _______ _____ _____    ______ ____
ROOT
ATOM      1  N   UNL     1       1.957   7.983  18.936  0.00  0.00    +0.000 N 
ATOM      2  C   UNL     1       1.395   8.061  20.287  0.00  0.00    +0.000 C 
ATOM      3  C   UNL     1       0.871   9.467  20.361  0.00  0.00    +0.000 A 
ATOM      4  C   UNL     1       1.132  10.110  19.160  0.00  0.00    +0.000 A 
ATOM      5  C   UNL     1       0.738  11.403  18.929  0.00  0.00    +0.000 A 
ATOM      6  N   UNL     1       0.082  12.107  19.875  0.00  0.00    +0.000 NA
ATOM      7  C   UNL     1      -0.161  11.480  21.061  0.00  0.00    +0.000 A 
ATOM      8  C   UNL     1       0.207  10.165  21.362  0.00  0.00    +0.000 A 
ATOM      9  C   UNL     1       1.828   9.202  18.264  0.00  0.00    +0.000 C 
ATOM     10  O   UNL     1       2.161   9.568  17.152  0.00  0.00    +0.000 OA
ENDROOT
BRANCH   1  15
ATOM     11  C   UNL     1       4.289   5.429  17.430  0.00  0.00    +0.000 A 
ATOM     12  C   UNL     1       3.438   4.319  17.366  0.00  0.00    +0.000 A 
ATOM     13  C   UNL     1       2.115   4.432  17.765  0.00  0.00    +0.000 A 
ATOM     14  C   UNL     1       1.635   5.649  18.247  0.00  0.00    +0.000 A 
ATOM     15  C   UNL     1       2.460   6.779  18.362  0.00  0.00    +0.000 A 
ATOM     16  C   UNL     1       3.790   6.658  17.922  0.00  0.00    +0.000 A 
BRANCH  11  17
ATOM     17  C   UNL     1       5.700   5.290  16.897  0.00  0.00    +0.000 C 
BRANCH  17  23
ATOM     18  C   UNL     1       7.380   7.909  17.396  0.00  0.00    +0.000 C 
ATOM     19  N   UNL     1       7.484   6.662  18.105  0.00  0.00    +0.000 N 
ATOM     20  C   UNL     1       8.327   6.413  19.145  0.00  0.00    +0.000 A 
ATOM     21  N   UNL     1       8.161   5.180  19.560  0.00  0.00    +0.000 NA
ATOM     22  N   UNL     1       7.192   4.606  18.776  0.00  0.00    +0.000 NA
ATOM     23  C   UNL     1       6.783   5.501  17.896  0.00  0.00    +0.000 A 
ENDBRANCH  17  23
ENDBRANCH  11  17
ENDBRANCH   1  15
BRANCH   8  24
ATOM     24  C   UNL     1      -0.120   9.619  22.712  0.00  0.00    +0.000 C 
ATOM     25  F   UNL     1      -0.812  10.492  23.493  0.00  0.00    +0.000 F 
ATOM     26  F   UNL     1      -0.878   8.492  22.644  0.00  0.00    +0.000 F 
ATOM     27  F   UNL     1       0.992   9.282  23.420  0.00  0.00    +0.000 F 
ENDBRANCH   8  24
TORSDOF 4
ENDMDL
MODEL 4
REMARK VINA RESULT:      -8.6      0.704      1.380
REMARK  Name = 
REMARK  5 active torsions:
REMARK  status: ('A' for Active; 'I' for Inactive)
REMARK    1  A    between atoms: C_1  and  N_2
REMARK    2  A    between atoms: C_6  and  C_7
REMARK    3  A    between atoms: C_7  and  C_8
REMARK    4  A    between atoms: C_12  and  N_13
REMARK    5  A    between atoms: C_20  and  C_21
REMARK                            x       y       z     vdW  Elec       q    Type
REMARK                         _______ _______ _______ _____ _____    ______ ____
ROOT
ATOM      1  N   UNL     1       2.228   8.119  18.915  0.00  0.00    +0.000 N 
ATOM      2  C   UNL     1       1.633   8.090  20.254  0.00  0.00    +0.000 C 
ATOM      3  C   UNL     1       0.792   9.334  20.283  0.00  0.00    +0.000 A 
ATOM      4  C   UNL     1       0.922   9.995  19.072  0.00  0.00    +0.000 A 
ATOM      5  C   UNL     1       0.240  11.154  18.801  0.00  0.00    +0.000 A 
ATOM      6  N   UNL     1      -0.585  11.703  19.718  0.00  0.00    +0.000 NA
ATOM      7  C   UNL     1      -0.700  11.061  20.915  0.00  0.00    +0.000 A 
ATOM      8  C   UNL     1      -0.040   9.876  21.255  0.00  0.00    +0.000 A 
ATOM      9  C   UNL     1       1.831   9.259  18.210  0.00  0.00    +0.000 C 
ATOM     10  O   UNL     1       2.094   9.670  17.096  0.00  0.00    +0.000 OA
ENDROOT
BRANCH   1  15
ATOM     11  C   UNL     1       3.531   4.667  18.130  0.00  0.00    +0.000 A 
ATOM     12  C   UNL     1       4.505   4.978  17.174  0.00  0.00    +0.000 A 
ATOM     13  C   UNL     1       4.756   6.299  16.840  0.00  0.00    +0.000 A 
ATOM     14  C   UNL     1       4.023   7.321  17.443  0.00  0.00    +0.000 A 
ATOM     15  C   UNL     1       3.013   7.055  18.380  0.00  0.00    +0.000 A 
ATOM     16  C   UNL     1       2.793   5.712  18.735  0.00  0.00    +0.000 A 
BRANCH  11  17
ATOM     17  C   UNL     1       3.353   3.218  18.537  0.00  0.00    +0.000 C 
BRANCH  17  23
ATOM     18  C   UNL     1       0.302   2.874  19.246  0.00  0.00    +0.000 C 
ATOM     19  N   UNL     1       1.415   2.836  20.156  0.00  0.00    +0.000 N 
ATOM     20  C   UNL     1       1.331   2.615  21.497  0.00  0.00    +0.000 A 
ATOM     21  N   UNL     1       2.531   2.640  22.023  0.00  0.00    +0.000 NA
ATOM     22  N   UNL     1       3.423   2.884  21.009  0.00  0.00    +0.000 NA
ATOM     23  C   UNL     1       2.748   3.003  19.881  0.00  0.00    +0.000 A 
ENDBRANCH  17  23
ENDBRANCH  11  17
ENDBRANCH   1  15
BRANCH   8  24
ATOM     24  C   UNL     1      -0.260   9.296  22.612  0.00  0.00    +0.000 C 
ATOM     25  F   UNL     1      -1.017  10.087  23.420  0.00  0.00    +0.000 F 
ATOM     26  F   UNL     1      -0.892   8.093  22.564  0.00  0.00    +0.000 F 
ATOM     27  F   UNL     1       0.905   9.082  23.282  0.00  0.00    +0.000 F 
ENDBRANCH   8  24
TORSDOF 4
ENDMDL
MODEL 5
REMARK VINA RESULT:      -8.5      2.392      3.641
REMARK  Name = 
REMARK  5 active torsions:
REMARK  status: ('A' for Active; 'I' for Inactive)
REMARK    1  A    between atoms: C_1  and  N_2
REMARK    2  A    between atoms: C_6  and  C_7
REMARK    3  A    between atoms: C_7  and  C_8
REMARK    4  A    between atoms: C_12  and  N_13
REMARK    5  A    between atoms: C_20  and  C_21
REMARK                            x       y       z     vdW  Elec       q    Type
REMARK                         _______ _______ _______ _____ _____    ______ ____
ROOT
ATOM      1  N   UNL     1       2.000   7.201  19.716  0.00  0.00    +0.000 N 
ATOM      2  C   UNL     1       1.341   7.626  20.954  0.00  0.00    +0.000 C 
ATOM      3  C   UNL     1       0.943   9.045  20.662  0.00  0.00    +0.000 A 
ATOM      4  C   UNL     1       1.357   9.375  19.381  0.00  0.00    +0.000 A 
ATOM      5  C   UNL     1       1.102  10.606  18.831  0.00  0.00    +0.000 A 
ATOM      6  N   UNL     1       0.440  11.553  19.529  0.00  0.00    +0.000 NA
ATOM      7  C   UNL     1       0.046  11.232  20.794  0.00  0.00    +0.000 A 
ATOM      8  C   UNL     1       0.268   9.999  21.414  0.00  0.00    +0.000 A 
ATOM      9  C   UNL     1       2.036   8.240  18.781  0.00  0.00    +0.000 C 
ATOM     10  O   UNL     1       2.490   8.317  17.655  0.00  0.00    +0.000 OA
ENDROOT
BRANCH   1  15
ATOM     11  C   UNL     1       3.535   4.170  18.078  0.00  0.00    +0.000 A 
ATOM     12  C   UNL     1       3.409   3.235  19.113  0.00  0.00    +0.000 A 
ATOM     13  C   UNL     1       2.786   3.589  20.300  0.00  0.00    +0.000 A 
ATOM     14  C   UNL     1       2.300   4.884  20.471  0.00  0.00    +0.000 A 
ATOM     15  C   UNL     1       2.435   5.865  19.476  0.00  0.00    +0.000 A 
ATOM     16  C   UNL     1       3.038   5.482  18.265  0.00  0.00    +0.000 A 
BRANCH  11  17
ATOM     17  C   UNL     1       4.136   3.717  16.763  0.00  0.00    +0.000 C 
BRANCH  17  23
ATOM     18  C   UNL     1       5.582   4.118  13.993  0.00  0.00    +0.000 C 
ATOM     19  N   UNL     1       6.138   4.332  15.301  0.00  0.00    +0.000 N 
ATOM     20  C   UNL     1       7.399   4.777  15.561  0.00  0.00    +0.000 A 
ATOM     21  N   UNL     1       7.576   4.865  16.857  0.00  0.00    +0.000 NA
ATOM     22  N   UNL     1       6.410   4.469  17.462  0.00  0.00    +0.000 NA
ATOM     23  C   UNL     1       5.541   4.146  16.523  0.00  0.00    +0.000 A 
ENDBRANCH  17  23
ENDBRANCH  11  17
ENDBRANCH   1  15
BRANCH   8  24
ATOM     24  C   UNL     1      -0.215   9.801  22.812  0.00  0.00    +0.000 C 
ATOM     25  F   UNL     1      -0.854  10.888  23.320  0.00  0.00    +0.000 F 
ATOM     26  F   UNL     1      -1.092   8.767  22.915  0.00  0.00    +0.000 F 
ATOM     27  F   UNL     1       0.798   9.522  23.677  0.00  0.00    +0.000 F 
ENDBRANCH   8  24
TORSDOF 4
ENDMDL
MODEL 6
REMARK VINA RESULT:      -8.5      2.334      3.603
REMARK  Name = 
REMARK  5 active torsions:
REMARK  status: ('A' for Active; 'I' for Inactive)
REMARK    1  A    between atoms: C_1  and  N_2
REMARK    2  A    between atoms: C_6  and  C_7
REMARK    3  A    between atoms: C_7  and  C_8
REMARK    4  A    between atoms: C_12  and  N_13
REMARK    5  A    between atoms: C_20  and  C_21
REMARK                            x       y       z     vdW  Elec       q    Type
REMARK                         _______ _______ _______ _____ _____    ______ ____
ROOT
ATOM      1  N   UNL     1       1.913   7.296  20.029  0.00  0.00    +0.000 N 
ATOM      2  C   UNL     1       1.242   7.807  21.226  0.00  0.00    +0.000 C 
ATOM      3  C   UNL     1       0.802   9.183  20.813  0.00  0.00    +0.000 A 
ATOM      4  C   UNL     1       1.205   9.412  19.507  0.00  0.00    +0.000 A 
ATOM      5  C   UNL     1       0.913  10.582  18.852  0.00  0.00    +0.000 A 
ATOM      6  N   UNL     1       0.223  11.566  19.466  0.00  0.00    +0.000 NA
ATOM      7  C   UNL     1      -0.161  11.346  20.756  0.00  0.00    +0.000 A 
ATOM      8  C   UNL     1       0.098  10.178  21.480  0.00  0.00    +0.000 A 
ATOM      9  C   UNL     1       1.918   8.249  19.006  0.00  0.00    +0.000 C 
ATOM     10  O   UNL     1       2.368   8.241  17.876  0.00  0.00    +0.000 OA
ENDROOT
BRANCH   1  15
ATOM     11  C   UNL     1       4.089   4.324  19.216  0.00  0.00    +0.000 A 
ATOM     12  C   UNL     1       3.349   3.299  19.818  0.00  0.00    +0.000 A 
ATOM     13  C   UNL     1       2.138   3.582  20.430  0.00  0.00    +0.000 A 
ATOM     14  C   UNL     1       1.664   4.893  20.464  0.00  0.00    +0.000 A 
ATOM     15  C   UNL     1       2.388   5.957  19.905  0.00  0.00    +0.000 A 
ATOM     16  C   UNL     1       3.598   5.650  19.257  0.00  0.00    +0.000 A 
BRANCH  11  17
ATOM     17  C   UNL     1       5.360   3.960  18.475  0.00  0.00    +0.000 C 
BRANCH  17  23
ATOM     18  C   UNL     1       5.702   6.016  16.112  0.00  0.00    +0.000 C 
ATOM     19  N   UNL     1       6.476   5.947  17.322  0.00  0.00    +0.000 N 
ATOM     20  C   UNL     1       7.488   6.793  17.662  0.00  0.00    +0.000 A 
ATOM     21  N   UNL     1       7.973   6.451  18.831  0.00  0.00    +0.000 NA
ATOM     22  N   UNL     1       7.269   5.357  19.268  0.00  0.00    +0.000 NA
ATOM     23  C   UNL     1       6.364   5.052  18.357  0.00  0.00    +0.000 A 
ENDBRANCH  17  23
ENDBRANCH  11  17
ENDBRANCH   1  15
BRANCH   8  24
ATOM     24  C   UNL     1      -0.378  10.089  22.892  0.00  0.00    +0.000 C 
ATOM     25  F   UNL     1       0.595   9.717  23.766  0.00  0.00    +0.000 F 
ATOM     26  F   UNL     1      -0.862  11.274  23.350  0.00  0.00    +0.000 F 
ATOM     27  F   UNL     1      -1.385   9.187  23.045  0.00  0.00    +0.000 F 
ENDBRANCH   8  24
TORSDOF 4
ENDMDL
MODEL 7
REMARK VINA RESULT:      -8.4      2.458      3.716
REMARK  Name = 
REMARK  5 active torsions:
REMARK  status: ('A' for Active; 'I' for Inactive)
REMARK    1  A    between atoms: C_1  and  N_2
REMARK    2  A    between atoms: C_6  and  C_7
REMARK    3  A    between atoms: C_7  and  C_8
REMARK    4  A    between atoms: C_12  and  N_13
REMARK    5  A    between atoms: C_20  and  C_21
REMARK                            x       y       z     vdW  Elec       q    Type
REMARK                         _______ _______ _______ _____ _____    ______ ____
ROOT
ATOM      1  N   UNL     1       2.094   7.275  19.660  0.00  0.00    +0.000 N 
ATOM      2  C   UNL     1       1.425   7.667  20.903  0.00  0.00    +0.000 C 
ATOM      3  C   UNL     1       0.912   9.046  20.596  0.00  0.00    +0.000 A 
ATOM      4  C   UNL     1       1.277   9.386  19.303  0.00  0.00    +0.000 A 
ATOM      5  C   UNL     1       0.916  10.583  18.738  0.00  0.00    +0.000 A 
ATOM      6  N   UNL     1       0.193  11.487  19.433  0.00  0.00    +0.000 NA
ATOM      7  C   UNL     1      -0.153  11.158  20.710  0.00  0.00    +0.000 A 
ATOM      8  C   UNL     1       0.176   9.956  21.345  0.00  0.00    +0.000 A 
ATOM      9  C   UNL     1       2.033   8.297  18.708  0.00  0.00    +0.000 C 
ATOM     10  O   UNL     1       2.460   8.390  17.573  0.00  0.00    +0.000 OA
ENDROOT
BRANCH   1  15
ATOM     11  C   UNL     1       4.498   4.466  18.911  0.00  0.00    +0.000 A 
ATOM     12  C   UNL     1       3.670   3.360  19.138  0.00  0.00    +0.000 A 
ATOM     13  C   UNL     1       2.339   3.545  19.479  0.00  0.00    +0.000 A 
ATOM     14  C   UNL     1       1.828   4.835  19.616  0.00  0.00    +0.000 A 
ATOM     15  C   UNL     1       2.629   5.973  19.432  0.00  0.00    +0.000 A 
ATOM     16  C   UNL     1       3.968   5.770  19.053  0.00  0.00    +0.000 A 
BRANCH  11  17
ATOM     17  C   UNL     1       5.919   4.223  18.447  0.00  0.00    +0.000 C 
BRANCH  17  23
ATOM     18  C   UNL     1       7.292   6.715  17.094  0.00  0.00    +0.000 C 
ATOM     19  N   UNL     1       6.785   5.541  16.437  0.00  0.00    +0.000 N 
ATOM     20  C   UNL     1       6.840   5.298  15.099  0.00  0.00    +0.000 A 
ATOM     21  N   UNL     1       6.292   4.135  14.839  0.00  0.00    +0.000 NA
ATOM     22  N   UNL     1       5.868   3.602  16.030  0.00  0.00    +0.000 NA
ATOM     23  C   UNL     1       6.165   4.452  16.996  0.00  0.00    +0.000 A 
ENDBRANCH  17  23
ENDBRANCH  11  17
ENDBRANCH   1  15
BRANCH   8  24
ATOM     24  C   UNL     1      -0.266   9.745  22.754  0.00  0.00    +0.000 C 
ATOM     25  F   UNL     1      -0.960  10.797  23.265  0.00  0.00    +0.000 F 
ATOM     26  F   UNL     1      -1.076   8.661  22.885  0.00  0.00    +0.000 F 
ATOM     27  F   UNL     1       0.779   9.538  23.601  0.00  0.00    +0.000 F 
ENDBRANCH   8  24
TORSDOF 4
ENDMDL
MODEL 8
REMARK VINA RESULT:      -8.4      2.516      3.764
REMARK  Name = 
REMARK  5 active torsions:
REMARK  status: ('A' for Active; 'I' for Inactive)
REMARK    1  A    between atoms: C_1  and  N_2
REMARK    2  A    between atoms: C_6  and  C_7
REMARK    3  A    between atoms: C_7  and  C_8
REMARK    4  A    between atoms: C_12  and  N_13
REMARK    5  A    between atoms: C_20  and  C_21
REMARK                            x       y       z     vdW  Elec       q    Type
REMARK                         _______ _______ _______ _____ _____    ______ ____
ROOT
ATOM      1  N   UNL     1       2.180   7.263  19.632  0.00  0.00    +0.000 N 
ATOM      2  C   UNL     1       1.474   7.639  20.859  0.00  0.00    +0.000 C 
ATOM      3  C   UNL     1       0.919   8.998  20.534  0.00  0.00    +0.000 A 
ATOM      4  C   UNL     1       1.296   9.342  19.245  0.00  0.00    +0.000 A 
ATOM      5  C   UNL     1       0.905  10.522  18.665  0.00  0.00    +0.000 A 
ATOM      6  N   UNL     1       0.137  11.404  19.341  0.00  0.00    +0.000 NA
ATOM      7  C   UNL     1      -0.221  11.072  20.613  0.00  0.00    +0.000 A 
ATOM      8  C   UNL     1       0.138   9.886  21.262  0.00  0.00    +0.000 A 
ATOM      9  C   UNL     1       2.101   8.277  18.672  0.00  0.00    +0.000 C 
ATOM     10  O   UNL     1       2.546   8.378  17.544  0.00  0.00    +0.000 OA
ENDROOT
BRANCH   1  15
ATOM     11  C   UNL     1       4.712   4.523  19.078  0.00  0.00    +0.000 A 
ATOM     12  C   UNL     1       3.885   3.396  19.161  0.00  0.00    +0.000 A 
ATOM     13  C   UNL     1       2.519   3.547  19.344  0.00  0.00    +0.000 A 
ATOM     14  C   UNL     1       1.970   4.823  19.465  0.00  0.00    +0.000 A 
ATOM     15  C   UNL     1       2.764   5.979  19.423  0.00  0.00    +0.000 A 
ATOM     16  C   UNL     1       4.143   5.812  19.202  0.00  0.00    +0.000 A 
BRANCH  11  17
ATOM     17  C   UNL     1       6.184   4.319  18.782  0.00  0.00    +0.000 C 
BRANCH  17  23
ATOM     18  C   UNL     1       5.547   3.378  15.843  0.00  0.00    +0.000 C 
ATOM     19  N   UNL     1       6.355   4.499  16.240  0.00  0.00    +0.000 N 
ATOM     20  C   UNL     1       6.970   5.369  15.392  0.00  0.00    +0.000 A 
ATOM     21  N   UNL     1       7.620   6.273  16.084  0.00  0.00    +0.000 NA
ATOM     22  N   UNL     1       7.431   5.992  17.413  0.00  0.00    +0.000 NA
ATOM     23  C   UNL     1       6.667   4.919  17.508  0.00  0.00    +0.000 A 
ENDBRANCH  17  23
ENDBRANCH  11  17
ENDBRANCH   1  15
BRANCH   8  24
ATOM     24  C   UNL     1      -0.323   9.668  22.665  0.00  0.00    +0.000 C 
ATOM     25  F   UNL     1      -1.097  10.680  23.141  0.00  0.00    +0.000 F 
ATOM     26  F   UNL     1      -1.064   8.535  22.795  0.00  0.00    +0.000 F 
ATOM     27  F   UNL     1       0.712   9.543  23.539  0.00  0.00    +0.000 F 
ENDBRANCH   8  24
TORSDOF 4
ENDMDL
MODEL 9
REMARK VINA RESULT:      -8.3      3.983      8.178
REMARK  Name = 
REMARK  5 active torsions:
REMARK  status: ('A' for Active; 'I' for Inactive)
REMARK    1  A    between atoms: C_1  and  N_2
REMARK    2  A    between atoms: C_6  and  C_7
REMARK    3  A    between atoms: C_7  and  C_8
REMARK    4  A    between atoms: C_12  and  N_13
REMARK    5  A    between atoms: C_20  and  C_21
REMARK                            x       y       z     vdW  Elec       q    Type
REMARK                         _______ _______ _______ _____ _____    ______ ____
ROOT
ATOM      1  N   UNL     1       2.445   7.000  19.235  0.00  0.00    +0.000 N 
ATOM      2  C   UNL     1       3.420   7.178  18.156  0.00  0.00    +0.000 C 
ATOM      3  C   UNL     1       3.785   5.768  17.785  0.00  0.00    +0.000 A 
ATOM      4  C   UNL     1       3.081   4.892  18.597  0.00  0.00    +0.000 A 
ATOM      5  C   UNL     1       3.192   3.531  18.463  0.00  0.00    +0.000 A 
ATOM      6  N   UNL     1       4.007   2.991  17.533  0.00  0.00    +0.000 NA
ATOM      7  C   UNL     1       4.710   3.853  16.745  0.00  0.00    +0.000 A 
ATOM      8  C   UNL     1       4.642   5.248  16.824  0.00  0.00    +0.000 A 
ATOM      9  C   UNL     1       2.252   5.645  19.522  0.00  0.00    +0.000 C 
ATOM     10  O   UNL     1       1.553   5.068  20.334  0.00  0.00    +0.000 OA
ENDROOT
BRANCH   1  15
ATOM     11  C   UNL     1       0.359  10.116  19.642  0.00  0.00    +0.000 A 
ATOM     12  C   UNL     1       0.155  10.102  21.027  0.00  0.00    +0.000 A 
ATOM     13  C   UNL     1       0.737   9.114  21.807  0.00  0.00    +0.000 A 
ATOM     14  C   UNL     1       1.511   8.122  21.209  0.00  0.00    +0.000 A 
ATOM     15  C   UNL     1       1.715   8.075  19.821  0.00  0.00    +0.000 A 
ATOM     16  C   UNL     1       1.148   9.103  19.047  0.00  0.00    +0.000 A 
BRANCH  11  17
ATOM     17  C   UNL     1      -0.214  11.265  18.838  0.00  0.00    +0.000 C 
BRANCH  17  23
ATOM     18  C   UNL     1      -2.935  12.487  19.854  0.00  0.00    +0.000 C 
ATOM     19  N   UNL     1      -2.744  11.602  18.736  0.00  0.00    +0.000 N 
ATOM     20  C   UNL     1      -3.725  11.159  17.903  0.00  0.00    +0.000 A 
ATOM     21  N   UNL     1      -3.206  10.373  16.990  0.00  0.00    +0.000 NA
ATOM     22  N   UNL     1      -1.857  10.297  17.229  0.00  0.00    +0.000 NA
ATOM     23  C   UNL     1      -1.577  11.038  18.284  0.00  0.00    +0.000 A 
ENDBRANCH  17  23
ENDBRANCH  11  17
ENDBRANCH   1  15
BRANCH   8  24
ATOM     24  C   UNL     1       5.483   6.061  15.898  0.00  0.00    +0.000 C 
ATOM     25  F   UNL     1       4.774   6.982  15.193  0.00  0.00    +0.000 F 
ATOM     26  F   UNL     1       6.452   6.754  16.554  0.00  0.00    +0.000 F 
ATOM     27  F   UNL     1       6.128   5.297  14.974  0.00  0.00    +0.000 F 
ENDBRANCH   8  24
TORSDOF 4
ENDMDL
