MODEL 1
REMARK VINA RESULT:      -8.7      0.000      0.000
REMARK  Name = 
REMARK  4 active torsions:
REMARK  status: ('A' for Active; 'I' for Inactive)
REMARK    1  A    between atoms: C_1  and  C_2
REMARK    2  A    between atoms: C_7  and  C_8
REMARK    3  A    between atoms: C_14  and  C_15
REMARK    4  A    between atoms: C_28  and  C_29
REMARK                            x       y       z     vdW  Elec       q    Type
REMARK                         _______ _______ _______ _____ _____    ______ ____
ROOT
ATOM      1  C   UNL     1       1.190   9.550  19.781  0.00  0.00    +0.000 C 
ATOM      2  O   UNL     1       0.992  10.265  18.796  0.00  0.00    +0.000 OA
ATOM      3  N   UNL     1       0.755   9.962  21.042  0.00  0.00    +0.000 N 
ATOM      4  C   UNL     1       0.763   9.260  22.316  0.00  0.00    +0.000 C 
ATOM      5  C   UNL     1      -0.464   9.744  23.057  0.00  0.00    +0.000 C 
ATOM      6  C   UNL     1      -0.660  11.166  22.570  0.00  0.00    +0.000 C 
ATOM      7  C   UNL     1      -0.061  11.173  21.153  0.00  0.00    +0.000 C 
ENDROOT
BRANCH   1  14
ATOM      8  C   UNL     1       3.406   2.009  18.971  0.00  0.00    +0.000 C 
ATOM      9  C   UNL     1       2.888   3.368  19.332  0.00  0.00    +0.000 A 
ATOM     10  N   UNL     1       3.093   4.365  18.429  0.00  0.00    +0.000 NA
ATOM     11  C   UNL     1       2.702   5.607  18.783  0.00  0.00    +0.000 A 
ATOM     12  C   UNL     1       2.842   6.685  17.917  0.00  0.00    +0.000 A 
ATOM     13  C   UNL     1       2.383   7.964  18.267  0.00  0.00    +0.000 A 
ATOM     14  C   UNL     1       1.809   8.200  19.524  0.00  0.00    +0.000 A 
ATOM     15  C   UNL     1       1.801   7.139  20.424  0.00  0.00    +0.000 A 
ATOM     16  C   UNL     1       2.145   5.850  20.052  0.00  0.00    +0.000 A 
ATOM     17  N   UNL     1       1.914   4.861  20.928  0.00  0.00    +0.000 NA
ATOM     18  C   UNL     1       2.264   3.608  20.556  0.00  0.00    +0.000 A 
ATOM     19  C   UNL     1       1.957   2.520  21.538  0.00  0.00    +0.000 C 
ENDBRANCH   1  14
BRANCH   7  20
ATOM     20  C   UNL     1       0.731  12.431  20.935  0.00  0.00    +0.000 A 
ATOM     21  N   UNL     1       2.002  12.609  21.243  0.00  0.00    +0.000 NA
ATOM     22  N   UNL     1       2.316  13.927  21.046  0.00  0.00    +0.000 NA
ATOM     23  C   UNL     1       1.245  14.547  20.595  0.00  0.00    +0.000 A 
ATOM     24  N   UNL     1       0.224  13.630  20.481  0.00  0.00    +0.000 N 
ATOM     25  C   UNL     1      -1.121  13.893  20.010  0.00  0.00    +0.000 C 
ATOM     26  C   UNL     1      -1.722  15.174  20.579  0.00  0.00    +0.000 C 
ATOM     27  C   UNL     1      -1.307  16.427  19.812  0.00  0.00    +0.000 C 
ATOM     28  C   UNL     1       0.131  16.433  19.290  0.00  0.00    +0.000 C 
ATOM     29  C   UNL     1       1.166  16.017  20.328  0.00  0.00    +0.000 C 
ENDBRANCH   7  20
TORSDOF 2
ENDMDL
MODEL 2
REMARK VINA RESULT:      -8.5      2.625      3.828
REMARK  Name = 
REMARK  4 active torsions:
REMARK  status: ('A' for Active; 'I' for Inactive)
REMARK    1  A    between atoms: C_1  and  C_2
REMARK    2  A    between atoms: C_7  and  C_8
REMARK    3  A    between atoms: C_14  and  C_15
REMARK    4  A    between atoms: C_28  and  C_29
REMARK                            x       y       z     vdW  Elec       q    Type
REMARK                         _______ _______ _______ _____ _____    ______ ____
ROOT
ATOM      1  C   UNL     1       0.428   9.958  20.133  0.00  0.00    +0.000 C 
ATOM      2  O   UNL     1      -0.406   9.808  21.029  0.00  0.00    +0.000 OA
ATOM      3  N   UNL     1       0.618  11.217  19.559  0.00  0.00    +0.000 N 
ATOM      4  C   UNL     1       1.601  11.670  18.588  0.00  0.00    +0.000 C 
ATOM      5  C   UNL     1       1.889  13.114  18.941  0.00  0.00    +0.000 C 
ATOM      6  C   UNL     1       0.587  13.622  19.529  0.00  0.00    +0.000 C 
ATOM      7  C   UNL     1      -0.077  12.372  20.132  0.00  0.00    +0.000 C 
ENDROOT
BRANCH   1  14
ATOM      8  C   UNL     1       3.949   3.006  18.824  0.00  0.00    +0.000 C 
ATOM      9  C   UNL     1       3.198   4.223  19.273  0.00  0.00    +0.000 A 
ATOM     10  N   UNL     1       3.223   5.302  18.445  0.00  0.00    +0.000 NA
ATOM     11  C   UNL     1       2.617   6.427  18.880  0.00  0.00    +0.000 A 
ATOM     12  C   UNL     1       2.564   7.572  18.093  0.00  0.00    +0.000 A 
ATOM     13  C   UNL     1       1.885   8.721  18.526  0.00  0.00    +0.000 A 
ATOM     14  C   UNL     1       1.278   8.762  19.790  0.00  0.00    +0.000 A 
ATOM     15  C   UNL     1       1.458   7.654  20.613  0.00  0.00    +0.000 A 
ATOM     16  C   UNL     1       2.026   6.476  20.155  0.00  0.00    +0.000 A 
ATOM     17  N   UNL     1       1.975   5.402  20.956  0.00  0.00    +0.000 NA
ATOM     18  C   UNL     1       2.541   4.261  20.502  0.00  0.00    +0.000 A 
ATOM     19  C   UNL     1       2.432   3.068  21.402  0.00  0.00    +0.000 C 
ENDBRANCH   1  14
BRANCH   7  20
ATOM     20  C   UNL     1      -1.548  12.376  19.831  0.00  0.00    +0.000 A 
ATOM     21  N   UNL     1      -2.505  12.774  20.649  0.00  0.00    +0.000 NA
ATOM     22  N   UNL     1      -3.714  12.473  20.081  0.00  0.00    +0.000 NA
ATOM     23  C   UNL     1      -3.496  11.914  18.908  0.00  0.00    +0.000 A 
ATOM     24  N   UNL     1      -2.137  11.860  18.696  0.00  0.00    +0.000 N 
ATOM     25  C   UNL     1      -1.470  11.332  17.523  0.00  0.00    +0.000 C 
ATOM     26  C   UNL     1      -2.059  10.013  17.034  0.00  0.00    +0.000 C 
ATOM     27  C   UNL     1      -3.284  10.195  16.141  0.00  0.00    +0.000 C 
ATOM     28  C   UNL     1      -4.217  11.343  16.530  0.00  0.00    +0.000 C 
ATOM     29  C   UNL     1      -4.568  11.378  18.013  0.00  0.00    +0.000 C 
ENDBRANCH   7  20
TORSDOF 2
ENDMDL
MODEL 3
REMARK VINA RESULT:      -8.5      1.967      3.199
REMARK  Name = 
REMARK  4 active torsions:
REMARK  status: ('A' for Active; 'I' for Inactive)
REMARK    1  A    between atoms: C_1  and  C_2
REMARK    2  A    between atoms: C_7  and  C_8
REMARK    3  A    between atoms: C_14  and  C_15
REMARK    4  A    between atoms: C_28  and  C_29
REMARK                            x       y       z     vdW  Elec       q    Type
REMARK                         _______ _______ _______ _____ _____    ______ ____
ROOT
ATOM      1  C   UNL     1       1.023   9.568  20.235  0.00  0.00    +0.000 C 
ATOM      2  O   UNL     1       0.449   9.602  21.326  0.00  0.00    +0.000 OA
ATOM      3  N   UNL     1       1.138  10.730  19.469  0.00  0.00    +0.000 N 
ATOM      4  C   UNL     1       1.856  10.972  18.228  0.00  0.00    +0.000 C 
ATOM      5  C   UNL     1       2.325  12.409  18.301  0.00  0.00    +0.000 C 
ATOM      6  C   UNL     1       1.265  13.108  19.129  0.00  0.00    +0.000 C 
ATOM      7  C   UNL     1       0.702  12.006  20.042  0.00  0.00    +0.000 C 
ENDROOT
BRANCH   1  14
ATOM      8  C   UNL     1       3.426   2.180  18.790  0.00  0.00    +0.000 C 
ATOM      9  C   UNL     1       2.891   3.494  19.274  0.00  0.00    +0.000 A 
ATOM     10  N   UNL     1       2.991   4.550  18.422  0.00  0.00    +0.000 NA
ATOM     11  C   UNL     1       2.587   5.753  18.881  0.00  0.00    +0.000 A 
ATOM     12  C   UNL     1       2.623   6.885  18.076  0.00  0.00    +0.000 A 
ATOM     13  C   UNL     1       2.149   8.123  18.538  0.00  0.00    +0.000 A 
ATOM     14  C   UNL     1       1.666   8.261  19.848  0.00  0.00    +0.000 A 
ATOM     15  C   UNL     1       1.764   7.148  20.678  0.00  0.00    +0.000 A 
ATOM     16  C   UNL     1       2.122   5.898  20.201  0.00  0.00    +0.000 A 
ATOM     17  N   UNL     1       1.994   4.850  21.028  0.00  0.00    +0.000 NA
ATOM     18  C   UNL     1       2.356   3.636  20.554  0.00  0.00    +0.000 A 
ATOM     19  C   UNL     1       2.163   2.481  21.486  0.00  0.00    +0.000 C 
ENDBRANCH   1  14
BRANCH   7  20
ATOM     20  C   UNL     1      -0.793  12.124  20.130  0.00  0.00    +0.000 A 
ATOM     21  N   UNL     1      -1.636  12.047  19.118  0.00  0.00    +0.000 NA
ATOM     22  N   UNL     1      -2.889  12.366  19.572  0.00  0.00    +0.000 NA
ATOM     23  C   UNL     1      -2.814  12.612  20.863  0.00  0.00    +0.000 A 
ATOM     24  N   UNL     1      -1.507  12.442  21.265  0.00  0.00    +0.000 N 
ATOM     25  C   UNL     1      -0.994  12.602  22.611  0.00  0.00    +0.000 C 
ATOM     26  C   UNL     1      -1.530  13.841  23.320  0.00  0.00    +0.000 C 
ATOM     27  C   UNL     1      -2.895  13.622  23.967  0.00  0.00    +0.000 C 
ATOM     28  C   UNL     1      -3.855  12.721  23.188  0.00  0.00    +0.000 C 
ATOM     29  C   UNL     1      -3.962  13.067  21.708  0.00  0.00    +0.000 C 
ENDBRANCH   7  20
TORSDOF 2
ENDMDL
MODEL 4
REMARK VINA RESULT:      -8.3      1.967      2.753
REMARK  Name = 
REMARK  4 active torsions:
REMARK  status: ('A' for Active; 'I' for Inactive)
REMARK    1  A    between atoms: C_1  and  C_2
REMARK    2  A    between atoms: C_7  and  C_8
REMARK    3  A    between atoms: C_14  and  C_15
REMARK    4  A    between atoms: C_28  and  C_29
REMARK                            x       y       z     vdW  Elec       q    Type
REMARK                         _______ _______ _______ _____ _____    ______ ____
ROOT
ATOM      1  C   UNL     1       0.836  10.483  18.888  0.00  0.00    +0.000 C 
ATOM      2  O   UNL     1       1.434  11.503  19.241  0.00  0.00    +0.000 OA
ATOM      3  N   UNL     1      -0.478  10.568  18.426  0.00  0.00    +0.000 N 
ATOM      4  C   UNL     1      -1.342   9.549  17.854  0.00  0.00    +0.000 C 
ATOM      5  C   UNL     1      -2.210  10.268  16.843  0.00  0.00    +0.000 C 
ATOM      6  C   UNL     1      -2.360  11.667  17.407  0.00  0.00    +0.000 C 
ATOM      7  C   UNL     1      -1.080  11.890  18.230  0.00  0.00    +0.000 C 
ENDROOT
BRANCH   1  14
ATOM      8  C   UNL     1       3.940   3.227  19.283  0.00  0.00    +0.000 C 
ATOM      9  C   UNL     1       3.229   4.541  19.405  0.00  0.00    +0.000 A 
ATOM     10  N   UNL     1       3.473   5.465  18.437  0.00  0.00    +0.000 NA
ATOM     11  C   UNL     1       2.900   6.678  18.584  0.00  0.00    +0.000 A 
ATOM     12  C   UNL     1       3.066   7.678  17.634  0.00  0.00    +0.000 A 
ATOM     13  C   UNL     1       2.423   8.919  17.762  0.00  0.00    +0.000 A 
ATOM     14  C   UNL     1       1.629   9.201  18.883  0.00  0.00    +0.000 A 
ATOM     15  C   UNL     1       1.585   8.237  19.886  0.00  0.00    +0.000 A 
ATOM     16  C   UNL     1       2.120   6.970  19.718  0.00  0.00    +0.000 A 
ATOM     17  N   UNL     1       1.854   6.048  20.654  0.00  0.00    +0.000 NA
ATOM     18  C   UNL     1       2.390   4.817  20.485  0.00  0.00    +0.000 A 
ATOM     19  C   UNL     1       2.043   3.798  21.525  0.00  0.00    +0.000 C 
ENDBRANCH   1  14
BRANCH   7  20
ATOM     20  C   UNL     1      -1.412  12.577  19.523  0.00  0.00    +0.000 A 
ATOM     21  N   UNL     1      -2.223  12.117  20.457  0.00  0.00    +0.000 NA
ATOM     22  N   UNL     1      -2.397  13.095  21.401  0.00  0.00    +0.000 NA
ATOM     23  C   UNL     1      -1.673  14.140  21.056  0.00  0.00    +0.000 A 
ATOM     24  N   UNL     1      -1.008  13.844  19.886  0.00  0.00    +0.000 N 
ATOM     25  C   UNL     1      -0.096  14.714  19.171  0.00  0.00    +0.000 C 
ATOM     26  C   UNL     1      -0.592  16.152  19.061  0.00  0.00    +0.000 C 
ATOM     27  C   UNL     1      -0.279  16.993  20.296  0.00  0.00    +0.000 C 
ATOM     28  C   UNL     1      -0.378  16.259  21.635  0.00  0.00    +0.000 C 
ATOM     29  C   UNL     1      -1.653  15.439  21.796  0.00  0.00    +0.000 C 
ENDBRANCH   7  20
TORSDOF 2
ENDMDL
MODEL 5
REMARK VINA RESULT:      -8.3      1.016      1.118
REMARK  Name = 
REMARK  4 active torsions:
REMARK  status: ('A' for Active; 'I' for Inactive)
REMARK    1  A    between atoms: C_1  and  C_2
REMARK    2  A    between atoms: C_7  and  C_8
REMARK    3  A    between atoms: C_14  and  C_15
REMARK    4  A    between atoms: C_28  and  C_29
REMARK                            x       y       z     vdW  Elec       q    Type
REMARK                         _______ _______ _______ _____ _____    ______ ____
ROOT
ATOM      1  C   UNL     1       0.777  10.075  19.840  0.00  0.00    +0.000 C 
ATOM      2  O   UNL     1       0.354  10.812  18.946  0.00  0.00    +0.000 OA
ATOM      3  N   UNL     1       0.413  10.308  21.167  0.00  0.00    +0.000 N 
ATOM      4  C   UNL     1       0.679   9.530  22.366  0.00  0.00    +0.000 C 
ATOM      5  C   UNL     1      -0.529   9.728  23.258  0.00  0.00    +0.000 C 
ATOM      6  C   UNL     1      -1.019  11.122  22.921  0.00  0.00    +0.000 C 
ATOM      7  C   UNL     1      -0.584  11.340  21.461  0.00  0.00    +0.000 C 
ENDROOT
BRANCH   1  14
ATOM      8  C   UNL     1       4.118   3.139  18.059  0.00  0.00    +0.000 C 
ATOM      9  C   UNL     1       3.406   4.344  18.595  0.00  0.00    +0.000 A 
ATOM     10  N   UNL     1       3.421   5.463  17.821  0.00  0.00    +0.000 NA
ATOM     11  C   UNL     1       2.853   6.575  18.334  0.00  0.00    +0.000 A 
ATOM     12  C   UNL     1       2.793   7.758  17.607  0.00  0.00    +0.000 A 
ATOM     13  C   UNL     1       2.151   8.895  18.121  0.00  0.00    +0.000 A 
ATOM     14  C   UNL     1       1.591   8.883  19.407  0.00  0.00    +0.000 A 
ATOM     15  C   UNL     1       1.780   7.733  20.167  0.00  0.00    +0.000 A 
ATOM     16  C   UNL     1       2.310   6.570  19.631  0.00  0.00    +0.000 A 
ATOM     17  N   UNL     1       2.267   5.458  20.379  0.00  0.00    +0.000 NA
ATOM     18  C   UNL     1       2.795   4.331  19.849  0.00  0.00    +0.000 A 
ATOM     19  C   UNL     1       2.696   3.097  20.692  0.00  0.00    +0.000 C 
ENDBRANCH   1  14
BRANCH   7  20
ATOM     20  C   UNL     1      -0.051  12.733  21.286  0.00  0.00    +0.000 A 
ATOM     21  N   UNL     1       1.190  13.121  21.513  0.00  0.00    +0.000 NA
ATOM     22  N   UNL     1       1.246  14.485  21.398  0.00  0.00    +0.000 NA
ATOM     23  C   UNL     1       0.047  14.925  21.078  0.00  0.00    +0.000 A 
ATOM     24  N   UNL     1      -0.801  13.845  20.967  0.00  0.00    +0.000 N 
ATOM     25  C   UNL     1      -2.206  13.887  20.618  0.00  0.00    +0.000 C 
ATOM     26  C   UNL     1      -2.974  14.996  21.330  0.00  0.00    +0.000 C 
ATOM     27  C   UNL     1      -2.858  16.351  20.636  0.00  0.00    +0.000 C 
ATOM     28  C   UNL     1      -1.495  16.654  20.011  0.00  0.00    +0.000 C 
ATOM     29  C   UNL     1      -0.316  16.370  20.934  0.00  0.00    +0.000 C 
ENDBRANCH   7  20
TORSDOF 2
ENDMDL
MODEL 6
REMARK VINA RESULT:      -8.2      2.390      3.517
REMARK  Name = 
REMARK  4 active torsions:
REMARK  status: ('A' for Active; 'I' for Inactive)
REMARK    1  A    between atoms: C_1  and  C_2
REMARK    2  A    between atoms: C_7  and  C_8
REMARK    3  A    between atoms: C_14  and  C_15
REMARK    4  A    between atoms: C_28  and  C_29
REMARK                            x       y       z     vdW  Elec       q    Type
REMARK                         _______ _______ _______ _____ _____    ______ ____
ROOT
ATOM      1  C   UNL     1       0.448   9.937  20.524  0.00  0.00    +0.000 C 
ATOM      2  O   UNL     1      -0.409   9.505  21.299  0.00  0.00    +0.000 OA
ATOM      3  N   UNL     1       0.639  11.314  20.390  0.00  0.00    +0.000 N 
ATOM      4  C   UNL     1       1.642  12.056  19.646  0.00  0.00    +0.000 C 
ATOM      5  C   UNL     1       1.903  13.311  20.451  0.00  0.00    +0.000 C 
ATOM      6  C   UNL     1       0.580  13.601  21.131  0.00  0.00    +0.000 C 
ATOM      7  C   UNL     1      -0.086  12.223  21.281  0.00  0.00    +0.000 C 
ENDROOT
BRANCH   1  14
ATOM      8  C   UNL     1       4.255   3.732  17.452  0.00  0.00    +0.000 C 
ATOM      9  C   UNL     1       3.496   4.767  18.225  0.00  0.00    +0.000 A 
ATOM     10  N   UNL     1       3.280   5.960  17.608  0.00  0.00    +0.000 NA
ATOM     11  C   UNL     1       2.669   6.925  18.328  0.00  0.00    +0.000 A 
ATOM     12  C   UNL     1       2.379   8.166  17.776  0.00  0.00    +0.000 A 
ATOM     13  C   UNL     1       1.693   9.147  18.509  0.00  0.00    +0.000 A 
ATOM     14  C   UNL     1       1.321   8.915  19.842  0.00  0.00    +0.000 A 
ATOM     15  C   UNL     1       1.739   7.718  20.415  0.00  0.00    +0.000 A 
ATOM     16  C   UNL     1       2.314   6.701  19.670  0.00  0.00    +0.000 A 
ATOM     17  N   UNL     1       2.498   5.514  20.266  0.00  0.00    +0.000 NA
ATOM     18  C   UNL     1       3.069   4.532  19.532  0.00  0.00    +0.000 A 
ATOM     19  C   UNL     1       3.224   3.207  20.211  0.00  0.00    +0.000 C 
ENDBRANCH   1  14
BRANCH   7  20
ATOM     20  C   UNL     1      -1.548  12.319  20.953  0.00  0.00    +0.000 A 
ATOM     21  N   UNL     1      -2.080  12.217  19.750  0.00  0.00    +0.000 NA
ATOM     22  N   UNL     1      -3.413  12.521  19.837  0.00  0.00    +0.000 NA
ATOM     23  C   UNL     1      -3.698  12.783  21.095  0.00  0.00    +0.000 A 
ATOM     24  N   UNL     1      -2.551  12.638  21.843  0.00  0.00    +0.000 N 
ATOM     25  C   UNL     1      -2.429  12.822  23.276  0.00  0.00    +0.000 C 
ATOM     26  C   UNL     1      -3.155  14.060  23.791  0.00  0.00    +0.000 C 
ATOM     27  C   UNL     1      -4.643  13.827  24.041  0.00  0.00    +0.000 C 
ATOM     28  C   UNL     1      -5.340  12.902  23.043  0.00  0.00    +0.000 C 
ATOM     29  C   UNL     1      -5.040  13.229  21.585  0.00  0.00    +0.000 C 
ENDBRANCH   7  20
TORSDOF 2
ENDMDL
MODEL 7
REMARK VINA RESULT:      -8.1      2.748      4.321
REMARK  Name = 
REMARK  4 active torsions:
REMARK  status: ('A' for Active; 'I' for Inactive)
REMARK    1  A    between atoms: C_1  and  C_2
REMARK    2  A    between atoms: C_7  and  C_8
REMARK    3  A    between atoms: C_14  and  C_15
REMARK    4  A    between atoms: C_28  and  C_29
REMARK                            x       y       z     vdW  Elec       q    Type
REMARK                         _______ _______ _______ _____ _____    ______ ____
ROOT
ATOM      1  C   UNL     1       0.361   9.996  20.310  0.00  0.00    +0.000 C 
ATOM      2  O   UNL     1      -0.405   9.930  21.274  0.00  0.00    +0.000 OA
ATOM      3  N   UNL     1       0.569  11.216  19.664  0.00  0.00    +0.000 N 
ATOM      4  C   UNL     1       1.493  11.572  18.600  0.00  0.00    +0.000 C 
ATOM      5  C   UNL     1       1.883  13.011  18.862  0.00  0.00    +0.000 C 
ATOM      6  C   UNL     1       0.661  13.616  19.525  0.00  0.00    +0.000 C 
ATOM      7  C   UNL     1      -0.016  12.432  20.235  0.00  0.00    +0.000 C 
ENDROOT
BRANCH   1  14
ATOM      8  C   UNL     1       5.194   4.184  18.007  0.00  0.00    +0.000 C 
ATOM      9  C   UNL     1       4.353   5.401  18.246  0.00  0.00    +0.000 A 
ATOM     10  N   UNL     1       3.609   5.420  19.385  0.00  0.00    +0.000 NA
ATOM     11  C   UNL     1       2.787   6.475  19.567  0.00  0.00    +0.000 A 
ATOM     12  C   UNL     1       2.009   6.599  20.712  0.00  0.00    +0.000 A 
ATOM     13  C   UNL     1       1.199   7.725  20.923  0.00  0.00    +0.000 A 
ATOM     14  C   UNL     1       1.116   8.740  19.958  0.00  0.00    +0.000 A 
ATOM     15  C   UNL     1       1.799   8.532  18.763  0.00  0.00    +0.000 A 
ATOM     16  C   UNL     1       2.688   7.483  18.591  0.00  0.00    +0.000 A 
ATOM     17  N   UNL     1       3.446   7.480  17.485  0.00  0.00    +0.000 NA
ATOM     18  C   UNL     1       4.303   6.445  17.323  0.00  0.00    +0.000 A 
ATOM     19  C   UNL     1       5.165   6.490  16.100  0.00  0.00    +0.000 C 
ENDBRANCH   1  14
BRANCH   7  20
ATOM     20  C   UNL     1      -1.505  12.504  20.050  0.00  0.00    +0.000 A 
ATOM     21  N   UNL     1      -2.377  12.924  20.947  0.00  0.00    +0.000 NA
ATOM     22  N   UNL     1      -3.639  12.687  20.470  0.00  0.00    +0.000 NA
ATOM     23  C   UNL     1      -3.537  12.147  19.273  0.00  0.00    +0.000 A 
ATOM     24  N   UNL     1      -2.201  12.040  18.955  0.00  0.00    +0.000 N 
ATOM     25  C   UNL     1      -1.651  11.510  17.723  0.00  0.00    +0.000 C 
ATOM     26  C   UNL     1      -2.334  10.229  17.256  0.00  0.00    +0.000 C 
ATOM     27  C   UNL     1      -3.614  10.482  16.465  0.00  0.00    +0.000 C 
ATOM     28  C   UNL     1      -4.463  11.660  16.948  0.00  0.00    +0.000 C 
ATOM     29  C   UNL     1      -4.697  11.676  18.454  0.00  0.00    +0.000 C 
ENDBRANCH   7  20
TORSDOF 2
ENDMDL
MODEL 8
REMARK VINA RESULT:      -8.1      2.393      3.973
REMARK  Name = 
REMARK  4 active torsions:
REMARK  status: ('A' for Active; 'I' for Inactive)
REMARK    1  A    between atoms: C_1  and  C_2
REMARK    2  A    between atoms: C_7  and  C_8
REMARK    3  A    between atoms: C_14  and  C_15
REMARK    4  A    between atoms: C_28  and  C_29
REMARK                            x       y       z     vdW  Elec       q    Type
REMARK                         _______ _______ _______ _____ _____    ______ ____
ROOT
ATOM      1  C   UNL     1       0.616   9.848  20.540  0.00  0.00    +0.000 C 
ATOM      2  O   UNL     1       0.034   9.793  21.626  0.00  0.00    +0.000 OA
ATOM      3  N   UNL     1       0.736  11.069  19.873  0.00  0.00    +0.000 N 
ATOM      4  C   UNL     1       1.463  11.412  18.661  0.00  0.00    +0.000 C 
ATOM      5  C   UNL     1       1.930  12.838  18.855  0.00  0.00    +0.000 C 
ATOM      6  C   UNL     1       0.864  13.467  19.729  0.00  0.00    +0.000 C 
ATOM      7  C   UNL     1       0.294  12.294  20.545  0.00  0.00    +0.000 C 
ENDROOT
BRANCH   1  14
ATOM      8  C   UNL     1       4.960   3.923  17.631  0.00  0.00    +0.000 C 
ATOM      9  C   UNL     1       4.226   5.176  18.001  0.00  0.00    +0.000 A 
ATOM     10  N   UNL     1       3.460   5.132  19.125  0.00  0.00    +0.000 NA
ATOM     11  C   UNL     1       2.733   6.230  19.419  0.00  0.00    +0.000 A 
ATOM     12  C   UNL     1       1.943   6.291  20.561  0.00  0.00    +0.000 A 
ATOM     13  C   UNL     1       1.233   7.455  20.893  0.00  0.00    +0.000 A 
ATOM     14  C   UNL     1       1.264   8.578  20.053  0.00  0.00    +0.000 A 
ATOM     15  C   UNL     1       1.952   8.447  18.850  0.00  0.00    +0.000 A 
ATOM     16  C   UNL     1       2.746   7.348  18.567  0.00  0.00    +0.000 A 
ATOM     17  N   UNL     1       3.526   7.403  17.478  0.00  0.00    +0.000 NA
ATOM     18  C   UNL     1       4.291   6.320  17.206  0.00  0.00    +0.000 A 
ATOM     19  C   UNL     1       5.181   6.426  16.007  0.00  0.00    +0.000 C 
ENDBRANCH   1  14
BRANCH   7  20
ATOM     20  C   UNL     1      -1.201  12.404  20.631  0.00  0.00    +0.000 A 
ATOM     21  N   UNL     1      -2.043  12.314  19.619  0.00  0.00    +0.000 NA
ATOM     22  N   UNL     1      -3.298  12.629  20.069  0.00  0.00    +0.000 NA
ATOM     23  C   UNL     1      -3.225  12.886  21.358  0.00  0.00    +0.000 A 
ATOM     24  N   UNL     1      -1.918  12.726  21.763  0.00  0.00    +0.000 N 
ATOM     25  C   UNL     1      -1.407  12.900  23.108  0.00  0.00    +0.000 C 
ATOM     26  C   UNL     1      -1.951  14.141  23.807  0.00  0.00    +0.000 C 
ATOM     27  C   UNL     1      -3.315  13.919  24.455  0.00  0.00    +0.000 C 
ATOM     28  C   UNL     1      -4.269  13.006  23.682  0.00  0.00    +0.000 C 
ATOM     29  C   UNL     1      -4.377  13.340  22.199  0.00  0.00    +0.000 C 
ENDBRANCH   7  20
TORSDOF 2
ENDMDL
MODEL 9
REMARK VINA RESULT:      -8.1      1.267      2.063
REMARK  Name = 
REMARK  4 active torsions:
REMARK  status: ('A' for Active; 'I' for Inactive)
REMARK    1  A    between atoms: C_1  and  C_2
REMARK    2  A    between atoms: C_7  and  C_8
REMARK    3  A    between atoms: C_14  and  C_15
REMARK    4  A    between atoms: C_28  and  C_29
REMARK                            x       y       z     vdW  Elec       q    Type
REMARK                         _______ _______ _______ _____ _____    ______ ____
ROOT
ATOM      1  C   UNL     1       1.158  10.026  19.759  0.00  0.00    +0.000 C 
ATOM      2  O   UNL     1       1.212  10.692  18.723  0.00  0.00    +0.000 OA
ATOM      3  N   UNL     1       0.671  10.601  20.935  0.00  0.00    +0.000 N 
ATOM      4  C   UNL     1       0.403  10.004  22.233  0.00  0.00    +0.000 C 
ATOM      5  C   UNL     1      -0.785  10.758  22.792  0.00  0.00    +0.000 C 
ATOM      6  C   UNL     1      -0.649  12.153  22.213  0.00  0.00    +0.000 C 
ATOM      7  C   UNL     1       0.095  11.947  20.883  0.00  0.00    +0.000 C 
ENDROOT
BRANCH   1  14
ATOM      8  C   UNL     1       4.198   2.810  18.694  0.00  0.00    +0.000 C 
ATOM      9  C   UNL     1       3.734   4.235  18.691  0.00  0.00    +0.000 A 
ATOM     10  N   UNL     1       2.983   4.640  19.751  0.00  0.00    +0.000 NA
ATOM     11  C   UNL     1       2.494   5.897  19.716  0.00  0.00    +0.000 A 
ATOM     12  C   UNL     1       1.741   6.411  20.765  0.00  0.00    +0.000 A 
ATOM     13  C   UNL     1       1.282   7.737  20.750  0.00  0.00    +0.000 A 
ATOM     14  C   UNL     1       1.533   8.570  19.649  0.00  0.00    +0.000 A 
ATOM     15  C   UNL     1       2.172   7.995  18.555  0.00  0.00    +0.000 A 
ATOM     16  C   UNL     1       2.727   6.727  18.604  0.00  0.00    +0.000 A 
ATOM     17  N   UNL     1       3.495   6.338  17.576  0.00  0.00    +0.000 NA
ATOM     18  C   UNL     1       4.023   5.094  17.631  0.00  0.00    +0.000 A 
ATOM     19  C   UNL     1       4.908   4.703  16.488  0.00  0.00    +0.000 C 
ENDBRANCH   1  14
BRANCH   7  20
ATOM     20  C   UNL     1       1.131  13.018  20.702  0.00  0.00    +0.000 A 
ATOM     21  N   UNL     1       2.290  13.088  21.330  0.00  0.00    +0.000 NA
ATOM     22  N   UNL     1       2.879  14.286  21.021  0.00  0.00    +0.000 NA
ATOM     23  C   UNL     1       2.093  14.933  20.186  0.00  0.00    +0.000 A 
ATOM     24  N   UNL     1       0.987  14.153  19.932  0.00  0.00    +0.000 N 
ATOM     25  C   UNL     1      -0.118  14.486  19.057  0.00  0.00    +0.000 C 
ATOM     26  C   UNL     1      -0.602  15.924  19.212  0.00  0.00    +0.000 C 
ATOM     27  C   UNL     1       0.218  16.927  18.405  0.00  0.00    +0.000 C 
ATOM     28  C   UNL     1       1.718  16.637  18.326  0.00  0.00    +0.000 C 
ATOM     29  C   UNL     1       2.356  16.313  19.672  0.00  0.00    +0.000 C 
ENDBRANCH   7  20
TORSDOF 2
ENDMDL
