MODEL 1
REMARK VINA RESULT:      -9.1      0.000      0.000
REMARK  Name = 
REMARK  3 active torsions:
REMARK  status: ('A' for Active; 'I' for Inactive)
REMARK    1  A    between atoms: C_1  and  N_2
REMARK    2  A    between atoms: C_9  and  C_10
REMARK    3  A    between atoms: C_14  and  C_15
REMARK                            x       y       z     vdW  Elec       q    Type
REMARK                         _______ _______ _______ _____ _____    ______ ____
ROOT
ATOM      1  C   UNL     1       3.224   7.443  17.716  0.00  0.00    +0.000 A 
ATOM      2  C   UNL     1       4.433   7.717  17.050  0.00  0.00    +0.000 A 
ATOM      3  C   UNL     1       5.229   6.696  16.516  0.00  0.00    +0.000 A 
ATOM      4  C   UNL     1       4.839   5.366  16.625  0.00  0.00    +0.000 A 
ATOM      5  C   UNL     1       3.650   5.049  17.276  0.00  0.00    +0.000 A 
ATOM      6  C   UNL     1       2.846   6.089  17.806  0.00  0.00    +0.000 A 
ENDROOT
BRANCH   1  15
ATOM      7  C   UNL     1      -0.319   8.469  21.937  0.00  0.00    +0.000 C 
ATOM      8  N   UNL     1       0.019   9.517  21.020  0.00  0.00    +0.000 N 
ATOM      9  C   UNL     1      -0.457  10.843  21.066  0.00  0.00    +0.000 A 
ATOM     10  O   UNL     1      -1.230  11.327  21.874  0.00  0.00    +0.000 OA
ATOM     11  N   UNL     1       0.136  11.516  19.992  0.00  0.00    +0.000 N 
ATOM     12  C   UNL     1       0.954  10.639  19.298  0.00  0.00    +0.000 A 
ATOM     13  N   UNL     1       1.688  10.915  18.221  0.00  0.00    +0.000 NA
ATOM     14  C   UNL     1       2.402   9.851  17.750  0.00  0.00    +0.000 A 
ATOM     15  C   UNL     1       2.411   8.543  18.293  0.00  0.00    +0.000 A 
ATOM     16  C   UNL     1       1.601   8.335  19.433  0.00  0.00    +0.000 A 
ATOM     17  C   UNL     1       0.886   9.403  19.925  0.00  0.00    +0.000 A 
ATOM     18  H   UNL     1      -0.008  12.482  19.757  0.00  0.00    +0.000 HD
ENDBRANCH   1  15
BRANCH   5  19
ATOM     19  C   UNL     1       3.157   3.646  17.378  0.00  0.00    +0.000 C 
ATOM     20  O   UNL     1       2.447   3.211  16.472  0.00  0.00    +0.000 OA
ATOM     21  N   UNL     1       3.567   2.850  18.453  0.00  0.00    +0.000 N 
ATOM     22  C   UNL     1       3.121   1.416  18.546  0.00  0.00    +0.000 C 
ATOM     23  C   UNL     1       1.886   1.999  19.367  0.00  0.00    +0.000 C 
ATOM     24  C   UNL     1       0.903   2.689  20.351  0.00  0.00    +0.000 C 
ATOM     25  C   UNL     1       1.266   2.445  21.815  0.00  0.00    +0.000 C 
ATOM     26  C   UNL     1       2.371   3.486  22.062  0.00  0.00    +0.000 C 
ATOM     27  C   UNL     1       2.593   4.082  20.638  0.00  0.00    +0.000 C 
ATOM     28  C   UNL     1       1.169   4.190  20.156  0.00  0.00    +0.000 C 
ATOM     29  C   UNL     1       3.144   2.916  19.851  0.00  0.00    +0.000 C 
ENDBRANCH   5  19
TORSDOF 2
ENDMDL
MODEL 2
REMARK VINA RESULT:      -8.8      2.412      4.436
REMARK  Name = 
REMARK  3 active torsions:
REMARK  status: ('A' for Active; 'I' for Inactive)
REMARK    1  A    between atoms: C_1  and  N_2
REMARK    2  A    between atoms: C_9  and  C_10
REMARK    3  A    between atoms: C_14  and  C_15
REMARK                            x       y       z     vdW  Elec       q    Type
REMARK                         _______ _______ _______ _____ _____    ______ ____
ROOT
ATOM      1  C   UNL     1       1.168   9.156  19.793  0.00  0.00    +0.000 A 
ATOM      2  C   UNL     1       1.448   9.786  18.566  0.00  0.00    +0.000 A 
ATOM      3  C   UNL     1       2.211   9.158  17.573  0.00  0.00    +0.000 A 
ATOM      4  C   UNL     1       2.713   7.877  17.772  0.00  0.00    +0.000 A 
ATOM      5  C   UNL     1       2.459   7.217  18.972  0.00  0.00    +0.000 A 
ATOM      6  C   UNL     1       1.680   7.856  19.967  0.00  0.00    +0.000 A 
ENDROOT
BRANCH   1  15
ATOM      7  C   UNL     1      -2.872  13.006  20.336  0.00  0.00    +0.000 C 
ATOM      8  N   UNL     1      -2.311  12.393  21.504  0.00  0.00    +0.000 N 
ATOM      9  C   UNL     1      -2.682  12.657  22.837  0.00  0.00    +0.000 A 
ATOM     10  O   UNL     1      -3.527  13.441  23.232  0.00  0.00    +0.000 OA
ATOM     11  N   UNL     1      -1.887  11.832  23.642  0.00  0.00    +0.000 N 
ATOM     12  C   UNL     1      -1.048  11.080  22.837  0.00  0.00    +0.000 A 
ATOM     13  N   UNL     1      -0.151  10.180  23.241  0.00  0.00    +0.000 NA
ATOM     14  C   UNL     1       0.536   9.588  22.220  0.00  0.00    +0.000 A 
ATOM     15  C   UNL     1       0.376   9.854  20.839  0.00  0.00    +0.000 A 
ATOM     16  C   UNL     1      -0.592  10.826  20.498  0.00  0.00    +0.000 A 
ATOM     17  C   UNL     1      -1.301  11.422  21.517  0.00  0.00    +0.000 A 
ATOM     18  H   UNL     1      -1.919  11.792  24.646  0.00  0.00    +0.000 HD
ENDBRANCH   1  15
BRANCH   5  19
ATOM     19  C   UNL     1       2.928   5.824  19.219  0.00  0.00    +0.000 C 
ATOM     20  O   UNL     1       3.116   5.471  20.382  0.00  0.00    +0.000 OA
ATOM     21  N   UNL     1       3.074   4.947  18.138  0.00  0.00    +0.000 N 
ATOM     22  C   UNL     1       3.499   3.523  18.372  0.00  0.00    +0.000 C 
ATOM     23  C   UNL     1       4.980   4.082  18.199  0.00  0.00    +0.000 C 
ATOM     24  C   UNL     1       6.320   4.730  17.756  0.00  0.00    +0.000 C 
ATOM     25  C   UNL     1       6.698   4.379  16.318  0.00  0.00    +0.000 C 
ATOM     26  C   UNL     1       5.853   5.372  15.500  0.00  0.00    +0.000 C 
ATOM     27  C   UNL     1       4.983   6.055  16.600  0.00  0.00    +0.000 C 
ATOM     28  C   UNL     1       6.006   6.234  17.692  0.00  0.00    +0.000 C 
ATOM     29  C   UNL     1       4.113   4.930  17.110  0.00  0.00    +0.000 C 
ENDBRANCH   5  19
TORSDOF 2
ENDMDL
MODEL 3
REMARK VINA RESULT:      -8.6      1.469      1.864
REMARK  Name = 
REMARK  3 active torsions:
REMARK  status: ('A' for Active; 'I' for Inactive)
REMARK    1  A    between atoms: C_1  and  N_2
REMARK    2  A    between atoms: C_9  and  C_10
REMARK    3  A    between atoms: C_14  and  C_15
REMARK                            x       y       z     vdW  Elec       q    Type
REMARK                         _______ _______ _______ _____ _____    ______ ____
ROOT
ATOM      1  C   UNL     1       2.596   7.697  17.986  0.00  0.00    +0.000 A 
ATOM      2  C   UNL     1       3.790   8.160  17.403  0.00  0.00    +0.000 A 
ATOM      3  C   UNL     1       4.744   7.280  16.875  0.00  0.00    +0.000 A 
ATOM      4  C   UNL     1       4.531   5.906  16.909  0.00  0.00    +0.000 A 
ATOM      5  C   UNL     1       3.363   5.405  17.477  0.00  0.00    +0.000 A 
ATOM      6  C   UNL     1       2.401   6.302  18.000  0.00  0.00    +0.000 A 
ENDROOT
BRANCH   1  15
ATOM      7  C   UNL     1      -2.079  10.466  16.606  0.00  0.00    +0.000 C 
ATOM      8  N   UNL     1      -1.518  10.624  17.916  0.00  0.00    +0.000 N 
ATOM      9  C   UNL     1      -2.038  11.430  18.948  0.00  0.00    +0.000 A 
ATOM     10  O   UNL     1      -3.036  12.129  18.914  0.00  0.00    +0.000 OA
ATOM     11  N   UNL     1      -1.182  11.274  20.044  0.00  0.00    +0.000 N 
ATOM     12  C   UNL     1      -0.161  10.401  19.706  0.00  0.00    +0.000 A 
ATOM     13  N   UNL     1       0.841  10.004  20.490  0.00  0.00    +0.000 NA
ATOM     14  C   UNL     1       1.702   9.131  19.888  0.00  0.00    +0.000 A 
ATOM     15  C   UNL     1       1.613   8.651  18.559  0.00  0.00    +0.000 A 
ATOM     16  C   UNL     1       0.523   9.126  17.796  0.00  0.00    +0.000 A 
ATOM     17  C   UNL     1      -0.360   9.996  18.394  0.00  0.00    +0.000 A 
ATOM     18  H   UNL     1      -1.288  11.725  20.936  0.00  0.00    +0.000 HD
ENDBRANCH   1  15
BRANCH   5  19
ATOM     19  C   UNL     1       3.060   3.945  17.493  0.00  0.00    +0.000 C 
ATOM     20  O   UNL     1       2.417   3.474  16.556  0.00  0.00    +0.000 OA
ATOM     21  N   UNL     1       3.567   3.150  18.527  0.00  0.00    +0.000 N 
ATOM     22  C   UNL     1       3.313   1.666  18.534  0.00  0.00    +0.000 C 
ATOM     23  C   UNL     1       2.009   2.034  19.371  0.00  0.00    +0.000 C 
ATOM     24  C   UNL     1       0.939   2.531  20.381  0.00  0.00    +0.000 C 
ATOM     25  C   UNL     1       1.324   2.253  21.833  0.00  0.00    +0.000 C 
ATOM     26  C   UNL     1       2.282   3.415  22.151  0.00  0.00    +0.000 C 
ATOM     27  C   UNL     1       2.429   4.115  20.765  0.00  0.00    +0.000 C 
ATOM     28  C   UNL     1       1.005   4.063  20.274  0.00  0.00    +0.000 C 
ATOM     29  C   UNL     1       3.133   3.079  19.921  0.00  0.00    +0.000 C 
ENDBRANCH   5  19
TORSDOF 2
ENDMDL
MODEL 4
REMARK VINA RESULT:      -8.5      2.615      4.219
REMARK  Name = 
REMARK  3 active torsions:
REMARK  status: ('A' for Active; 'I' for Inactive)
REMARK    1  A    between atoms: C_1  and  N_2
REMARK    2  A    between atoms: C_9  and  C_10
REMARK    3  A    between atoms: C_14  and  C_15
REMARK                            x       y       z     vdW  Elec       q    Type
REMARK                         _______ _______ _______ _____ _____    ______ ____
ROOT
ATOM      1  C   UNL     1       1.000   9.579  19.749  0.00  0.00    +0.000 A 
ATOM      2  C   UNL     1       0.554   8.931  20.915  0.00  0.00    +0.000 A 
ATOM      3  C   UNL     1       0.972   7.636  21.246  0.00  0.00    +0.000 A 
ATOM      4  C   UNL     1       1.857   6.948  20.423  0.00  0.00    +0.000 A 
ATOM      5  C   UNL     1       2.324   7.552  19.258  0.00  0.00    +0.000 A 
ATOM      6  C   UNL     1       1.902   8.865  18.936  0.00  0.00    +0.000 A 
ENDROOT
BRANCH   1  15
ATOM      7  C   UNL     1       2.731  14.911  19.747  0.00  0.00    +0.000 C 
ATOM      8  N   UNL     1       1.408  14.592  19.297  0.00  0.00    +0.000 N 
ATOM      9  C   UNL     1       0.450  15.510  18.824  0.00  0.00    +0.000 A 
ATOM     10  O   UNL     1       0.567  16.718  18.720  0.00  0.00    +0.000 OA
ATOM     11  N   UNL     1      -0.684  14.763  18.487  0.00  0.00    +0.000 N 
ATOM     12  C   UNL     1      -0.442  13.423  18.742  0.00  0.00    +0.000 A 
ATOM     13  N   UNL     1      -1.283  12.408  18.543  0.00  0.00    +0.000 NA
ATOM     14  C   UNL     1      -0.769  11.190  18.882  0.00  0.00    +0.000 A 
ATOM     15  C   UNL     1       0.522  10.944  19.410  0.00  0.00    +0.000 A 
ATOM     16  C   UNL     1       1.347  12.075  19.594  0.00  0.00    +0.000 A 
ATOM     17  C   UNL     1       0.846  13.309  19.244  0.00  0.00    +0.000 A 
ATOM     18  H   UNL     1      -1.541  15.138  18.119  0.00  0.00    +0.000 HD
ENDBRANCH   1  15
BRANCH   5  19
ATOM     19  C   UNL     1       3.313   6.882  18.367  0.00  0.00    +0.000 C 
ATOM     20  O   UNL     1       3.553   7.394  17.274  0.00  0.00    +0.000 OA
ATOM     21  N   UNL     1       3.984   5.740  18.820  0.00  0.00    +0.000 N 
ATOM     22  C   UNL     1       5.022   5.079  17.954  0.00  0.00    +0.000 C 
ATOM     23  C   UNL     1       3.805   4.218  17.394  0.00  0.00    +0.000 C 
ATOM     24  C   UNL     1       2.574   3.304  17.146  0.00  0.00    +0.000 C 
ATOM     25  C   UNL     1       2.666   1.976  17.896  0.00  0.00    +0.000 C 
ATOM     26  C   UNL     1       2.198   2.360  19.311  0.00  0.00    +0.000 C 
ATOM     27  C   UNL     1       2.051   3.909  19.205  0.00  0.00    +0.000 C 
ATOM     28  C   UNL     1       1.417   4.036  17.844  0.00  0.00    +0.000 C 
ATOM     29  C   UNL     1       3.468   4.382  18.980  0.00  0.00    +0.000 C 
ENDBRANCH   5  19
TORSDOF 2
ENDMDL
MODEL 5
REMARK VINA RESULT:      -8.3      2.111      3.401
REMARK  Name = 
REMARK  3 active torsions:
REMARK  status: ('A' for Active; 'I' for Inactive)
REMARK    1  A    between atoms: C_1  and  N_2
REMARK    2  A    between atoms: C_9  and  C_10
REMARK    3  A    between atoms: C_14  and  C_15
REMARK                            x       y       z     vdW  Elec       q    Type
REMARK                         _______ _______ _______ _____ _____    ______ ____
ROOT
ATOM      1  C   UNL     1       1.452   8.729  19.783  0.00  0.00    +0.000 A 
ATOM      2  C   UNL     1       1.490   9.139  18.437  0.00  0.00    +0.000 A 
ATOM      3  C   UNL     1       2.259   8.463  17.482  0.00  0.00    +0.000 A 
ATOM      4  C   UNL     1       3.012   7.350  17.840  0.00  0.00    +0.000 A 
ATOM      5  C   UNL     1       3.004   6.910  19.161  0.00  0.00    +0.000 A 
ATOM      6  C   UNL     1       2.216   7.595  20.119  0.00  0.00    +0.000 A 
ENDROOT
BRANCH   1  15
ATOM      7  C   UNL     1      -2.547  12.648  20.076  0.00  0.00    +0.000 C 
ATOM      8  N   UNL     1      -2.021  12.075  21.280  0.00  0.00    +0.000 N 
ATOM      9  C   UNL     1      -2.420  12.397  22.592  0.00  0.00    +0.000 A 
ATOM     10  O   UNL     1      -3.263  13.207  22.935  0.00  0.00    +0.000 OA
ATOM     11  N   UNL     1      -1.655  11.596  23.448  0.00  0.00    +0.000 N 
ATOM     12  C   UNL     1      -0.807  10.801  22.694  0.00  0.00    +0.000 A 
ATOM     13  N   UNL     1       0.067   9.907  23.155  0.00  0.00    +0.000 NA
ATOM     14  C   UNL     1       0.770   9.265  22.175  0.00  0.00    +0.000 A 
ATOM     15  C   UNL     1       0.646   9.478  20.781  0.00  0.00    +0.000 A 
ATOM     16  C   UNL     1      -0.301  10.447  20.379  0.00  0.00    +0.000 A 
ATOM     17  C   UNL     1      -1.025  11.093  21.355  0.00  0.00    +0.000 A 
ATOM     18  H   UNL     1      -1.710  11.596  24.451  0.00  0.00    +0.000 HD
ENDBRANCH   1  15
BRANCH   5  19
ATOM     19  C   UNL     1       3.750   5.693  19.590  0.00  0.00    +0.000 C 
ATOM     20  O   UNL     1       4.954   5.631  19.343  0.00  0.00    +0.000 OA
ATOM     21  N   UNL     1       3.084   4.698  20.313  0.00  0.00    +0.000 N 
ATOM     22  C   UNL     1       3.832   3.485  20.798  0.00  0.00    +0.000 C 
ATOM     23  C   UNL     1       3.412   2.841  19.403  0.00  0.00    +0.000 C 
ATOM     24  C   UNL     1       2.713   2.281  18.135  0.00  0.00    +0.000 C 
ATOM     25  C   UNL     1       1.508   1.402  18.465  0.00  0.00    +0.000 C 
ATOM     26  C   UNL     1       0.399   2.439  18.718  0.00  0.00    +0.000 C 
ATOM     27  C   UNL     1       1.180   3.787  18.645  0.00  0.00    +0.000 C 
ATOM     28  C   UNL     1       2.089   3.520  17.473  0.00  0.00    +0.000 C 
ATOM     29  C   UNL     1       2.109   3.720  19.835  0.00  0.00    +0.000 C 
ENDBRANCH   5  19
TORSDOF 2
ENDMDL
MODEL 6
REMARK VINA RESULT:      -8.3      1.005      1.769
REMARK  Name = 
REMARK  3 active torsions:
REMARK  status: ('A' for Active; 'I' for Inactive)
REMARK    1  A    between atoms: C_1  and  N_2
REMARK    2  A    between atoms: C_9  and  C_10
REMARK    3  A    between atoms: C_14  and  C_15
REMARK                            x       y       z     vdW  Elec       q    Type
REMARK                         _______ _______ _______ _____ _____    ______ ____
ROOT
ATOM      1  C   UNL     1       2.590   7.660  18.364  0.00  0.00    +0.000 A 
ATOM      2  C   UNL     1       3.606   8.225  17.572  0.00  0.00    +0.000 A 
ATOM      3  C   UNL     1       4.464   7.433  16.797  0.00  0.00    +0.000 A 
ATOM      4  C   UNL     1       4.329   6.049  16.786  0.00  0.00    +0.000 A 
ATOM      5  C   UNL     1       3.336   5.449  17.556  0.00  0.00    +0.000 A 
ATOM      6  C   UNL     1       2.468   6.258  18.329  0.00  0.00    +0.000 A 
ENDROOT
BRANCH   1  15
ATOM      7  C   UNL     1      -0.713  12.172  17.949  0.00  0.00    +0.000 C 
ATOM      8  N   UNL     1      -0.563  11.512  19.213  0.00  0.00    +0.000 N 
ATOM      9  C   UNL     1      -1.188  11.884  20.419  0.00  0.00    +0.000 A 
ATOM     10  O   UNL     1      -1.950  12.817  20.605  0.00  0.00    +0.000 OA
ATOM     11  N   UNL     1      -0.768  10.963  21.385  0.00  0.00    +0.000 N 
ATOM     12  C   UNL     1       0.092  10.048  20.801  0.00  0.00    +0.000 A 
ATOM     13  N   UNL     1       0.692   9.020  21.401  0.00  0.00    +0.000 NA
ATOM     14  C   UNL     1       1.486   8.281  20.571  0.00  0.00    +0.000 A 
ATOM     15  C   UNL     1       1.709   8.522  19.194  0.00  0.00    +0.000 A 
ATOM     16  C   UNL     1       1.039   9.635  18.638  0.00  0.00    +0.000 A 
ATOM     17  C   UNL     1       0.225  10.381  19.461  0.00  0.00    +0.000 A 
ATOM     18  H   UNL     1      -1.044  10.964  22.352  0.00  0.00    +0.000 HD
ENDBRANCH   1  15
BRANCH   5  19
ATOM     19  C   UNL     1       3.112   3.975  17.541  0.00  0.00    +0.000 C 
ATOM     20  O   UNL     1       2.526   3.485  16.577  0.00  0.00    +0.000 OA
ATOM     21  N   UNL     1       3.630   3.191  18.578  0.00  0.00    +0.000 N 
ATOM     22  C   UNL     1       3.458   1.697  18.556  0.00  0.00    +0.000 C 
ATOM     23  C   UNL     1       2.111   1.979  19.357  0.00  0.00    +0.000 C 
ATOM     24  C   UNL     1       0.985   2.401  20.340  0.00  0.00    +0.000 C 
ATOM     25  C   UNL     1       1.340   2.121  21.799  0.00  0.00    +0.000 C 
ATOM     26  C   UNL     1       2.223   3.328  22.164  0.00  0.00    +0.000 C 
ATOM     27  C   UNL     1       2.373   4.057  20.794  0.00  0.00    +0.000 C 
ATOM     28  C   UNL     1       0.970   3.936  20.257  0.00  0.00    +0.000 C 
ATOM     29  C   UNL     1       3.159   3.075  19.957  0.00  0.00    +0.000 C 
ENDBRANCH   5  19
TORSDOF 2
ENDMDL
MODEL 7
REMARK VINA RESULT:      -8.2      1.611      4.063
REMARK  Name = 
REMARK  3 active torsions:
REMARK  status: ('A' for Active; 'I' for Inactive)
REMARK    1  A    between atoms: C_1  and  N_2
REMARK    2  A    between atoms: C_9  and  C_10
REMARK    3  A    between atoms: C_14  and  C_15
REMARK                            x       y       z     vdW  Elec       q    Type
REMARK                         _______ _______ _______ _____ _____    ______ ____
ROOT
ATOM      1  C   UNL     1       1.856   5.904  19.864  0.00  0.00    +0.000 A 
ATOM      2  C   UNL     1       1.314   5.010  20.806  0.00  0.00    +0.000 A 
ATOM      3  C   UNL     1       1.553   3.632  20.738  0.00  0.00    +0.000 A 
ATOM      4  C   UNL     1       2.348   3.102  19.727  0.00  0.00    +0.000 A 
ATOM      5  C   UNL     1       2.905   3.951  18.774  0.00  0.00    +0.000 A 
ATOM      6  C   UNL     1       2.665   5.344  18.856  0.00  0.00    +0.000 A 
ENDROOT
BRANCH   1  15
ATOM      7  C   UNL     1      -0.222   9.726  23.400  0.00  0.00    +0.000 C 
ATOM      8  N   UNL     1       0.226  10.128  22.100  0.00  0.00    +0.000 N 
ATOM      9  C   UNL     1       0.210  11.441  21.588  0.00  0.00    +0.000 A 
ATOM     10  O   UNL     1      -0.186  12.450  22.144  0.00  0.00    +0.000 OA
ATOM     11  N   UNL     1       0.745  11.371  20.297  0.00  0.00    +0.000 N 
ATOM     12  C   UNL     1       1.084  10.058  20.013  0.00  0.00    +0.000 A 
ATOM     13  N   UNL     1       1.625   9.600  18.884  0.00  0.00    +0.000 NA
ATOM     14  C   UNL     1       1.855   8.254  18.887  0.00  0.00    +0.000 A 
ATOM     15  C   UNL     1       1.568   7.359  19.946  0.00  0.00    +0.000 A 
ATOM     16  C   UNL     1       0.991   7.926  21.105  0.00  0.00    +0.000 A 
ATOM     17  C   UNL     1       0.765   9.284  21.119  0.00  0.00    +0.000 A 
ATOM     18  H   UNL     1       0.865  12.149  19.672  0.00  0.00    +0.000 HD
ENDBRANCH   1  15
BRANCH   5  19
ATOM     19  C   UNL     1       3.807   3.444  17.701  0.00  0.00    +0.000 C 
ATOM     20  O   UNL     1       4.118   2.254  17.716  0.00  0.00    +0.000 OA
ATOM     21  N   UNL     1       4.214   4.311  16.680  0.00  0.00    +0.000 N 
ATOM     22  C   UNL     1       5.084   3.806  15.561  0.00  0.00    +0.000 C 
ATOM     23  C   UNL     1       6.299   4.236  16.497  0.00  0.00    +0.000 C 
ATOM     24  C   UNL     1       7.346   4.936  17.405  0.00  0.00    +0.000 C 
ATOM     25  C   UNL     1       7.795   6.288  16.853  0.00  0.00    +0.000 C 
ATOM     26  C   UNL     1       6.659   7.224  17.303  0.00  0.00    +0.000 C 
ATOM     27  C   UNL     1       5.632   6.229  17.925  0.00  0.00    +0.000 C 
ATOM     28  C   UNL     1       6.558   5.304  18.672  0.00  0.00    +0.000 C 
ATOM     29  C   UNL     1       5.185   5.401  16.742  0.00  0.00    +0.000 C 
ENDBRANCH   5  19
TORSDOF 2
ENDMDL
MODEL 8
REMARK VINA RESULT:      -8.2      2.152      4.472
REMARK  Name = 
REMARK  3 active torsions:
REMARK  status: ('A' for Active; 'I' for Inactive)
REMARK    1  A    between atoms: C_1  and  N_2
REMARK    2  A    between atoms: C_9  and  C_10
REMARK    3  A    between atoms: C_14  and  C_15
REMARK                            x       y       z     vdW  Elec       q    Type
REMARK                         _______ _______ _______ _____ _____    ______ ____
ROOT
ATOM      1  C   UNL     1       2.473   6.561  19.730  0.00  0.00    +0.000 A 
ATOM      2  C   UNL     1       1.867   5.357  20.133  0.00  0.00    +0.000 A 
ATOM      3  C   UNL     1       2.558   4.139  20.104  0.00  0.00    +0.000 A 
ATOM      4  C   UNL     1       3.880   4.086  19.676  0.00  0.00    +0.000 A 
ATOM      5  C   UNL     1       4.518   5.255  19.269  0.00  0.00    +0.000 A 
ATOM      6  C   UNL     1       3.815   6.484  19.310  0.00  0.00    +0.000 A 
ENDROOT
BRANCH   1  15
ATOM      7  C   UNL     1      -0.487   9.801  23.220  0.00  0.00    +0.000 C 
ATOM      8  N   UNL     1      -0.315  10.198  21.854  0.00  0.00    +0.000 N 
ATOM      9  C   UNL     1      -0.824  11.370  21.261  0.00  0.00    +0.000 A 
ATOM     10  O   UNL     1      -1.494  12.240  21.791  0.00  0.00    +0.000 OA
ATOM     11  N   UNL     1      -0.407  11.355  19.926  0.00  0.00    +0.000 N 
ATOM     12  C   UNL     1       0.337  10.210  19.692  0.00  0.00    +0.000 A 
ATOM     13  N   UNL     1       0.905   9.848  18.542  0.00  0.00    +0.000 NA
ATOM     14  C   UNL     1       1.583   8.665  18.608  0.00  0.00    +0.000 A 
ATOM     15  C   UNL     1       1.710   7.836  19.749  0.00  0.00    +0.000 A 
ATOM     16  C   UNL     1       1.073   8.291  20.925  0.00  0.00    +0.000 A 
ATOM     17  C   UNL     1       0.397   9.489  20.876  0.00  0.00    +0.000 A 
ATOM     18  H   UNL     1      -0.614  12.061  19.241  0.00  0.00    +0.000 HD
ENDBRANCH   1  15
BRANCH   5  19
ATOM     19  C   UNL     1       5.949   5.265  18.851  0.00  0.00    +0.000 C 
ATOM     20  O   UNL     1       6.681   6.144  19.303  0.00  0.00    +0.000 OA
ATOM     21  N   UNL     1       6.429   4.247  18.020  0.00  0.00    +0.000 N 
ATOM     22  C   UNL     1       7.881   4.212  17.627  0.00  0.00    +0.000 C 
ATOM     23  C   UNL     1       7.422   5.096  16.384  0.00  0.00    +0.000 C 
ATOM     24  C   UNL     1       6.779   5.723  15.117  0.00  0.00    +0.000 C 
ATOM     25  C   UNL     1       6.666   4.730  13.961  0.00  0.00    +0.000 C 
ATOM     26  C   UNL     1       5.392   3.945  14.320  0.00  0.00    +0.000 C 
ATOM     27  C   UNL     1       5.039   4.508  15.731  0.00  0.00    +0.000 C 
ATOM     28  C   UNL     1       5.318   5.974  15.524  0.00  0.00    +0.000 C 
ATOM     29  C   UNL     1       6.193   4.047  16.591  0.00  0.00    +0.000 C 
ENDBRANCH   5  19
TORSDOF 2
ENDMDL
MODEL 9
REMARK VINA RESULT:      -8.1      2.576      8.694
REMARK  Name = 
REMARK  3 active torsions:
REMARK  status: ('A' for Active; 'I' for Inactive)
REMARK    1  A    between atoms: C_1  and  N_2
REMARK    2  A    between atoms: C_9  and  C_10
REMARK    3  A    between atoms: C_14  and  C_15
REMARK                            x       y       z     vdW  Elec       q    Type
REMARK                         _______ _______ _______ _____ _____    ______ ____
ROOT
ATOM      1  C   UNL     1       0.866   8.683  20.947  0.00  0.00    +0.000 A 
ATOM      2  C   UNL     1       0.599   8.603  22.326  0.00  0.00    +0.000 A 
ATOM      3  C   UNL     1      -0.064   9.631  23.009  0.00  0.00    +0.000 A 
ATOM      4  C   UNL     1      -0.485  10.771  22.333  0.00  0.00    +0.000 A 
ATOM      5  C   UNL     1      -0.241  10.891  20.968  0.00  0.00    +0.000 A 
ATOM      6  C   UNL     1       0.421   9.843  20.283  0.00  0.00    +0.000 A 
ENDROOT
BRANCH   1  15
ATOM      7  C   UNL     1       2.204   3.274  21.575  0.00  0.00    +0.000 C 
ATOM      8  N   UNL     1       2.628   3.982  20.403  0.00  0.00    +0.000 N 
ATOM      9  C   UNL     1       3.374   3.443  19.336  0.00  0.00    +0.000 A 
ATOM     10  O   UNL     1       3.789   2.304  19.220  0.00  0.00    +0.000 OA
ATOM     11  N   UNL     1       3.551   4.479  18.412  0.00  0.00    +0.000 N 
ATOM     12  C   UNL     1       2.937   5.626  18.887  0.00  0.00    +0.000 A 
ATOM     13  N   UNL     1       2.888   6.814  18.284  0.00  0.00    +0.000 NA
ATOM     14  C   UNL     1       2.208   7.765  18.989  0.00  0.00    +0.000 A 
ATOM     15  C   UNL     1       1.591   7.589  20.251  0.00  0.00    +0.000 A 
ATOM     16  C   UNL     1       1.695   6.300  20.822  0.00  0.00    +0.000 A 
ATOM     17  C   UNL     1       2.367   5.328  20.116  0.00  0.00    +0.000 A 
ATOM     18  H   UNL     1       4.047   4.405  17.540  0.00  0.00    +0.000 HD
ENDBRANCH   1  15
BRANCH   5  19
ATOM     19  C   UNL     1      -0.717  12.066  20.184  0.00  0.00    +0.000 C 
ATOM     20  O   UNL     1      -1.523  11.872  19.275  0.00  0.00    +0.000 OA
ATOM     21  N   UNL     1      -0.291  13.350  20.543  0.00  0.00    +0.000 N 
ATOM     22  C   UNL     1      -0.798  14.553  19.795  0.00  0.00    +0.000 C 
ATOM     23  C   UNL     1       0.467  14.328  18.854  0.00  0.00    +0.000 C 
ATOM     24  C   UNL     1       1.862  14.130  18.201  0.00  0.00    +0.000 C 
ATOM     25  C   UNL     1       2.893  15.143  18.696  0.00  0.00    +0.000 C 
ATOM     26  C   UNL     1       3.343  14.533  20.035  0.00  0.00    +0.000 C 
ATOM     27  C   UNL     1       2.377  13.318  20.190  0.00  0.00    +0.000 C 
ATOM     28  C   UNL     1       2.359  12.794  18.777  0.00  0.00    +0.000 C 
ATOM     29  C   UNL     1       1.020  13.966  20.344  0.00  0.00    +0.000 C 
ENDBRANCH   5  19
TORSDOF 2
ENDMDL
