MODEL 1
REMARK VINA RESULT:      -8.6      0.000      0.000
REMARK  Name = 
REMARK  8 active torsions:
REMARK  status: ('A' for Active; 'I' for Inactive)
REMARK    1  A    between atoms: C_1  and  C_2
REMARK    2  A    between atoms: C_4  and  C_5
REMARK    3  A    between atoms: C_5  and  N_6
REMARK    4  A    between atoms: C_7  and  C_9
REMARK    5  A    between atoms: C_12  and  C_13
REMARK    6  A    between atoms: N_15  and  C_16
REMARK    7  A    between atoms: C_16  and  C_17
REMARK    8  A    between atoms: C_22  and  C_23
REMARK                            x       y       z     vdW  Elec       q    Type
REMARK                         _______ _______ _______ _____ _____    ______ ____
ROOT
ATOM      1  C   UNL     1       2.209   5.608  18.690  0.00  0.00    +0.000 C 
ATOM      2  C   UNL     1       2.864   6.890  18.164  0.00  0.00    +0.000 C 
ATOM      3  C   UNL     1       2.046   8.118  18.542  0.00  0.00    +0.000 C 
ATOM      4  C   UNL     1       1.805   8.237  20.057  0.00  0.00    +0.000 C 
ATOM      5  C   UNL     1       1.270   6.917  20.636  0.00  0.00    +0.000 C 
ATOM      6  C   UNL     1       2.103   5.697  20.217  0.00  0.00    +0.000 C 
ENDROOT
BRANCH   1   8
ATOM      7  N   UNL     1       4.287   4.666  17.867  0.00  0.00    +0.000 N 
ATOM      8  C   UNL     1       2.971   4.379  18.183  0.00  0.00    +0.000 C 
ATOM      9  O   UNL     1       2.471   3.268  18.071  0.00  0.00    +0.000 OA
ATOM     10  H   UNL     1       4.571   5.634  17.803  0.00  0.00    +0.000 HD
BRANCH   7  11
ATOM     11  C   UNL     1       5.218   3.672  17.375  0.00  0.00    +0.000 C 
BRANCH  11  15
ATOM     12  C   UNL     1       5.838   3.264  12.344  0.00  0.00    +0.000 C 
ATOM     13  C   UNL     1       6.177   3.905  13.661  0.00  0.00    +0.000 A 
ATOM     14  C   UNL     1       5.532   3.519  14.849  0.00  0.00    +0.000 A 
ATOM     15  C   UNL     1       5.868   4.116  16.080  0.00  0.00    +0.000 A 
ATOM     16  C   UNL     1       6.858   5.111  16.100  0.00  0.00    +0.000 A 
ATOM     17  C   UNL     1       7.500   5.497  14.925  0.00  0.00    +0.000 A 
ATOM     18  C   UNL     1       7.156   4.898  13.717  0.00  0.00    +0.000 A 
ATOM     19  F   UNL     1       7.790   5.275  12.596  0.00  0.00    +0.000 F 
ENDBRANCH  11  15
ENDBRANCH   7  11
ENDBRANCH   1   8
BRANCH   4  20
ATOM     20  C   UNL     1       0.853   9.410  20.343  0.00  0.00    +0.000 C 
ATOM     21  O   UNL     1       0.104   9.434  21.315  0.00  0.00    +0.000 OA
ATOM     22  N   UNL     1       0.867  10.416  19.401  0.00  0.00    +0.000 N 
ATOM     23  H   UNL     1       1.608  10.451  18.716  0.00  0.00    +0.000 HD
BRANCH  22  24
ATOM     24  C   UNL     1       0.057  11.602  19.575  0.00  0.00    +0.000 C 
BRANCH  24  25
ATOM     25  C   UNL     1      -1.293  11.458  18.918  0.00  0.00    +0.000 A 
ATOM     26  C   UNL     1      -2.440  12.027  19.490  0.00  0.00    +0.000 A 
ATOM     27  C   UNL     1      -3.687  11.857  18.883  0.00  0.00    +0.000 A 
ATOM     28  C   UNL     1      -3.789  11.132  17.700  0.00  0.00    +0.000 A 
ATOM     29  F   UNL     1      -4.999  10.977  17.143  0.00  0.00    +0.000 F 
ATOM     30  C   UNL     1      -2.663  10.573  17.096  0.00  0.00    +0.000 A 
ATOM     31  C   UNL     1      -2.773   9.804  15.814  0.00  0.00    +0.000 C 
ATOM     32  C   UNL     1      -1.415  10.745  17.712  0.00  0.00    +0.000 A 
ENDBRANCH  24  25
ENDBRANCH  22  24
ENDBRANCH   4  20
TORSDOF 6
ENDMDL
MODEL 2
REMARK VINA RESULT:      -8.5      1.045      9.953
REMARK  Name = 
REMARK  8 active torsions:
REMARK  status: ('A' for Active; 'I' for Inactive)
REMARK    1  A    between atoms: C_1  and  C_2
REMARK    2  A    between atoms: C_4  and  C_5
REMARK    3  A    between atoms: C_5  and  N_6
REMARK    4  A    between atoms: C_7  and  C_9
REMARK    5  A    between atoms: C_12  and  C_13
REMARK    6  A    between atoms: N_15  and  C_16
REMARK    7  A    between atoms: C_16  and  C_17
REMARK    8  A    between atoms: C_22  and  C_23
REMARK                            x       y       z     vdW  Elec       q    Type
REMARK                         _______ _______ _______ _____ _____    ______ ____
ROOT
ATOM      1  C   UNL     1       1.729   8.707  20.088  0.00  0.00    +0.000 C 
ATOM      2  C   UNL     1       1.853   8.486  18.576  0.00  0.00    +0.000 C 
ATOM      3  C   UNL     1       2.868   7.395  18.263  0.00  0.00    +0.000 C 
ATOM      4  C   UNL     1       2.553   6.061  18.962  0.00  0.00    +0.000 C 
ATOM      5  C   UNL     1       2.292   6.273  20.463  0.00  0.00    +0.000 C 
ATOM      6  C   UNL     1       1.282   7.394  20.744  0.00  0.00    +0.000 C 
ENDROOT
BRANCH   1   8
ATOM      7  N   UNL     1      -0.274   9.949  19.514  0.00  0.00    +0.000 N 
ATOM      8  C   UNL     1       0.808   9.898  20.374  0.00  0.00    +0.000 C 
ATOM      9  O   UNL     1       1.008  10.713  21.264  0.00  0.00    +0.000 OA
ATOM     10  H   UNL     1      -0.269   9.361  18.691  0.00  0.00    +0.000 HD
BRANCH   7  11
ATOM     11  C   UNL     1      -1.293  10.975  19.583  0.00  0.00    +0.000 C 
BRANCH  11  15
ATOM     12  C   UNL     1      -5.604  12.204  17.182  0.00  0.00    +0.000 C 
ATOM     13  C   UNL     1      -4.250  11.549  17.197  0.00  0.00    +0.000 A 
ATOM     14  C   UNL     1      -3.428  11.601  18.336  0.00  0.00    +0.000 A 
ATOM     15  C   UNL     1      -2.167  10.972  18.345  0.00  0.00    +0.000 A 
ATOM     16  C   UNL     1      -1.742  10.294  17.192  0.00  0.00    +0.000 A 
ATOM     17  C   UNL     1      -2.554  10.240  16.061  0.00  0.00    +0.000 A 
ATOM     18  C   UNL     1      -3.796  10.868  16.067  0.00  0.00    +0.000 A 
ATOM     19  F   UNL     1      -4.570  10.800  14.973  0.00  0.00    +0.000 F 
ENDBRANCH  11  15
ENDBRANCH   7  11
ENDBRANCH   1   8
BRANCH   4  20
ATOM     20  C   UNL     1       3.695   5.062  18.719  0.00  0.00    +0.000 C 
ATOM     21  O   UNL     1       4.529   4.786  19.577  0.00  0.00    +0.000 OA
ATOM     22  N   UNL     1       3.745   4.530  17.449  0.00  0.00    +0.000 N 
ATOM     23  H   UNL     1       2.956   4.639  16.828  0.00  0.00    +0.000 HD
BRANCH  22  24
ATOM     24  C   UNL     1       4.740   3.538  17.102  0.00  0.00    +0.000 C 
BRANCH  24  25
ATOM     25  C   UNL     1       5.616   3.999  15.965  0.00  0.00    +0.000 A 
ATOM     26  C   UNL     1       6.617   4.961  16.166  0.00  0.00    +0.000 A 
ATOM     27  C   UNL     1       7.398   5.398  15.094  0.00  0.00    +0.000 A 
ATOM     28  C   UNL     1       7.193   4.868  13.824  0.00  0.00    +0.000 A 
ATOM     29  F   UNL     1       7.951   5.312  12.812  0.00  0.00    +0.000 F 
ATOM     30  C   UNL     1       6.220   3.895  13.596  0.00  0.00    +0.000 A 
ATOM     31  C   UNL     1       6.010   3.315  12.231  0.00  0.00    +0.000 C 
ATOM     32  C   UNL     1       5.437   3.462  14.677  0.00  0.00    +0.000 A 
ENDBRANCH  24  25
ENDBRANCH  22  24
ENDBRANCH   4  20
TORSDOF 6
ENDMDL
MODEL 3
REMARK VINA RESULT:      -8.5      0.916      9.973
REMARK  Name = 
REMARK  8 active torsions:
REMARK  status: ('A' for Active; 'I' for Inactive)
REMARK    1  A    between atoms: C_1  and  C_2
REMARK    2  A    between atoms: C_4  and  C_5
REMARK    3  A    between atoms: C_5  and  N_6
REMARK    4  A    between atoms: C_7  and  C_9
REMARK    5  A    between atoms: C_12  and  C_13
REMARK    6  A    between atoms: N_15  and  C_16
REMARK    7  A    between atoms: C_16  and  C_17
REMARK    8  A    between atoms: C_22  and  C_23
REMARK                            x       y       z     vdW  Elec       q    Type
REMARK                         _______ _______ _______ _____ _____    ______ ____
ROOT
ATOM      1  C   UNL     1       1.472   8.903  19.755  0.00  0.00    +0.000 C 
ATOM      2  C   UNL     1       1.632   8.652  18.251  0.00  0.00    +0.000 C 
ATOM      3  C   UNL     1       2.741   7.644  17.978  0.00  0.00    +0.000 C 
ATOM      4  C   UNL     1       2.533   6.308  18.713  0.00  0.00    +0.000 C 
ATOM      5  C   UNL     1       2.238   6.537  20.204  0.00  0.00    +0.000 C 
ATOM      6  C   UNL     1       1.132   7.575  20.444  0.00  0.00    +0.000 C 
ENDROOT
BRANCH   1   8
ATOM      7  N   UNL     1       0.496  11.001  19.026  0.00  0.00    +0.000 N 
ATOM      8  C   UNL     1       0.449  10.018  19.999  0.00  0.00    +0.000 C 
ATOM      9  O   UNL     1      -0.324  10.035  20.947  0.00  0.00    +0.000 OA
ATOM     10  H   UNL     1       1.280  11.017  18.389  0.00  0.00    +0.000 HD
BRANCH   7  11
ATOM     11  C   UNL     1      -0.376  12.157  19.027  0.00  0.00    +0.000 C 
BRANCH  11  15
ATOM     12  C   UNL     1      -3.304  10.437  15.241  0.00  0.00    +0.000 C 
ATOM     13  C   UNL     1      -3.146  11.012  16.622  0.00  0.00    +0.000 A 
ATOM     14  C   UNL     1      -1.875  11.272  17.163  0.00  0.00    +0.000 A 
ATOM     15  C   UNL     1      -1.738  11.823  18.452  0.00  0.00    +0.000 A 
ATOM     16  C   UNL     1      -2.897  12.106  19.193  0.00  0.00    +0.000 A 
ATOM     17  C   UNL     1      -4.159  11.850  18.659  0.00  0.00    +0.000 A 
ATOM     18  C   UNL     1      -4.277  11.304  17.385  0.00  0.00    +0.000 A 
ATOM     19  F   UNL     1      -5.500  11.072  16.883  0.00  0.00    +0.000 F 
ENDBRANCH  11  15
ENDBRANCH   7  11
ENDBRANCH   1   8
BRANCH   4  20
ATOM     20  C   UNL     1       3.760   5.405  18.509  0.00  0.00    +0.000 C 
ATOM     21  O   UNL     1       4.766   5.485  19.208  0.00  0.00    +0.000 OA
ATOM     22  N   UNL     1       3.670   4.527  17.450  0.00  0.00    +0.000 N 
ATOM     23  H   UNL     1       2.776   4.365  17.009  0.00  0.00    +0.000 HD
BRANCH  22  24
ATOM     24  C   UNL     1       4.734   3.584  17.179  0.00  0.00    +0.000 C 
BRANCH  24  25
ATOM     25  C   UNL     1       5.580   4.019  16.009  0.00  0.00    +0.000 A 
ATOM     26  C   UNL     1       6.639   4.923  16.178  0.00  0.00    +0.000 A 
ATOM     27  C   UNL     1       7.393   5.337  15.078  0.00  0.00    +0.000 A 
ATOM     28  C   UNL     1       7.100   4.842  13.811  0.00  0.00    +0.000 A 
ATOM     29  F   UNL     1       7.833   5.263  12.770  0.00  0.00    +0.000 F 
ATOM     30  C   UNL     1       6.067   3.926  13.614  0.00  0.00    +0.000 A 
ATOM     31  C   UNL     1       5.763   3.383  12.250  0.00  0.00    +0.000 C 
ATOM     32  C   UNL     1       5.313   3.516  14.723  0.00  0.00    +0.000 A 
ENDBRANCH  24  25
ENDBRANCH  22  24
ENDBRANCH   4  20
TORSDOF 6
ENDMDL
MODEL 4
REMARK VINA RESULT:      -8.5      1.475     10.044
REMARK  Name = 
REMARK  8 active torsions:
REMARK  status: ('A' for Active; 'I' for Inactive)
REMARK    1  A    between atoms: C_1  and  C_2
REMARK    2  A    between atoms: C_4  and  C_5
REMARK    3  A    between atoms: C_5  and  N_6
REMARK    4  A    between atoms: C_7  and  C_9
REMARK    5  A    between atoms: C_12  and  C_13
REMARK    6  A    between atoms: N_15  and  C_16
REMARK    7  A    between atoms: C_16  and  C_17
REMARK    8  A    between atoms: C_22  and  C_23
REMARK                            x       y       z     vdW  Elec       q    Type
REMARK                         _______ _______ _______ _____ _____    ______ ____
ROOT
ATOM      1  C   UNL     1       1.986   8.341  19.528  0.00  0.00    +0.000 C 
ATOM      2  C   UNL     1       2.070   8.527  18.009  0.00  0.00    +0.000 C 
ATOM      3  C   UNL     1       3.389   7.993  17.464  0.00  0.00    +0.000 C 
ATOM      4  C   UNL     1       3.635   6.517  17.825  0.00  0.00    +0.000 C 
ATOM      5  C   UNL     1       3.426   6.275  19.328  0.00  0.00    +0.000 C 
ATOM      6  C   UNL     1       2.100   6.845  19.850  0.00  0.00    +0.000 C 
ENDROOT
BRANCH   1   8
ATOM      7  N   UNL     1       0.183   9.928  19.189  0.00  0.00    +0.000 N 
ATOM      8  C   UNL     1       0.717   9.006  20.072  0.00  0.00    +0.000 C 
ATOM      9  O   UNL     1       0.230   8.750  21.164  0.00  0.00    +0.000 OA
ATOM     10  H   UNL     1       0.740  10.224  18.399  0.00  0.00    +0.000 HD
BRANCH   7  11
ATOM     11  C   UNL     1      -1.020  10.685  19.466  0.00  0.00    +0.000 C 
BRANCH  11  15
ATOM     12  C   UNL     1      -5.342  12.142  17.217  0.00  0.00    +0.000 C 
ATOM     13  C   UNL     1      -4.046  11.379  17.201  0.00  0.00    +0.000 A 
ATOM     14  C   UNL     1      -3.161  11.421  18.294  0.00  0.00    +0.000 A 
ATOM     15  C   UNL     1      -1.956  10.691  18.275  0.00  0.00    +0.000 A 
ATOM     16  C   UNL     1      -1.649   9.923  17.141  0.00  0.00    +0.000 A 
ATOM     17  C   UNL     1      -2.523   9.879  16.056  0.00  0.00    +0.000 A 
ATOM     18  C   UNL     1      -3.709  10.606  16.089  0.00  0.00    +0.000 A 
ATOM     19  F   UNL     1      -4.543  10.546  15.040  0.00  0.00    +0.000 F 
ENDBRANCH  11  15
ENDBRANCH   7  11
ENDBRANCH   1   8
BRANCH   4  20
ATOM     20  C   UNL     1       5.043   6.098  17.371  0.00  0.00    +0.000 C 
ATOM     21  O   UNL     1       5.963   6.901  17.239  0.00  0.00    +0.000 OA
ATOM     22  N   UNL     1       5.188   4.760  17.078  0.00  0.00    +0.000 N 
ATOM     23  H   UNL     1       4.473   4.105  17.360  0.00  0.00    +0.000 HD
BRANCH  22  24
ATOM     24  C   UNL     1       6.475   4.223  16.689  0.00  0.00    +0.000 C 
BRANCH  24  25
ATOM     25  C   UNL     1       6.705   4.346  15.205  0.00  0.00    +0.000 A 
ATOM     26  C   UNL     1       7.721   5.167  14.695  0.00  0.00    +0.000 A 
ATOM     27  C   UNL     1       7.900   5.291  13.316  0.00  0.00    +0.000 A 
ATOM     28  C   UNL     1       7.077   4.587  12.443  0.00  0.00    +0.000 A 
ATOM     29  F   UNL     1       7.264   4.731  11.123  0.00  0.00    +0.000 F 
ATOM     30  C   UNL     1       6.071   3.746  12.919  0.00  0.00    +0.000 A 
ATOM     31  C   UNL     1       5.194   2.977  11.978  0.00  0.00    +0.000 C 
ATOM     32  C   UNL     1       5.895   3.628  14.306  0.00  0.00    +0.000 A 
ENDBRANCH  24  25
ENDBRANCH  22  24
ENDBRANCH   4  20
TORSDOF 6
ENDMDL
MODEL 5
REMARK VINA RESULT:      -8.5      1.116     10.244
REMARK  Name = 
REMARK  8 active torsions:
REMARK  status: ('A' for Active; 'I' for Inactive)
REMARK    1  A    between atoms: C_1  and  C_2
REMARK    2  A    between atoms: C_4  and  C_5
REMARK    3  A    between atoms: C_5  and  N_6
REMARK    4  A    between atoms: C_7  and  C_9
REMARK    5  A    between atoms: C_12  and  C_13
REMARK    6  A    between atoms: N_15  and  C_16
REMARK    7  A    between atoms: C_16  and  C_17
REMARK    8  A    between atoms: C_22  and  C_23
REMARK                            x       y       z     vdW  Elec       q    Type
REMARK                         _______ _______ _______ _____ _____    ______ ____
ROOT
ATOM      1  C   UNL     1       1.509   9.346  19.552  0.00  0.00    +0.000 C 
ATOM      2  C   UNL     1       1.566   8.905  18.085  0.00  0.00    +0.000 C 
ATOM      3  C   UNL     1       2.597   7.802  17.883  0.00  0.00    +0.000 C 
ATOM      4  C   UNL     1       2.357   6.581  18.788  0.00  0.00    +0.000 C 
ATOM      5  C   UNL     1       2.164   7.008  20.252  0.00  0.00    +0.000 C 
ATOM      6  C   UNL     1       1.135   8.135  20.417  0.00  0.00    +0.000 C 
ENDROOT
BRANCH   1   8
ATOM      7  N   UNL     1       0.352  11.206  18.512  0.00  0.00    +0.000 N 
ATOM      8  C   UNL     1       0.568  10.545  19.707  0.00  0.00    +0.000 C 
ATOM      9  O   UNL     1       0.063  10.879  20.770  0.00  0.00    +0.000 OA
ATOM     10  H   UNL     1       0.948  10.992  17.724  0.00  0.00    +0.000 HD
BRANCH   7  11
ATOM     11  C   UNL     1      -0.505  12.367  18.392  0.00  0.00    +0.000 C 
BRANCH  11  15
ATOM     12  C   UNL     1      -5.349  12.243  19.937  0.00  0.00    +0.000 C 
ATOM     13  C   UNL     1      -4.280  11.893  18.939  0.00  0.00    +0.000 A 
ATOM     14  C   UNL     1      -2.949  12.311  19.118  0.00  0.00    +0.000 A 
ATOM     15  C   UNL     1      -1.952  11.966  18.185  0.00  0.00    +0.000 A 
ATOM     16  C   UNL     1      -2.311  11.198  17.066  0.00  0.00    +0.000 A 
ATOM     17  C   UNL     1      -3.628  10.780  16.885  0.00  0.00    +0.000 A 
ATOM     18  C   UNL     1      -4.602  11.131  17.815  0.00  0.00    +0.000 A 
ATOM     19  F   UNL     1      -5.864  10.714  17.631  0.00  0.00    +0.000 F 
ENDBRANCH  11  15
ENDBRANCH   7  11
ENDBRANCH   1   8
BRANCH   4  20
ATOM     20  C   UNL     1       3.516   5.583  18.635  0.00  0.00    +0.000 C 
ATOM     21  O   UNL     1       4.461   5.540  19.418  0.00  0.00    +0.000 OA
ATOM     22  N   UNL     1       3.443   4.768  17.526  0.00  0.00    +0.000 N 
ATOM     23  H   UNL     1       2.580   4.707  17.006  0.00  0.00    +0.000 HD
BRANCH  22  24
ATOM     24  C   UNL     1       4.443   3.748  17.291  0.00  0.00    +0.000 C 
BRANCH  24  25
ATOM     25  C   UNL     1       5.411   4.155  16.209  0.00  0.00    +0.000 A 
ATOM     26  C   UNL     1       6.458   5.049  16.472  0.00  0.00    +0.000 A 
ATOM     27  C   UNL     1       7.326   5.437  15.449  0.00  0.00    +0.000 A 
ATOM     28  C   UNL     1       7.160   4.924  14.167  0.00  0.00    +0.000 A 
ATOM     29  F   UNL     1       8.002   5.320  13.201  0.00  0.00    +0.000 F 
ATOM     30  C   UNL     1       6.141   4.016  13.878  0.00  0.00    +0.000 A 
ATOM     31  C   UNL     1       5.973   3.454  12.499  0.00  0.00    +0.000 C 
ATOM     32  C   UNL     1       5.271   3.633  14.910  0.00  0.00    +0.000 A 
ENDBRANCH  24  25
ENDBRANCH  22  24
ENDBRANCH   4  20
TORSDOF 6
ENDMDL
MODEL 6
REMARK VINA RESULT:      -8.5      3.966      5.801
REMARK  Name = 
REMARK  8 active torsions:
REMARK  status: ('A' for Active; 'I' for Inactive)
REMARK    1  A    between atoms: C_1  and  C_2
REMARK    2  A    between atoms: C_4  and  C_5
REMARK    3  A    between atoms: C_5  and  N_6
REMARK    4  A    between atoms: C_7  and  C_9
REMARK    5  A    between atoms: C_12  and  C_13
REMARK    6  A    between atoms: N_15  and  C_16
REMARK    7  A    between atoms: C_16  and  C_17
REMARK    8  A    between atoms: C_22  and  C_23
REMARK                            x       y       z     vdW  Elec       q    Type
REMARK                         _______ _______ _______ _____ _____    ______ ____
ROOT
ATOM      1  C   UNL     1       1.532   9.377  19.234  0.00  0.00    +0.000 C 
ATOM      2  C   UNL     1       1.257   8.582  20.516  0.00  0.00    +0.000 C 
ATOM      3  C   UNL     1       0.700   9.482  21.610  0.00  0.00    +0.000 C 
ATOM      4  C   UNL     1      -0.570  10.237  21.180  0.00  0.00    +0.000 C 
ATOM      5  C   UNL     1      -0.364  10.938  19.827  0.00  0.00    +0.000 C 
ATOM      6  C   UNL     1       0.220  10.009  18.753  0.00  0.00    +0.000 C 
ENDROOT
BRANCH   1   8
ATOM      7  N   UNL     1       2.600   7.260  18.718  0.00  0.00    +0.000 N 
ATOM      8  C   UNL     1       2.218   8.483  18.195  0.00  0.00    +0.000 C 
ATOM      9  O   UNL     1       2.406   8.813  17.032  0.00  0.00    +0.000 OA
ATOM     10  H   UNL     1       2.586   7.136  19.721  0.00  0.00    +0.000 HD
BRANCH   7  11
ATOM     11  C   UNL     1       3.260   6.236  17.936  0.00  0.00    +0.000 C 
BRANCH  11  15
ATOM     12  C   UNL     1       1.334   2.952  21.308  0.00  0.00    +0.000 C 
ATOM     13  C   UNL     1       1.849   3.270  19.932  0.00  0.00    +0.000 A 
ATOM     14  C   UNL     1       2.265   4.569  19.589  0.00  0.00    +0.000 A 
ATOM     15  C   UNL     1       2.759   4.853  18.301  0.00  0.00    +0.000 A 
ATOM     16  C   UNL     1       2.825   3.814  17.359  0.00  0.00    +0.000 A 
ATOM     17  C   UNL     1       2.414   2.526  17.694  0.00  0.00    +0.000 A 
ATOM     18  C   UNL     1       1.927   2.261  18.970  0.00  0.00    +0.000 A 
ATOM     19  F   UNL     1       1.543   1.013  19.279  0.00  0.00    +0.000 F 
ENDBRANCH  11  15
ENDBRANCH   7  11
ENDBRANCH   1   8
BRANCH   4  20
ATOM     20  C   UNL     1      -0.983  11.231  22.277  0.00  0.00    +0.000 C 
ATOM     21  O   UNL     1      -0.627  11.113  23.447  0.00  0.00    +0.000 OA
ATOM     22  N   UNL     1      -1.821  12.243  21.864  0.00  0.00    +0.000 N 
ATOM     23  H   UNL     1      -1.953  12.413  20.878  0.00  0.00    +0.000 HD
BRANCH  22  24
ATOM     24  C   UNL     1      -2.244  13.276  22.786  0.00  0.00    +0.000 C 
BRANCH  24  25
ATOM     25  C   UNL     1      -3.692  13.119  23.175  0.00  0.00    +0.000 A 
ATOM     26  C   UNL     1      -4.054  12.526  24.394  0.00  0.00    +0.000 A 
ATOM     27  C   UNL     1      -5.401  12.362  24.724  0.00  0.00    +0.000 A 
ATOM     28  C   UNL     1      -6.388  12.799  23.846  0.00  0.00    +0.000 A 
ATOM     29  F   UNL     1      -7.673  12.621  24.183  0.00  0.00    +0.000 F 
ATOM     30  C   UNL     1      -6.060  13.412  22.637  0.00  0.00    +0.000 A 
ATOM     31  C   UNL     1      -7.125  13.896  21.700  0.00  0.00    +0.000 C 
ATOM     32  C   UNL     1      -4.705  13.571  22.311  0.00  0.00    +0.000 A 
ENDBRANCH  24  25
ENDBRANCH  22  24
ENDBRANCH   4  20
TORSDOF 6
ENDMDL
MODEL 7
REMARK VINA RESULT:      -8.5      0.676      9.842
REMARK  Name = 
REMARK  8 active torsions:
REMARK  status: ('A' for Active; 'I' for Inactive)
REMARK    1  A    between atoms: C_1  and  C_2
REMARK    2  A    between atoms: C_4  and  C_5
REMARK    3  A    between atoms: C_5  and  N_6
REMARK    4  A    between atoms: C_7  and  C_9
REMARK    5  A    between atoms: C_12  and  C_13
REMARK    6  A    between atoms: N_15  and  C_16
REMARK    7  A    between atoms: C_16  and  C_17
REMARK    8  A    between atoms: C_22  and  C_23
REMARK                            x       y       z     vdW  Elec       q    Type
REMARK                         _______ _______ _______ _____ _____    ______ ____
ROOT
ATOM      1  C   UNL     1       1.976   7.478  20.339  0.00  0.00    +0.000 C 
ATOM      2  C   UNL     1       2.108   7.613  18.817  0.00  0.00    +0.000 C 
ATOM      3  C   UNL     1       2.856   6.426  18.225  0.00  0.00    +0.000 C 
ATOM      4  C   UNL     1       2.214   5.073  18.576  0.00  0.00    +0.000 C 
ATOM      5  C   UNL     1       1.947   4.964  20.087  0.00  0.00    +0.000 C 
ATOM      6  C   UNL     1       1.213   6.186  20.656  0.00  0.00    +0.000 C 
ENDROOT
BRANCH   1   8
ATOM      7  N   UNL     1       0.981   9.656  19.955  0.00  0.00    +0.000 N 
ATOM      8  C   UNL     1       1.344   8.743  20.928  0.00  0.00    +0.000 C 
ATOM      9  O   UNL     1       1.178   8.925  22.127  0.00  0.00    +0.000 OA
ATOM     10  H   UNL     1       1.321   9.522  19.012  0.00  0.00    +0.000 HD
BRANCH   7  11
ATOM     11  C   UNL     1       0.356  10.927  20.255  0.00  0.00    +0.000 C 
BRANCH  11  15
ATOM     12  C   UNL     1      -2.663   9.873  16.301  0.00  0.00    +0.000 C 
ATOM     13  C   UNL     1      -2.394  10.597  17.590  0.00  0.00    +0.000 A 
ATOM     14  C   UNL     1      -1.199  10.398  18.304  0.00  0.00    +0.000 A 
ATOM     15  C   UNL     1      -0.950  11.093  19.504  0.00  0.00    +0.000 A 
ATOM     16  C   UNL     1      -1.922  11.987  19.981  0.00  0.00    +0.000 A 
ATOM     17  C   UNL     1      -3.108  12.188  19.276  0.00  0.00    +0.000 A 
ATOM     18  C   UNL     1      -3.339  11.493  18.093  0.00  0.00    +0.000 A 
ATOM     19  F   UNL     1      -4.482  11.704  17.423  0.00  0.00    +0.000 F 
ENDBRANCH  11  15
ENDBRANCH   7  11
ENDBRANCH   1   8
BRANCH   4  20
ATOM     20  C   UNL     1       3.104   3.926  18.072  0.00  0.00    +0.000 C 
ATOM     21  O   UNL     1       2.769   2.747  18.140  0.00  0.00    +0.000 OA
ATOM     22  N   UNL     1       4.331   4.314  17.578  0.00  0.00    +0.000 N 
ATOM     23  H   UNL     1       4.505   5.287  17.376  0.00  0.00    +0.000 HD
BRANCH  22  24
ATOM     24  C   UNL     1       5.246   3.338  17.023  0.00  0.00    +0.000 C 
BRANCH  24  25
ATOM     25  C   UNL     1       5.931   3.857  15.784  0.00  0.00    +0.000 A 
ATOM     26  C   UNL     1       6.901   4.866  15.862  0.00  0.00    +0.000 A 
ATOM     27  C   UNL     1       7.503   5.355  14.700  0.00  0.00    +0.000 A 
ATOM     28  C   UNL     1       7.149   4.830  13.462  0.00  0.00    +0.000 A 
ATOM     29  F   UNL     1       7.735   5.323  12.362  0.00  0.00    +0.000 F 
ATOM     30  C   UNL     1       6.203   3.810  13.353  0.00  0.00    +0.000 A 
ATOM     31  C   UNL     1       5.833   3.236  12.019  0.00  0.00    +0.000 C 
ATOM     32  C   UNL     1       5.600   3.326  14.524  0.00  0.00    +0.000 A 
ENDBRANCH  24  25
ENDBRANCH  22  24
ENDBRANCH   4  20
TORSDOF 6
ENDMDL
MODEL 8
REMARK VINA RESULT:      -8.5      2.324      3.044
REMARK  Name = 
REMARK  8 active torsions:
REMARK  status: ('A' for Active; 'I' for Inactive)
REMARK    1  A    between atoms: C_1  and  C_2
REMARK    2  A    between atoms: C_4  and  C_5
REMARK    3  A    between atoms: C_5  and  N_6
REMARK    4  A    between atoms: C_7  and  C_9
REMARK    5  A    between atoms: C_12  and  C_13
REMARK    6  A    between atoms: N_15  and  C_16
REMARK    7  A    between atoms: C_16  and  C_17
REMARK    8  A    between atoms: C_22  and  C_23
REMARK                            x       y       z     vdW  Elec       q    Type
REMARK                         _______ _______ _______ _____ _____    ______ ____
ROOT
ATOM      1  C   UNL     1       2.367   6.819  18.817  0.00  0.00    +0.000 C 
ATOM      2  C   UNL     1       2.714   7.972  17.868  0.00  0.00    +0.000 C 
ATOM      3  C   UNL     1       1.603   9.014  17.842  0.00  0.00    +0.000 C 
ATOM      4  C   UNL     1       1.264   9.568  19.237  0.00  0.00    +0.000 C 
ATOM      5  C   UNL     1       1.040   8.428  20.244  0.00  0.00    +0.000 C 
ATOM      6  C   UNL     1       2.166   7.385  20.229  0.00  0.00    +0.000 C 
ENDROOT
BRANCH   1   8
ATOM      7  N   UNL     1       3.293   4.944  17.589  0.00  0.00    +0.000 N 
ATOM      8  C   UNL     1       3.431   5.721  18.725  0.00  0.00    +0.000 C 
ATOM      9  O   UNL     1       4.306   5.550  19.563  0.00  0.00    +0.000 OA
ATOM     10  H   UNL     1       2.441   5.020  17.049  0.00  0.00    +0.000 HD
BRANCH   7  11
ATOM     11  C   UNL     1       4.179   3.846  17.268  0.00  0.00    +0.000 C 
BRANCH  11  15
ATOM     12  C   UNL     1       6.085   3.530  12.564  0.00  0.00    +0.000 C 
ATOM     13  C   UNL     1       6.126   4.079  13.963  0.00  0.00    +0.000 A 
ATOM     14  C   UNL     1       5.145   3.738  14.910  0.00  0.00    +0.000 A 
ATOM     15  C   UNL     1       5.201   4.247  16.223  0.00  0.00    +0.000 A 
ATOM     16  C   UNL     1       6.255   5.107  16.569  0.00  0.00    +0.000 A 
ATOM     17  C   UNL     1       7.229   5.448  15.634  0.00  0.00    +0.000 A 
ATOM     18  C   UNL     1       7.159   4.938  14.341  0.00  0.00    +0.000 A 
ATOM     19  F   UNL     1       8.111   5.269  13.454  0.00  0.00    +0.000 F 
ENDBRANCH  11  15
ENDBRANCH   7  11
ENDBRANCH   1   8
BRANCH   4  20
ATOM     20  C   UNL     1       0.041  10.495  19.146  0.00  0.00    +0.000 C 
ATOM     21  O   UNL     1      -1.001  10.165  18.587  0.00  0.00    +0.000 OA
ATOM     22  N   UNL     1       0.214  11.745  19.699  0.00  0.00    +0.000 N 
ATOM     23  H   UNL     1       1.007  11.923  20.297  0.00  0.00    +0.000 HD
BRANCH  22  24
ATOM     24  C   UNL     1      -0.876  12.698  19.727  0.00  0.00    +0.000 C 
BRANCH  24  25
ATOM     25  C   UNL     1      -1.704  12.562  20.980  0.00  0.00    +0.000 A 
ATOM     26  C   UNL     1      -1.134  12.113  22.180  0.00  0.00    +0.000 A 
ATOM     27  C   UNL     1      -1.924  11.965  23.322  0.00  0.00    +0.000 A 
ATOM     28  C   UNL     1      -3.279  12.276  23.273  0.00  0.00    +0.000 A 
ATOM     29  F   UNL     1      -4.016  12.116  24.382  0.00  0.00    +0.000 F 
ATOM     30  C   UNL     1      -3.871  12.745  22.101  0.00  0.00    +0.000 A 
ATOM     31  C   UNL     1      -5.328  13.093  22.054  0.00  0.00    +0.000 C 
ATOM     32  C   UNL     1      -3.072  12.889  20.956  0.00  0.00    +0.000 A 
ENDBRANCH  24  25
ENDBRANCH  22  24
ENDBRANCH   4  20
TORSDOF 6
ENDMDL
MODEL 9
REMARK VINA RESULT:      -8.4      0.501      1.284
REMARK  Name = 
REMARK  8 active torsions:
REMARK  status: ('A' for Active; 'I' for Inactive)
REMARK    1  A    between atoms: C_1  and  C_2
REMARK    2  A    between atoms: C_4  and  C_5
REMARK    3  A    between atoms: C_5  and  N_6
REMARK    4  A    between atoms: C_7  and  C_9
REMARK    5  A    between atoms: C_12  and  C_13
REMARK    6  A    between atoms: N_15  and  C_16
REMARK    7  A    between atoms: C_16  and  C_17
REMARK    8  A    between atoms: C_22  and  C_23
REMARK                            x       y       z     vdW  Elec       q    Type
REMARK                         _______ _______ _______ _____ _____    ______ ____
ROOT
ATOM      1  C   UNL     1       2.331   5.367  19.070  0.00  0.00    +0.000 C 
ATOM      2  C   UNL     1       3.005   6.649  18.567  0.00  0.00    +0.000 C 
ATOM      3  C   UNL     1       2.124   7.866  18.820  0.00  0.00    +0.000 C 
ATOM      4  C   UNL     1       1.729   8.027  20.298  0.00  0.00    +0.000 C 
ATOM      5  C   UNL     1       1.171   6.712  20.867  0.00  0.00    +0.000 C 
ATOM      6  C   UNL     1       2.071   5.503  20.576  0.00  0.00    +0.000 C 
ENDROOT
BRANCH   1   8
ATOM      7  N   UNL     1       4.062   4.414  17.663  0.00  0.00    +0.000 N 
ATOM      8  C   UNL     1       3.169   4.143  18.684  0.00  0.00    +0.000 C 
ATOM      9  O   UNL     1       3.061   3.049  19.220  0.00  0.00    +0.000 OA
ATOM     10  H   UNL     1       3.961   5.277  17.145  0.00  0.00    +0.000 HD
BRANCH   7  11
ATOM     11  C   UNL     1       4.973   3.426  17.124  0.00  0.00    +0.000 C 
BRANCH  11  15
ATOM     12  C   UNL     1       6.002   3.307  12.146  0.00  0.00    +0.000 C 
ATOM     13  C   UNL     1       6.217   3.885  13.517  0.00  0.00    +0.000 A 
ATOM     14  C   UNL     1       5.491   3.418  14.627  0.00  0.00    +0.000 A 
ATOM     15  C   UNL     1       5.710   3.956  15.911  0.00  0.00    +0.000 A 
ATOM     16  C   UNL     1       6.665   4.974  16.063  0.00  0.00    +0.000 A 
ATOM     17  C   UNL     1       7.387   5.439  14.965  0.00  0.00    +0.000 A 
ATOM     18  C   UNL     1       7.158   4.898  13.704  0.00  0.00    +0.000 A 
ATOM     19  F   UNL     1       7.867   5.351  12.659  0.00  0.00    +0.000 F 
ENDBRANCH  11  15
ENDBRANCH   7  11
ENDBRANCH   1   8
BRANCH   4  20
ATOM     20  C   UNL     1       0.726   9.182  20.447  0.00  0.00    +0.000 C 
ATOM     21  O   UNL     1      -0.127   9.209  21.329  0.00  0.00    +0.000 OA
ATOM     22  N   UNL     1       0.824  10.167  19.488  0.00  0.00    +0.000 N 
ATOM     23  H   UNL     1       1.635  10.205  18.889  0.00  0.00    +0.000 HD
BRANCH  22  24
ATOM     24  C   UNL     1      -0.027  11.337  19.541  0.00  0.00    +0.000 C 
BRANCH  24  25
ATOM     25  C   UNL     1      -1.299  11.139  18.757  0.00  0.00    +0.000 A 
ATOM     26  C   UNL     1      -1.330  10.310  17.626  0.00  0.00    +0.000 A 
ATOM     27  C   UNL     1      -2.511  10.163  16.894  0.00  0.00    +0.000 A 
ATOM     28  C   UNL     1      -3.664  10.830  17.295  0.00  0.00    +0.000 A 
ATOM     29  F   UNL     1      -4.781  10.678  16.570  0.00  0.00    +0.000 F 
ATOM     30  C   UNL     1      -3.670  11.644  18.428  0.00  0.00    +0.000 A 
ATOM     31  C   UNL     1      -4.917  12.351  18.867  0.00  0.00    +0.000 C 
ATOM     32  C   UNL     1      -2.480  11.790  19.157  0.00  0.00    +0.000 A 
ENDBRANCH  24  25
ENDBRANCH  22  24
ENDBRANCH   4  20
TORSDOF 6
ENDMDL
