MODEL 1
REMARK VINA RESULT:      -8.5      0.000      0.000
REMARK  Name = 
REMARK  3 active torsions:
REMARK  status: ('A' for Active; 'I' for Inactive)
REMARK    1  A    between atoms: C_2  and  C_3
REMARK    2  A    between atoms: C_6  and  C_7
REMARK    3  A    between atoms: C_10  and  C_11
REMARK                            x       y       z     vdW  Elec       q    Type
REMARK                         _______ _______ _______ _____ _____    ______ ____
ROOT
ATOM      1  C   UNL     1       1.131   9.663  19.897  0.00  0.00    +0.000 A 
ATOM      2  C   UNL     1       1.735   9.330  18.680  0.00  0.00    +0.000 A 
ATOM      3  C   UNL     1       2.202   8.026  18.474  0.00  0.00    +0.000 A 
ATOM      4  C   UNL     1       2.078   7.058  19.483  0.00  0.00    +0.000 A 
ATOM      5  C   UNL     1       1.358   7.381  20.643  0.00  0.00    +0.000 A 
ATOM      6  C   UNL     1       0.843   8.668  20.824  0.00  0.00    +0.000 A 
ENDROOT
BRANCH   1   8
ATOM      7  O   UNL     1       1.299  11.531  21.257  0.00  0.00    +0.000 OA
ATOM      8  C   UNL     1       0.850  11.088  20.200  0.00  0.00    +0.000 C 
ATOM      9  N   UNL     1       0.023  11.841  19.324  0.00  0.00    +0.000 N 
ATOM     10  C   UNL     1      -0.552  13.083  19.920  0.00  0.00    +0.000 C 
ATOM     11  C   UNL     1      -2.016  12.716  20.133  0.00  0.00    +0.000 C 
ATOM     12  C   UNL     1      -2.539  12.723  21.544  0.00  0.00    +0.000 C 
ATOM     13  C   UNL     1      -3.071  13.709  20.542  0.00  0.00    +0.000 C 
ATOM     14  C   UNL     1      -2.280  11.623  19.154  0.00  0.00    +0.000 A 
ATOM     15  C   UNL     1      -3.457  11.065  18.682  0.00  0.00    +0.000 A 
ATOM     16  C   UNL     1      -3.400  10.135  17.635  0.00  0.00    +0.000 A 
ATOM     17  C   UNL     1      -2.176   9.810  17.032  0.00  0.00    +0.000 A 
ATOM     18  C   UNL     1      -0.997  10.364  17.518  0.00  0.00    +0.000 A 
ATOM     19  C   UNL     1      -1.051  11.202  18.614  0.00  0.00    +0.000 A 
ENDBRANCH   1   8
BRANCH   4  20
ATOM     20  C   UNL     1       2.714   5.750  19.356  0.00  0.00    +0.000 A 
ATOM     21  N   UNL     1       4.021   5.529  19.565  0.00  0.00    +0.000 NA
ATOM     22  O   UNL     1       4.168   4.159  19.371  0.00  0.00    +0.000 OA
ATOM     23  C   UNL     1       2.933   3.670  19.065  0.00  0.00    +0.000 A 
ATOM     24  N   UNL     1       2.001   4.607  19.056  0.00  0.00    +0.000 NA
BRANCH  23  25
ATOM     25  C   UNL     1       2.861   2.212  18.787  0.00  0.00    +0.000 C 
ATOM     26  F   UNL     1       2.713   1.934  17.463  0.00  0.00    +0.000 F 
ATOM     27  F   UNL     1       3.981   1.553  19.193  0.00  0.00    +0.000 F 
ATOM     28  F   UNL     1       1.812   1.622  19.420  0.00  0.00    +0.000 F 
ENDBRANCH  23  25
ENDBRANCH   4  20
TORSDOF 3
ENDMDL
MODEL 2
REMARK VINA RESULT:      -8.3      1.068      1.166
REMARK  Name = 
REMARK  3 active torsions:
REMARK  status: ('A' for Active; 'I' for Inactive)
REMARK    1  A    between atoms: C_2  and  C_3
REMARK    2  A    between atoms: C_6  and  C_7
REMARK    3  A    between atoms: C_10  and  C_11
REMARK                            x       y       z     vdW  Elec       q    Type
REMARK                         _______ _______ _______ _____ _____    ______ ____
ROOT
ATOM      1  C   UNL     1       0.623  10.116  20.328  0.00  0.00    +0.000 A 
ATOM      2  C   UNL     1       1.402   9.779  19.216  0.00  0.00    +0.000 A 
ATOM      3  C   UNL     1       1.896   8.476  19.087  0.00  0.00    +0.000 A 
ATOM      4  C   UNL     1       1.624   7.511  20.070  0.00  0.00    +0.000 A 
ATOM      5  C   UNL     1       0.740   7.837  21.109  0.00  0.00    +0.000 A 
ATOM      6  C   UNL     1       0.201   9.124  21.206  0.00  0.00    +0.000 A 
ENDROOT
BRANCH   1   8
ATOM      7  O   UNL     1       0.676  12.017  21.651  0.00  0.00    +0.000 OA
ATOM      8  C   UNL     1       0.298  11.541  20.580  0.00  0.00    +0.000 C 
ATOM      9  N   UNL     1      -0.492  12.257  19.641  0.00  0.00    +0.000 N 
ATOM     10  C   UNL     1      -1.124  13.501  20.173  0.00  0.00    +0.000 C 
ATOM     11  C   UNL     1      -2.590  13.108  20.311  0.00  0.00    +0.000 C 
ATOM     12  C   UNL     1      -3.194  13.137  21.689  0.00  0.00    +0.000 C 
ATOM     13  C   UNL     1      -3.686  14.089  20.635  0.00  0.00    +0.000 C 
ATOM     14  C   UNL     1      -2.776  11.988  19.345  0.00  0.00    +0.000 A 
ATOM     15  C   UNL     1      -3.913  11.396  18.820  0.00  0.00    +0.000 A 
ATOM     16  C   UNL     1      -3.779  10.443  17.801  0.00  0.00    +0.000 A 
ATOM     17  C   UNL     1      -2.516  10.129  17.276  0.00  0.00    +0.000 A 
ATOM     18  C   UNL     1      -1.377  10.719  17.815  0.00  0.00    +0.000 A 
ATOM     19  C   UNL     1      -1.511  11.580  18.886  0.00  0.00    +0.000 A 
ENDBRANCH   1   8
BRANCH   4  20
ATOM     20  C   UNL     1       2.274   6.204  20.044  0.00  0.00    +0.000 A 
ATOM     21  N   UNL     1       3.467   5.971  19.475  0.00  0.00    +0.000 NA
ATOM     22  O   UNL     1       3.702   4.622  19.720  0.00  0.00    +0.000 OA
ATOM     23  C   UNL     1       2.629   4.157  20.422  0.00  0.00    +0.000 A 
ATOM     24  N   UNL     1       1.729   5.095  20.658  0.00  0.00    +0.000 NA
BRANCH  23  25
ATOM     25  C   UNL     1       2.657   2.713  20.770  0.00  0.00    +0.000 C 
ATOM     26  F   UNL     1       2.157   1.922  19.782  0.00  0.00    +0.000 F 
ATOM     27  F   UNL     1       3.918   2.265  21.017  0.00  0.00    +0.000 F 
ATOM     28  F   UNL     1       1.924   2.441  21.884  0.00  0.00    +0.000 F 
ENDBRANCH  23  25
ENDBRANCH   4  20
TORSDOF 3
ENDMDL
MODEL 3
REMARK VINA RESULT:      -8.3      1.457      1.767
REMARK  Name = 
REMARK  3 active torsions:
REMARK  status: ('A' for Active; 'I' for Inactive)
REMARK    1  A    between atoms: C_2  and  C_3
REMARK    2  A    between atoms: C_6  and  C_7
REMARK    3  A    between atoms: C_10  and  C_11
REMARK                            x       y       z     vdW  Elec       q    Type
REMARK                         _______ _______ _______ _____ _____    ______ ____
ROOT
ATOM      1  C   UNL     1       1.005  10.221  19.597  0.00  0.00    +0.000 A 
ATOM      2  C   UNL     1       1.601  10.008  18.350  0.00  0.00    +0.000 A 
ATOM      3  C   UNL     1       2.191   8.771  18.069  0.00  0.00    +0.000 A 
ATOM      4  C   UNL     1       2.200   7.750  19.032  0.00  0.00    +0.000 A 
ATOM      5  C   UNL     1       1.489   7.944  20.226  0.00  0.00    +0.000 A 
ATOM      6  C   UNL     1       0.850   9.161  20.483  0.00  0.00    +0.000 A 
ENDROOT
BRANCH   1   8
ATOM      7  O   UNL     1       1.057  12.049  21.020  0.00  0.00    +0.000 OA
ATOM      8  C   UNL     1       0.590  11.594  19.977  0.00  0.00    +0.000 C 
ATOM      9  N   UNL     1      -0.373  12.278  19.188  0.00  0.00    +0.000 N 
ATOM     10  C   UNL     1      -1.040  13.427  19.870  0.00  0.00    +0.000 C 
ATOM     11  C   UNL     1      -2.436  12.889  20.161  0.00  0.00    +0.000 C 
ATOM     12  C   UNL     1      -2.860  12.789  21.602  0.00  0.00    +0.000 C 
ATOM     13  C   UNL     1      -3.565  13.742  20.677  0.00  0.00    +0.000 C 
ATOM     14  C   UNL     1      -2.644  11.807  19.157  0.00  0.00    +0.000 A 
ATOM     15  C   UNL     1      -3.782  11.136  18.738  0.00  0.00    +0.000 A 
ATOM     16  C   UNL     1      -3.694  10.254  17.652  0.00  0.00    +0.000 A 
ATOM     17  C   UNL     1      -2.486  10.090  16.958  0.00  0.00    +0.000 A 
ATOM     18  C   UNL     1      -1.344  10.758  17.391  0.00  0.00    +0.000 A 
ATOM     19  C   UNL     1      -1.416  11.547  18.522  0.00  0.00    +0.000 A 
ENDBRANCH   1   8
BRANCH   4  20
ATOM     20  C   UNL     1       2.962   6.522  18.825  0.00  0.00    +0.000 A 
ATOM     21  N   UNL     1       3.139   5.582  19.766  0.00  0.00    +0.000 NA
ATOM     22  O   UNL     1       3.881   4.596  19.125  0.00  0.00    +0.000 OA
ATOM     23  C   UNL     1       4.086   5.026  17.847  0.00  0.00    +0.000 A 
ATOM     24  N   UNL     1       3.529   6.200  17.608  0.00  0.00    +0.000 NA
BRANCH  23  25
ATOM     25  C   UNL     1       4.893   4.129  16.980  0.00  0.00    +0.000 C 
ATOM     26  F   UNL     1       4.515   2.824  17.073  0.00  0.00    +0.000 F 
ATOM     27  F   UNL     1       4.800   4.460  15.664  0.00  0.00    +0.000 F 
ATOM     28  F   UNL     1       6.215   4.165  17.297  0.00  0.00    +0.000 F 
ENDBRANCH  23  25
ENDBRANCH   4  20
TORSDOF 3
ENDMDL
MODEL 4
REMARK VINA RESULT:      -8.0      0.989      1.281
REMARK  Name = 
REMARK  3 active torsions:
REMARK  status: ('A' for Active; 'I' for Inactive)
REMARK    1  A    between atoms: C_2  and  C_3
REMARK    2  A    between atoms: C_6  and  C_7
REMARK    3  A    between atoms: C_10  and  C_11
REMARK                            x       y       z     vdW  Elec       q    Type
REMARK                         _______ _______ _______ _____ _____    ______ ____
ROOT
ATOM      1  C   UNL     1       0.973   9.792  20.237  0.00  0.00    +0.000 A 
ATOM      2  C   UNL     1       1.681   9.306  19.133  0.00  0.00    +0.000 A 
ATOM      3  C   UNL     1       2.008   7.947  19.066  0.00  0.00    +0.000 A 
ATOM      4  C   UNL     1       1.642   7.073  20.102  0.00  0.00    +0.000 A 
ATOM      5  C   UNL     1       0.827   7.558  21.136  0.00  0.00    +0.000 A 
ATOM      6  C   UNL     1       0.452   8.905  21.173  0.00  0.00    +0.000 A 
ENDROOT
BRANCH   1   8
ATOM      7  O   UNL     1       1.315  11.742  21.441  0.00  0.00    +0.000 OA
ATOM      8  C   UNL     1       0.830  11.257  20.418  0.00  0.00    +0.000 C 
ATOM      9  N   UNL     1       0.084  12.011  19.474  0.00  0.00    +0.000 N 
ATOM     10  C   UNL     1      -0.370  13.348  19.958  0.00  0.00    +0.000 C 
ATOM     11  C   UNL     1      -1.864  13.143  20.183  0.00  0.00    +0.000 C 
ATOM     12  C   UNL     1      -2.390  13.318  21.582  0.00  0.00    +0.000 C 
ATOM     13  C   UNL     1      -2.819  14.264  20.495  0.00  0.00    +0.000 C 
ATOM     14  C   UNL     1      -2.229  12.002  19.295  0.00  0.00    +0.000 A 
ATOM     15  C   UNL     1      -3.452  11.524  18.855  0.00  0.00    +0.000 A 
ATOM     16  C   UNL     1      -3.482  10.508  17.890  0.00  0.00    +0.000 A 
ATOM     17  C   UNL     1      -2.293  10.018  17.330  0.00  0.00    +0.000 A 
ATOM     18  C   UNL     1      -1.067  10.494  17.783  0.00  0.00    +0.000 A 
ATOM     19  C   UNL     1      -1.045  11.422  18.806  0.00  0.00    +0.000 A 
ENDBRANCH   1   8
BRANCH   4  20
ATOM     20  C   UNL     1       2.127   5.697  20.136  0.00  0.00    +0.000 A 
ATOM     21  N   UNL     1       1.459   4.681  20.706  0.00  0.00    +0.000 NA
ATOM     22  O   UNL     1       2.264   3.572  20.470  0.00  0.00    +0.000 OA
ATOM     23  C   UNL     1       3.349   4.014  19.771  0.00  0.00    +0.000 A 
ATOM     24  N   UNL     1       3.305   5.312  19.529  0.00  0.00    +0.000 NA
BRANCH  23  25
ATOM     25  C   UNL     1       4.367   2.986  19.432  0.00  0.00    +0.000 C 
ATOM     26  F   UNL     1       5.479   3.515  18.853  0.00  0.00    +0.000 F 
ATOM     27  F   UNL     1       4.795   2.302  20.528  0.00  0.00    +0.000 F 
ATOM     28  F   UNL     1       3.887   2.060  18.559  0.00  0.00    +0.000 F 
ENDBRANCH  23  25
ENDBRANCH   4  20
TORSDOF 3
ENDMDL
MODEL 5
REMARK VINA RESULT:      -7.9      1.446      1.852
REMARK  Name = 
REMARK  3 active torsions:
REMARK  status: ('A' for Active; 'I' for Inactive)
REMARK    1  A    between atoms: C_2  and  C_3
REMARK    2  A    between atoms: C_6  and  C_7
REMARK    3  A    between atoms: C_10  and  C_11
REMARK                            x       y       z     vdW  Elec       q    Type
REMARK                         _______ _______ _______ _____ _____    ______ ____
ROOT
ATOM      1  C   UNL     1       0.785  10.866  19.768  0.00  0.00    +0.000 A 
ATOM      2  C   UNL     1       1.448  10.940  18.538  0.00  0.00    +0.000 A 
ATOM      3  C   UNL     1       2.015   9.785  17.988  0.00  0.00    +0.000 A 
ATOM      4  C   UNL     1       1.932   8.559  18.666  0.00  0.00    +0.000 A 
ATOM      5  C   UNL     1       1.156   8.484  19.832  0.00  0.00    +0.000 A 
ATOM      6  C   UNL     1       0.543   9.628  20.352  0.00  0.00    +0.000 A 
ENDROOT
BRANCH   1   8
ATOM      7  O   UNL     1       0.901  12.336  21.555  0.00  0.00    +0.000 OA
ATOM      8  C   UNL     1       0.391  12.120  20.455  0.00  0.00    +0.000 C 
ATOM      9  N   UNL     1      -0.599  12.957  19.875  0.00  0.00    +0.000 N 
ATOM     10  C   UNL     1      -1.233  13.925  20.818  0.00  0.00    +0.000 C 
ATOM     11  C   UNL     1      -2.620  13.331  21.038  0.00  0.00    +0.000 C 
ATOM     12  C   UNL     1      -2.987  12.915  22.436  0.00  0.00    +0.000 C 
ATOM     13  C   UNL     1      -3.723  14.045  21.772  0.00  0.00    +0.000 C 
ATOM     14  C   UNL     1      -2.871  12.495  19.829  0.00  0.00    +0.000 A 
ATOM     15  C   UNL     1      -4.028  11.929  19.317  0.00  0.00    +0.000 A 
ATOM     16  C   UNL     1      -3.986  11.308  18.061  0.00  0.00    +0.000 A 
ATOM     17  C   UNL     1      -2.806  11.305  17.302  0.00  0.00    +0.000 A 
ATOM     18  C   UNL     1      -1.646  11.866  17.826  0.00  0.00    +0.000 A 
ATOM     19  C   UNL     1      -1.670  12.386  19.105  0.00  0.00    +0.000 A 
ENDBRANCH   1   8
BRANCH   4  20
ATOM     20  C   UNL     1       2.666   7.387  18.198  0.00  0.00    +0.000 A 
ATOM     21  N   UNL     1       3.805   7.449  17.491  0.00  0.00    +0.000 NA
ATOM     22  O   UNL     1       4.160   6.117  17.302  0.00  0.00    +0.000 OA
ATOM     23  C   UNL     1       3.203   5.364  17.916  0.00  0.00    +0.000 A 
ATOM     24  N   UNL     1       2.269   6.098  18.494  0.00  0.00    +0.000 NA
BRANCH  23  25
ATOM     25  C   UNL     1       3.369   3.891  17.814  0.00  0.00    +0.000 C 
ATOM     26  F   UNL     1       4.411   3.424  18.554  0.00  0.00    +0.000 F 
ATOM     27  F   UNL     1       2.266   3.216  18.237  0.00  0.00    +0.000 F 
ATOM     28  F   UNL     1       3.602   3.491  16.534  0.00  0.00    +0.000 F 
ENDBRANCH  23  25
ENDBRANCH   4  20
TORSDOF 3
ENDMDL
MODEL 6
REMARK VINA RESULT:      -7.9      1.428      1.686
REMARK  Name = 
REMARK  3 active torsions:
REMARK  status: ('A' for Active; 'I' for Inactive)
REMARK    1  A    between atoms: C_2  and  C_3
REMARK    2  A    between atoms: C_6  and  C_7
REMARK    3  A    between atoms: C_10  and  C_11
REMARK                            x       y       z     vdW  Elec       q    Type
REMARK                         _______ _______ _______ _____ _____    ______ ____
ROOT
ATOM      1  C   UNL     1       1.373  10.675  19.186  0.00  0.00    +0.000 A 
ATOM      2  C   UNL     1       1.913  10.052  18.056  0.00  0.00    +0.000 A 
ATOM      3  C   UNL     1       2.171   8.677  18.081  0.00  0.00    +0.000 A 
ATOM      4  C   UNL     1       1.903   7.923  19.234  0.00  0.00    +0.000 A 
ATOM      5  C   UNL     1       1.246   8.543  20.308  0.00  0.00    +0.000 A 
ATOM      6  C   UNL     1       0.938   9.906  20.260  0.00  0.00    +0.000 A 
ENDROOT
BRANCH   1   8
ATOM      7  O   UNL     1       2.198  12.723  19.887  0.00  0.00    +0.000 OA
ATOM      8  C   UNL     1       1.317  12.156  19.241  0.00  0.00    +0.000 C 
ATOM      9  N   UNL     1       0.230  12.840  18.635  0.00  0.00    +0.000 N 
ATOM     10  C   UNL     1       0.027  14.240  19.110  0.00  0.00    +0.000 C 
ATOM     11  C   UNL     1      -1.217  14.129  19.984  0.00  0.00    +0.000 C 
ATOM     12  C   UNL     1      -1.079  14.476  21.442  0.00  0.00    +0.000 C 
ATOM     13  C   UNL     1      -1.945  15.321  20.550  0.00  0.00    +0.000 C 
ATOM     14  C   UNL     1      -1.928  12.920  19.481  0.00  0.00    +0.000 A 
ATOM     15  C   UNL     1      -3.219  12.455  19.676  0.00  0.00    +0.000 A 
ATOM     16  C   UNL     1      -3.663  11.346  18.944  0.00  0.00    +0.000 A 
ATOM     17  C   UNL     1      -2.836  10.743  17.984  0.00  0.00    +0.000 A 
ATOM     18  C   UNL     1      -1.538  11.208  17.800  0.00  0.00    +0.000 A 
ATOM     19  C   UNL     1      -1.075  12.237  18.597  0.00  0.00    +0.000 A 
ENDBRANCH   1   8
BRANCH   4  20
ATOM     20  C   UNL     1       2.328   6.530  19.342  0.00  0.00    +0.000 A 
ATOM     21  N   UNL     1       3.175   5.937  18.486  0.00  0.00    +0.000 NA
ATOM     22  O   UNL     1       3.318   4.649  18.990  0.00  0.00    +0.000 OA
ATOM     23  C   UNL     1       2.546   4.576  20.112  0.00  0.00    +0.000 A 
ATOM     24  N   UNL     1       1.926   5.713  20.379  0.00  0.00    +0.000 NA
BRANCH  23  25
ATOM     25  C   UNL     1       2.527   3.263  20.804  0.00  0.00    +0.000 C 
ATOM     26  F   UNL     1       1.607   2.405  20.284  0.00  0.00    +0.000 F 
ATOM     27  F   UNL     1       3.726   2.624  20.734  0.00  0.00    +0.000 F 
ATOM     28  F   UNL     1       2.229   3.385  22.126  0.00  0.00    +0.000 F 
ENDBRANCH  23  25
ENDBRANCH   4  20
TORSDOF 3
ENDMDL
MODEL 7
REMARK VINA RESULT:      -7.7      2.040      2.540
REMARK  Name = 
REMARK  3 active torsions:
REMARK  status: ('A' for Active; 'I' for Inactive)
REMARK    1  A    between atoms: C_2  and  C_3
REMARK    2  A    between atoms: C_6  and  C_7
REMARK    3  A    between atoms: C_10  and  C_11
REMARK                            x       y       z     vdW  Elec       q    Type
REMARK                         _______ _______ _______ _____ _____    ______ ____
ROOT
ATOM      1  C   UNL     1       0.529  11.117  20.023  0.00  0.00    +0.000 A 
ATOM      2  C   UNL     1       1.193  11.100  18.792  0.00  0.00    +0.000 A 
ATOM      3  C   UNL     1       1.797   9.917  18.350  0.00  0.00    +0.000 A 
ATOM      4  C   UNL     1       1.751   8.756  19.136  0.00  0.00    +0.000 A 
ATOM      5  C   UNL     1       0.975   8.764  20.305  0.00  0.00    +0.000 A 
ATOM      6  C   UNL     1       0.324   9.931  20.718  0.00  0.00    +0.000 A 
ENDROOT
BRANCH   1   8
ATOM      7  O   UNL     1       0.571  12.733  21.683  0.00  0.00    +0.000 OA
ATOM      8  C   UNL     1       0.094  12.416  20.593  0.00  0.00    +0.000 C 
ATOM      9  N   UNL     1      -0.895  13.182  19.920  0.00  0.00    +0.000 N 
ATOM     10  C   UNL     1      -1.571  14.211  20.763  0.00  0.00    +0.000 C 
ATOM     11  C   UNL     1      -2.952  13.609  20.997  0.00  0.00    +0.000 C 
ATOM     12  C   UNL     1      -3.349  13.304  22.416  0.00  0.00    +0.000 C 
ATOM     13  C   UNL     1      -4.087  14.360  21.642  0.00  0.00    +0.000 C 
ATOM     14  C   UNL     1      -3.156  12.671  19.857  0.00  0.00    +0.000 A 
ATOM     15  C   UNL     1      -4.288  12.041  19.366  0.00  0.00    +0.000 A 
ATOM     16  C   UNL     1      -4.202  11.318  18.168  0.00  0.00    +0.000 A 
ATOM     17  C   UNL     1      -3.003  11.277  17.441  0.00  0.00    +0.000 A 
ATOM     18  C   UNL     1      -1.867  11.902  17.945  0.00  0.00    +0.000 A 
ATOM     19  C   UNL     1      -1.935  12.526  19.175  0.00  0.00    +0.000 A 
ENDBRANCH   1   8
BRANCH   4  20
ATOM     20  C   UNL     1       2.523   7.570  18.778  0.00  0.00    +0.000 A 
ATOM     21  N   UNL     1       2.500   6.422  19.474  0.00  0.00    +0.000 NA
ATOM     22  O   UNL     1       3.340   5.576  18.759  0.00  0.00    +0.000 OA
ATOM     23  C   UNL     1       3.795   6.285  17.686  0.00  0.00    +0.000 A 
ATOM     24  N   UNL     1       3.311   7.514  17.646  0.00  0.00    +0.000 NA
BRANCH  23  25
ATOM     25  C   UNL     1       4.742   5.574  16.790  0.00  0.00    +0.000 C 
ATOM     26  F   UNL     1       4.249   4.392  16.332  0.00  0.00    +0.000 F 
ATOM     27  F   UNL     1       5.062   6.308  15.689  0.00  0.00    +0.000 F 
ATOM     28  F   UNL     1       5.915   5.281  17.415  0.00  0.00    +0.000 F 
ENDBRANCH  23  25
ENDBRANCH   4  20
TORSDOF 3
ENDMDL
MODEL 8
REMARK VINA RESULT:      -7.7      1.501      1.783
REMARK  Name = 
REMARK  3 active torsions:
REMARK  status: ('A' for Active; 'I' for Inactive)
REMARK    1  A    between atoms: C_2  and  C_3
REMARK    2  A    between atoms: C_6  and  C_7
REMARK    3  A    between atoms: C_10  and  C_11
REMARK                            x       y       z     vdW  Elec       q    Type
REMARK                         _______ _______ _______ _____ _____    ______ ____
ROOT
ATOM      1  C   UNL     1       1.275  10.930  19.241  0.00  0.00    +0.000 A 
ATOM      2  C   UNL     1       1.872  10.476  18.060  0.00  0.00    +0.000 A 
ATOM      3  C   UNL     1       2.195   9.122  17.925  0.00  0.00    +0.000 A 
ATOM      4  C   UNL     1       1.935   8.219  18.969  0.00  0.00    +0.000 A 
ATOM      5  C   UNL     1       1.224   8.672  20.090  0.00  0.00    +0.000 A 
ATOM      6  C   UNL     1       0.851  10.016  20.200  0.00  0.00    +0.000 A 
ENDROOT
BRANCH   1   8
ATOM      7  O   UNL     1       1.968  12.906  20.232  0.00  0.00    +0.000 OA
ATOM      8  C   UNL     1       1.147  12.389  19.475  0.00  0.00    +0.000 C 
ATOM      9  N   UNL     1       0.058  13.098  18.901  0.00  0.00    +0.000 N 
ATOM     10  C   UNL     1      -0.233  14.418  19.534  0.00  0.00    +0.000 C 
ATOM     11  C   UNL     1      -1.510  14.148  20.321  0.00  0.00    +0.000 C 
ATOM     12  C   UNL     1      -1.458  14.314  21.816  0.00  0.00    +0.000 C 
ATOM     13  C   UNL     1      -2.319  15.228  20.989  0.00  0.00    +0.000 C 
ATOM     14  C   UNL     1      -2.139  12.983  19.636  0.00  0.00    +0.000 A 
ATOM     15  C   UNL     1      -3.414  12.445  19.704  0.00  0.00    +0.000 A 
ATOM     16  C   UNL     1      -3.770  11.418  18.818  0.00  0.00    +0.000 A 
ATOM     17  C   UNL     1      -2.871  10.976  17.836  0.00  0.00    +0.000 A 
ATOM     18  C   UNL     1      -1.589  11.512  17.780  0.00  0.00    +0.000 A 
ATOM     19  C   UNL     1      -1.213  12.451  18.720  0.00  0.00    +0.000 A 
ENDBRANCH   1   8
BRANCH   4  20
ATOM     20  C   UNL     1       2.424   6.845  18.918  0.00  0.00    +0.000 A 
ATOM     21  N   UNL     1       2.314   5.973  19.932  0.00  0.00    +0.000 NA
ATOM     22  O   UNL     1       2.872   4.800  19.432  0.00  0.00    +0.000 OA
ATOM     23  C   UNL     1       3.267   5.066  18.154  0.00  0.00    +0.000 A 
ATOM     24  N   UNL     1       3.002   6.307  17.786  0.00  0.00    +0.000 NA
BRANCH  23  25
ATOM     25  C   UNL     1       3.925   3.947  17.432  0.00  0.00    +0.000 C 
ATOM     26  F   UNL     1       4.408   4.316  16.214  0.00  0.00    +0.000 F 
ATOM     27  F   UNL     1       4.980   3.434  18.122  0.00  0.00    +0.000 F 
ATOM     28  F   UNL     1       3.070   2.913  17.204  0.00  0.00    +0.000 F 
ENDBRANCH  23  25
ENDBRANCH   4  20
TORSDOF 3
ENDMDL
MODEL 9
REMARK VINA RESULT:      -7.7      1.547      2.138
REMARK  Name = 
REMARK  3 active torsions:
REMARK  status: ('A' for Active; 'I' for Inactive)
REMARK    1  A    between atoms: C_2  and  C_3
REMARK    2  A    between atoms: C_6  and  C_7
REMARK    3  A    between atoms: C_10  and  C_11
REMARK                            x       y       z     vdW  Elec       q    Type
REMARK                         _______ _______ _______ _____ _____    ______ ____
ROOT
ATOM      1  C   UNL     1      -0.057  10.779  21.188  0.00  0.00    +0.000 A 
ATOM      2  C   UNL     1      -0.473   9.656  21.910  0.00  0.00    +0.000 A 
ATOM      3  C   UNL     1       0.135   8.418  21.673  0.00  0.00    +0.000 A 
ATOM      4  C   UNL     1       1.149   8.295  20.711  0.00  0.00    +0.000 A 
ATOM      5  C   UNL     1       1.635   9.456  20.091  0.00  0.00    +0.000 A 
ATOM      6  C   UNL     1       1.065  10.702  20.370  0.00  0.00    +0.000 A 
ENDROOT
BRANCH   1   8
ATOM      7  O   UNL     1      -1.003  12.519  22.390  0.00  0.00    +0.000 OA
ATOM      8  C   UNL     1      -0.851  12.030  21.271  0.00  0.00    +0.000 C 
ATOM      9  N   UNL     1      -1.463  12.550  20.100  0.00  0.00    +0.000 N 
ATOM     10  C   UNL     1      -2.571  13.519  20.349  0.00  0.00    +0.000 C 
ATOM     11  C   UNL     1      -3.817  12.712  20.003  0.00  0.00    +0.000 C 
ATOM     12  C   UNL     1      -4.819  12.470  21.099  0.00  0.00    +0.000 C 
ATOM     13  C   UNL     1      -5.196  13.310  19.910  0.00  0.00    +0.000 C 
ATOM     14  C   UNL     1      -3.337  11.655  19.068  0.00  0.00    +0.000 A 
ATOM     15  C   UNL     1      -4.011  10.798  18.212  0.00  0.00    +0.000 A 
ATOM     16  C   UNL     1      -3.275   9.997  17.328  0.00  0.00    +0.000 A 
ATOM     17  C   UNL     1      -1.877  10.098  17.265  0.00  0.00    +0.000 A 
ATOM     18  C   UNL     1      -1.206  10.952  18.134  0.00  0.00    +0.000 A 
ATOM     19  C   UNL     1      -1.931  11.662  19.070  0.00  0.00    +0.000 A 
ENDBRANCH   1   8
BRANCH   4  20
ATOM     20  C   UNL     1       1.669   6.986  20.325  0.00  0.00    +0.000 A 
ATOM     21  N   UNL     1       2.579   6.797  19.356  0.00  0.00    +0.000 NA
ATOM     22  O   UNL     1       2.799   5.424  19.362  0.00  0.00    +0.000 OA
ATOM     23  C   UNL     1       2.004   4.901  20.339  0.00  0.00    +0.000 A 
ATOM     24  N   UNL     1       1.298   5.823  20.970  0.00  0.00    +0.000 NA
BRANCH  23  25
ATOM     25  C   UNL     1       2.059   3.426  20.502  0.00  0.00    +0.000 C 
ATOM     26  F   UNL     1       1.689   2.756  19.377  0.00  0.00    +0.000 F 
ATOM     27  F   UNL     1       3.309   2.987  20.815  0.00  0.00    +0.000 F 
ATOM     28  F   UNL     1       1.236   2.990  21.494  0.00  0.00    +0.000 F 
ENDBRANCH  23  25
ENDBRANCH   4  20
TORSDOF 3
ENDMDL
