MODEL 1
REMARK VINA RESULT:      -9.1      0.000      0.000
REMARK  Name = 
REMARK  7 active torsions:
REMARK  status: ('A' for Active; 'I' for Inactive)
REMARK    1  A    between atoms: C_1  and  C_2
REMARK    2  A    between atoms: N_4  and  C_5
REMARK    3  A    between atoms: C_13  and  C_14
REMARK    4  A    between atoms: C_14  and  N_15
REMARK    5  A    between atoms: N_15  and  C_16
REMARK    6  A    between atoms: C_22  and  C_23
REMARK    7  A    between atoms: C_23  and  O_25
REMARK                            x       y       z     vdW  Elec       q    Type
REMARK                         _______ _______ _______ _____ _____    ______ ____
ROOT
ATOM      1  N   UNL     1       4.530   3.222  17.766  0.00  0.00    +0.000 N 
ATOM      2  H   UNL     1       4.584   2.227  17.551  0.00  0.00    +0.000 HD
ENDROOT
BRANCH   1   3
ATOM      3  C   UNL     1       5.420   3.936  16.959  0.00  0.00    +0.000 A 
ATOM      4  C   UNL     1       6.451   4.768  17.403  0.00  0.00    +0.000 A 
ATOM      5  C   UNL     1       7.334   5.422  16.505  0.00  0.00    +0.000 A 
ATOM      6  C   UNL     1       7.174   5.131  15.145  0.00  0.00    +0.000 A 
ATOM      7  N   UNL     1       7.898   5.459  14.023  0.00  0.00    +0.000 N 
ATOM      8  N   UNL     1       7.465   4.854  12.891  0.00  0.00    +0.000 NA
ATOM      9  C   UNL     1       6.362   4.178  13.297  0.00  0.00    +0.000 A 
ATOM     10  C   UNL     1       6.128   4.362  14.677  0.00  0.00    +0.000 A 
ATOM     11  C   UNL     1       5.172   3.873  15.584  0.00  0.00    +0.000 A 
ATOM     12  H   UNL     1       8.728   6.037  13.975  0.00  0.00    +0.000 HD
BRANCH   9  13
ATOM     13  C   UNL     1       5.628   3.277  12.394  0.00  0.00    +0.000 C 
ATOM     14  O   UNL     1       4.488   3.452  12.008  0.00  0.00    +0.000 OA
BRANCH  13  15
ATOM     15  O   UNL     1       6.355   2.173  12.073  0.00  0.00    +0.000 OA
ATOM     16  H   UNL     1       5.723   1.421  12.026  0.00  0.00    +0.000 HD
ENDBRANCH  13  15
ENDBRANCH   9  13
ENDBRANCH   1   3
BRANCH   1  17
ATOM     17  C   UNL     1       4.470   3.391  19.213  0.00  0.00    +0.000 C 
BRANCH  17  23
ATOM     18  C   UNL     1       1.659   3.180  21.258  0.00  0.00    +0.000 C 
ATOM     19  C   UNL     1       2.303   4.310  20.537  0.00  0.00    +0.000 A 
ATOM     20  N   UNL     1       1.731   5.512  20.699  0.00  0.00    +0.000 NA
ATOM     21  N   UNL     1       2.345   6.321  19.814  0.00  0.00    +0.000 N 
ATOM     22  C   UNL     1       3.355   5.668  19.163  0.00  0.00    +0.000 A 
ATOM     23  C   UNL     1       3.426   4.379  19.656  0.00  0.00    +0.000 A 
BRANCH  21  24
ATOM     24  C   UNL     1       1.923   7.663  19.626  0.00  0.00    +0.000 A 
ATOM     25  C   UNL     1       1.324   8.363  20.687  0.00  0.00    +0.000 A 
ATOM     26  C   UNL     1       0.881   9.674  20.496  0.00  0.00    +0.000 A 
ATOM     27  C   UNL     1       1.024  10.277  19.245  0.00  0.00    +0.000 A 
ATOM     28 CL   UNL     1       0.446  11.878  18.995  0.00  0.00    +0.000 Cl
ATOM     29  C   UNL     1       1.624   9.591  18.194  0.00  0.00    +0.000 A 
ATOM     30  C   UNL     1       2.082   8.286  18.382  0.00  0.00    +0.000 A 
ENDBRANCH  21  24
ENDBRANCH  17  23
ENDBRANCH   1  17
TORSDOF 6
ENDMDL
MODEL 2
REMARK VINA RESULT:      -8.8      3.264      4.627
REMARK  Name = 
REMARK  7 active torsions:
REMARK  status: ('A' for Active; 'I' for Inactive)
REMARK    1  A    between atoms: C_1  and  C_2
REMARK    2  A    between atoms: N_4  and  C_5
REMARK    3  A    between atoms: C_13  and  C_14
REMARK    4  A    between atoms: C_14  and  N_15
REMARK    5  A    between atoms: N_15  and  C_16
REMARK    6  A    between atoms: C_22  and  C_23
REMARK    7  A    between atoms: C_23  and  O_25
REMARK                            x       y       z     vdW  Elec       q    Type
REMARK                         _______ _______ _______ _____ _____    ______ ____
ROOT
ATOM      1  N   UNL     1       2.388   4.774  19.334  0.00  0.00    +0.000 N 
ATOM      2  H   UNL     1       1.939   3.921  19.666  0.00  0.00    +0.000 HD
ENDROOT
BRANCH   1   3
ATOM      3  C   UNL     1       3.417   4.459  18.442  0.00  0.00    +0.000 A 
ATOM      4  C   UNL     1       3.264   3.933  17.158  0.00  0.00    +0.000 A 
ATOM      5  C   UNL     1       4.370   3.682  16.306  0.00  0.00    +0.000 A 
ATOM      6  C   UNL     1       5.629   4.063  16.786  0.00  0.00    +0.000 A 
ATOM      7  N   UNL     1       6.880   4.098  16.216  0.00  0.00    +0.000 N 
ATOM      8  N   UNL     1       7.827   4.667  16.999  0.00  0.00    +0.000 NA
ATOM      9  C   UNL     1       7.165   4.928  18.154  0.00  0.00    +0.000 A 
ATOM     10  C   UNL     1       5.815   4.527  18.072  0.00  0.00    +0.000 A 
ATOM     11  C   UNL     1       4.715   4.599  18.944  0.00  0.00    +0.000 A 
ATOM     12  H   UNL     1       7.137   3.807  15.281  0.00  0.00    +0.000 HD
BRANCH   9  13
ATOM     13  C   UNL     1       7.799   5.661  19.263  0.00  0.00    +0.000 C 
ATOM     14  O   UNL     1       7.858   5.272  20.413  0.00  0.00    +0.000 OA
BRANCH  13  15
ATOM     15  O   UNL     1       8.273   6.874  18.867  0.00  0.00    +0.000 OA
ATOM     16  H   UNL     1       7.522   7.346  18.441  0.00  0.00    +0.000 HD
ENDBRANCH  13  15
ENDBRANCH   9  13
ENDBRANCH   1   3
BRANCH   1  17
ATOM     17  C   UNL     1       2.573   5.683  20.460  0.00  0.00    +0.000 C 
BRANCH  17  23
ATOM     18  C   UNL     1       2.887   8.010  17.889  0.00  0.00    +0.000 C 
ATOM     19  C   UNL     1       2.088   7.989  19.143  0.00  0.00    +0.000 A 
ATOM     20  N   UNL     1       1.298   9.052  19.354  0.00  0.00    +0.000 NA
ATOM     21  N   UNL     1       0.840   8.913  20.613  0.00  0.00    +0.000 N 
ATOM     22  C   UNL     1       1.259   7.733  21.165  0.00  0.00    +0.000 A 
ATOM     23  C   UNL     1       2.005   7.054  20.220  0.00  0.00    +0.000 A 
BRANCH  21  24
ATOM     24  C   UNL     1       0.047   9.918  21.225  0.00  0.00    +0.000 A 
ATOM     25  C   UNL     1      -0.235  11.105  20.530  0.00  0.00    +0.000 A 
ATOM     26  C   UNL     1      -0.992  12.109  21.141  0.00  0.00    +0.000 A 
ATOM     27  C   UNL     1      -1.451  11.931  22.447  0.00  0.00    +0.000 A 
ATOM     28 CL   UNL     1      -2.349  13.179  23.218  0.00  0.00    +0.000 Cl
ATOM     29  C   UNL     1      -1.180  10.753  23.137  0.00  0.00    +0.000 A 
ATOM     30  C   UNL     1      -0.438   9.741  22.527  0.00  0.00    +0.000 A 
ENDBRANCH  21  24
ENDBRANCH  17  23
ENDBRANCH   1  17
TORSDOF 6
ENDMDL
MODEL 3
REMARK VINA RESULT:      -8.7      3.314      4.659
REMARK  Name = 
REMARK  7 active torsions:
REMARK  status: ('A' for Active; 'I' for Inactive)
REMARK    1  A    between atoms: C_1  and  C_2
REMARK    2  A    between atoms: N_4  and  C_5
REMARK    3  A    between atoms: C_13  and  C_14
REMARK    4  A    between atoms: C_14  and  N_15
REMARK    5  A    between atoms: N_15  and  C_16
REMARK    6  A    between atoms: C_22  and  C_23
REMARK    7  A    between atoms: C_23  and  O_25
REMARK                            x       y       z     vdW  Elec       q    Type
REMARK                         _______ _______ _______ _____ _____    ______ ____
ROOT
ATOM      1  N   UNL     1       2.329   5.018  19.591  0.00  0.00    +0.000 N 
ATOM      2  H   UNL     1       1.891   4.216  20.044  0.00  0.00    +0.000 HD
ENDROOT
BRANCH   1   3
ATOM      3  C   UNL     1       3.311   4.585  18.695  0.00  0.00    +0.000 A 
ATOM      4  C   UNL     1       3.095   3.865  17.519  0.00  0.00    +0.000 A 
ATOM      5  C   UNL     1       4.154   3.503  16.648  0.00  0.00    +0.000 A 
ATOM      6  C   UNL     1       5.430   3.973  16.984  0.00  0.00    +0.000 A 
ATOM      7  N   UNL     1       6.643   3.939  16.338  0.00  0.00    +0.000 N 
ATOM      8  N   UNL     1       7.621   4.638  16.965  0.00  0.00    +0.000 NA
ATOM      9  C   UNL     1       7.023   5.062  18.105  0.00  0.00    +0.000 A 
ATOM     10  C   UNL     1       5.680   4.633  18.170  0.00  0.00    +0.000 A 
ATOM     11  C   UNL     1       4.633   4.820  19.088  0.00  0.00    +0.000 A 
ATOM     12  H   UNL     1       6.852   3.512  15.444  0.00  0.00    +0.000 HD
BRANCH   9  13
ATOM     13  C   UNL     1       7.702   5.968  19.047  0.00  0.00    +0.000 C 
ATOM     14  O   UNL     1       8.156   7.059  18.762  0.00  0.00    +0.000 OA
BRANCH  13  15
ATOM     15  O   UNL     1       7.821   5.418  20.286  0.00  0.00    +0.000 OA
ATOM     16  H   UNL     1       8.512   4.723  20.222  0.00  0.00    +0.000 HD
ENDBRANCH  13  15
ENDBRANCH   9  13
ENDBRANCH   1   3
BRANCH   1  17
ATOM     17  C   UNL     1       2.576   6.051  20.591  0.00  0.00    +0.000 C 
BRANCH  17  23
ATOM     18  C   UNL     1       2.737   8.186  17.845  0.00  0.00    +0.000 C 
ATOM     19  C   UNL     1       1.957   8.222  19.110  0.00  0.00    +0.000 A 
ATOM     20  N   UNL     1       1.117   9.257  19.252  0.00  0.00    +0.000 NA
ATOM     21  N   UNL     1       0.683   9.193  20.526  0.00  0.00    +0.000 N 
ATOM     22  C   UNL     1       1.168   8.081  21.159  0.00  0.00    +0.000 A 
ATOM     23  C   UNL     1       1.936   7.370  20.256  0.00  0.00    +0.000 A 
BRANCH  21  24
ATOM     24  C   UNL     1      -0.153  10.202  21.073  0.00  0.00    +0.000 A 
ATOM     25  C   UNL     1      -0.377  10.249  22.458  0.00  0.00    +0.000 A 
ATOM     26  C   UNL     1      -1.222  11.224  22.996  0.00  0.00    +0.000 A 
ATOM     27  C   UNL     1      -1.851  12.137  22.148  0.00  0.00    +0.000 A 
ATOM     28 CL   UNL     1      -2.923  13.313  22.801  0.00  0.00    +0.000 Cl
ATOM     29  C   UNL     1      -1.626  12.098  20.776  0.00  0.00    +0.000 A 
ATOM     30  C   UNL     1      -0.771  11.137  20.234  0.00  0.00    +0.000 A 
ENDBRANCH  21  24
ENDBRANCH  17  23
ENDBRANCH   1  17
TORSDOF 6
ENDMDL
MODEL 4
REMARK VINA RESULT:      -8.6      0.688      1.159
REMARK  Name = 
REMARK  7 active torsions:
REMARK  status: ('A' for Active; 'I' for Inactive)
REMARK    1  A    between atoms: C_1  and  C_2
REMARK    2  A    between atoms: N_4  and  C_5
REMARK    3  A    between atoms: C_13  and  C_14
REMARK    4  A    between atoms: C_14  and  N_15
REMARK    5  A    between atoms: N_15  and  C_16
REMARK    6  A    between atoms: C_22  and  C_23
REMARK    7  A    between atoms: C_23  and  O_25
REMARK                            x       y       z     vdW  Elec       q    Type
REMARK                         _______ _______ _______ _____ _____    ______ ____
ROOT
ATOM      1  N   UNL     1       4.660   3.171  17.655  0.00  0.00    +0.000 N 
ATOM      2  H   UNL     1       5.013   3.188  18.611  0.00  0.00    +0.000 HD
ENDROOT
BRANCH   1   3
ATOM      3  C   UNL     1       5.497   3.918  16.822  0.00  0.00    +0.000 A 
ATOM      4  C   UNL     1       6.492   4.807  17.234  0.00  0.00    +0.000 A 
ATOM      5  C   UNL     1       7.324   5.492  16.311  0.00  0.00    +0.000 A 
ATOM      6  C   UNL     1       7.154   5.174  14.958  0.00  0.00    +0.000 A 
ATOM      7  N   UNL     1       7.839   5.523  13.818  0.00  0.00    +0.000 N 
ATOM      8  N   UNL     1       7.416   4.880  12.703  0.00  0.00    +0.000 NA
ATOM      9  C   UNL     1       6.357   4.155  13.139  0.00  0.00    +0.000 A 
ATOM     10  C   UNL     1       6.140   4.347  14.521  0.00  0.00    +0.000 A 
ATOM     11  C   UNL     1       5.227   3.823  15.452  0.00  0.00    +0.000 A 
ATOM     12  H   UNL     1       8.638   6.141  13.747  0.00  0.00    +0.000 HD
BRANCH   9  13
ATOM     13  C   UNL     1       5.653   3.205  12.262  0.00  0.00    +0.000 C 
ATOM     14  O   UNL     1       4.517   3.344  11.852  0.00  0.00    +0.000 OA
BRANCH  13  15
ATOM     15  O   UNL     1       6.405   2.102  11.998  0.00  0.00    +0.000 OA
ATOM     16  H   UNL     1       5.864   1.525  11.414  0.00  0.00    +0.000 HD
ENDBRANCH  13  15
ENDBRANCH   9  13
ENDBRANCH   1   3
BRANCH   1  17
ATOM     17  C   UNL     1       3.213   3.348  17.680  0.00  0.00    +0.000 C 
BRANCH  17  23
ATOM     18  C   UNL     1       2.239   3.610  21.012  0.00  0.00    +0.000 C 
ATOM     19  C   UNL     1       2.418   4.613  19.929  0.00  0.00    +0.000 A 
ATOM     20  N   UNL     1       2.191   5.890  20.268  0.00  0.00    +0.000 NA
ATOM     21  N   UNL     1       2.213   6.576  19.109  0.00  0.00    +0.000 N 
ATOM     22  C   UNL     1       2.541   5.763  18.058  0.00  0.00    +0.000 A 
ATOM     23  C   UNL     1       2.766   4.491  18.549  0.00  0.00    +0.000 A 
BRANCH  21  24
ATOM     24  C   UNL     1       1.905   7.961  19.065  0.00  0.00    +0.000 A 
ATOM     25  C   UNL     1       2.222   8.712  17.922  0.00  0.00    +0.000 A 
ATOM     26  C   UNL     1       1.945  10.082  17.888  0.00  0.00    +0.000 A 
ATOM     27  C   UNL     1       1.367  10.698  19.000  0.00  0.00    +0.000 A 
ATOM     28 CL   UNL     1       1.061  12.391  18.977  0.00  0.00    +0.000 Cl
ATOM     29  C   UNL     1       1.044   9.956  20.131  0.00  0.00    +0.000 A 
ATOM     30  C   UNL     1       1.304   8.585  20.166  0.00  0.00    +0.000 A 
ENDBRANCH  21  24
ENDBRANCH  17  23
ENDBRANCH   1  17
TORSDOF 6
ENDMDL
MODEL 5
REMARK VINA RESULT:      -8.4      0.917      1.169
REMARK  Name = 
REMARK  7 active torsions:
REMARK  status: ('A' for Active; 'I' for Inactive)
REMARK    1  A    between atoms: C_1  and  C_2
REMARK    2  A    between atoms: N_4  and  C_5
REMARK    3  A    between atoms: C_13  and  C_14
REMARK    4  A    between atoms: C_14  and  N_15
REMARK    5  A    between atoms: N_15  and  C_16
REMARK    6  A    between atoms: C_22  and  C_23
REMARK    7  A    between atoms: C_23  and  O_25
REMARK                            x       y       z     vdW  Elec       q    Type
REMARK                         _______ _______ _______ _____ _____    ______ ____
ROOT
ATOM      1  N   UNL     1       3.985   2.422  17.839  0.00  0.00    +0.000 N 
ATOM      2  H   UNL     1       4.384   1.900  18.620  0.00  0.00    +0.000 HD
ENDROOT
BRANCH   1   3
ATOM      3  C   UNL     1       4.887   3.398  17.405  0.00  0.00    +0.000 A 
ATOM      4  C   UNL     1       5.650   4.237  18.219  0.00  0.00    +0.000 A 
ATOM      5  C   UNL     1       6.573   5.173  17.686  0.00  0.00    +0.000 A 
ATOM      6  C   UNL     1       6.744   5.162  16.296  0.00  0.00    +0.000 A 
ATOM      7  N   UNL     1       7.615   5.811  15.452  0.00  0.00    +0.000 N 
ATOM      8  N   UNL     1       7.529   5.413  14.160  0.00  0.00    +0.000 NA
ATOM      9  C   UNL     1       6.497   4.534  14.169  0.00  0.00    +0.000 A 
ATOM     10  C   UNL     1       5.960   4.388  15.466  0.00  0.00    +0.000 A 
ATOM     11  C   UNL     1       4.937   3.601  16.022  0.00  0.00    +0.000 A 
ATOM     12  H   UNL     1       8.327   6.485  15.705  0.00  0.00    +0.000 HD
BRANCH   9  13
ATOM     13  C   UNL     1       6.124   3.762  12.972  0.00  0.00    +0.000 C 
ATOM     14  O   UNL     1       6.908   3.329  12.149  0.00  0.00    +0.000 OA
BRANCH  13  15
ATOM     15  O   UNL     1       4.776   3.629  12.850  0.00  0.00    +0.000 OA
ATOM     16  H   UNL     1       4.475   4.342  12.243  0.00  0.00    +0.000 HD
ENDBRANCH  13  15
ENDBRANCH   9  13
ENDBRANCH   1   3
BRANCH   1  17
ATOM     17  C   UNL     1       2.587   2.716  18.130  0.00  0.00    +0.000 C 
BRANCH  17  23
ATOM     18  C   UNL     1       2.301   3.385  21.535  0.00  0.00    +0.000 C 
ATOM     19  C   UNL     1       2.332   4.258  20.331  0.00  0.00    +0.000 A 
ATOM     20  N   UNL     1       2.260   5.577  20.561  0.00  0.00    +0.000 NA
ATOM     21  N   UNL     1       2.102   6.142  19.348  0.00  0.00    +0.000 N 
ATOM     22  C   UNL     1       2.163   5.205  18.353  0.00  0.00    +0.000 A 
ATOM     23  C   UNL     1       2.395   3.972  18.933  0.00  0.00    +0.000 A 
BRANCH  21  24
ATOM     24  C   UNL     1       1.884   7.538  19.208  0.00  0.00    +0.000 A 
ATOM     25  C   UNL     1       1.280   8.259  20.251  0.00  0.00    +0.000 A 
ATOM     26  C   UNL     1       1.038   9.627  20.104  0.00  0.00    +0.000 A 
ATOM     27  C   UNL     1       1.384  10.267  18.912  0.00  0.00    +0.000 A 
ATOM     28 CL   UNL     1       1.052  11.943  18.712  0.00  0.00    +0.000 Cl
ATOM     29  C   UNL     1       1.989   9.558  17.880  0.00  0.00    +0.000 A 
ATOM     30  C   UNL     1       2.248   8.194  18.026  0.00  0.00    +0.000 A 
ENDBRANCH  21  24
ENDBRANCH  17  23
ENDBRANCH   1  17
TORSDOF 6
ENDMDL
MODEL 6
REMARK VINA RESULT:      -8.4      3.014      4.160
REMARK  Name = 
REMARK  7 active torsions:
REMARK  status: ('A' for Active; 'I' for Inactive)
REMARK    1  A    between atoms: C_1  and  C_2
REMARK    2  A    between atoms: N_4  and  C_5
REMARK    3  A    between atoms: C_13  and  C_14
REMARK    4  A    between atoms: C_14  and  N_15
REMARK    5  A    between atoms: N_15  and  C_16
REMARK    6  A    between atoms: C_22  and  C_23
REMARK    7  A    between atoms: C_23  and  O_25
REMARK                            x       y       z     vdW  Elec       q    Type
REMARK                         _______ _______ _______ _____ _____    ______ ____
ROOT
ATOM      1  N   UNL     1       3.616   4.623  20.033  0.00  0.00    +0.000 N 
ATOM      2  H   UNL     1       4.094   5.246  20.685  0.00  0.00    +0.000 HD
ENDROOT
BRANCH   1   3
ATOM      3  C   UNL     1       4.378   4.470  18.871  0.00  0.00    +0.000 A 
ATOM      4  C   UNL     1       4.129   3.570  17.834  0.00  0.00    +0.000 A 
ATOM      5  C   UNL     1       4.937   3.514  16.669  0.00  0.00    +0.000 A 
ATOM      6  C   UNL     1       5.960   4.467  16.571  0.00  0.00    +0.000 A 
ATOM      7  N   UNL     1       6.838   4.801  15.567  0.00  0.00    +0.000 N 
ATOM      8  N   UNL     1       7.595   5.891  15.838  0.00  0.00    +0.000 NA
ATOM      9  C   UNL     1       7.243   6.212  17.107  0.00  0.00    +0.000 A 
ATOM     10  C   UNL     1       6.264   5.326  17.606  0.00  0.00    +0.000 A 
ATOM     11  C   UNL     1       5.550   5.233  18.813  0.00  0.00    +0.000 A 
ATOM     12  H   UNL     1       6.925   4.365  14.657  0.00  0.00    +0.000 HD
BRANCH   9  13
ATOM     13  C   UNL     1       7.752   7.424  17.770  0.00  0.00    +0.000 C 
ATOM     14  O   UNL     1       8.501   7.433  18.728  0.00  0.00    +0.000 OA
BRANCH  13  15
ATOM     15  O   UNL     1       7.241   8.559  17.221  0.00  0.00    +0.000 OA
ATOM     16  H   UNL     1       6.834   9.071  17.956  0.00  0.00    +0.000 HD
ENDBRANCH  13  15
ENDBRANCH   9  13
ENDBRANCH   1   3
BRANCH   1  17
ATOM     17  C   UNL     1       2.198   4.962  20.006  0.00  0.00    +0.000 C 
BRANCH  17  23
ATOM     18  C   UNL     1       3.175   7.467  17.794  0.00  0.00    +0.000 C 
ATOM     19  C   UNL     1       2.292   7.462  18.991  0.00  0.00    +0.000 A 
ATOM     20  N   UNL     1       1.717   8.632  19.302  0.00  0.00    +0.000 NA
ATOM     21  N   UNL     1       1.143   8.440  20.505  0.00  0.00    +0.000 N 
ATOM     22  C   UNL     1       1.271   7.140  20.912  0.00  0.00    +0.000 A 
ATOM     23  C   UNL     1       1.938   6.441  19.925  0.00  0.00    +0.000 A 
BRANCH  21  24
ATOM     24  C   UNL     1       0.522   9.507  21.205  0.00  0.00    +0.000 A 
ATOM     25  C   UNL     1      -0.111   9.262  22.434  0.00  0.00    +0.000 A 
ATOM     26  C   UNL     1      -0.748  10.306  23.112  0.00  0.00    +0.000 A 
ATOM     27  C   UNL     1      -0.764  11.585  22.553  0.00  0.00    +0.000 A 
ATOM     28 CL   UNL     1      -1.580  12.863  23.364  0.00  0.00    +0.000 Cl
ATOM     29  C   UNL     1      -0.131  11.834  21.339  0.00  0.00    +0.000 A 
ATOM     30  C   UNL     1       0.520  10.799  20.665  0.00  0.00    +0.000 A 
ENDBRANCH  21  24
ENDBRANCH  17  23
ENDBRANCH   1  17
TORSDOF 6
ENDMDL
MODEL 7
REMARK VINA RESULT:      -8.3      3.350      4.899
REMARK  Name = 
REMARK  7 active torsions:
REMARK  status: ('A' for Active; 'I' for Inactive)
REMARK    1  A    between atoms: C_1  and  C_2
REMARK    2  A    between atoms: N_4  and  C_5
REMARK    3  A    between atoms: C_13  and  C_14
REMARK    4  A    between atoms: C_14  and  N_15
REMARK    5  A    between atoms: N_15  and  C_16
REMARK    6  A    between atoms: C_22  and  C_23
REMARK    7  A    between atoms: C_23  and  O_25
REMARK                            x       y       z     vdW  Elec       q    Type
REMARK                         _______ _______ _______ _____ _____    ______ ____
ROOT
ATOM      1  N   UNL     1       2.850   5.504  20.611  0.00  0.00    +0.000 N 
ATOM      2  H   UNL     1       3.389   6.222  21.094  0.00  0.00    +0.000 HD
ENDROOT
BRANCH   1   3
ATOM      3  C   UNL     1       3.582   4.999  19.533  0.00  0.00    +0.000 A 
ATOM      4  C   UNL     1       3.065   4.310  18.434  0.00  0.00    +0.000 A 
ATOM      5  C   UNL     1       3.885   3.869  17.363  0.00  0.00    +0.000 A 
ATOM      6  C   UNL     1       5.237   4.229  17.421  0.00  0.00    +0.000 A 
ATOM      7  N   UNL     1       6.281   4.100  16.535  0.00  0.00    +0.000 N 
ATOM      8  N   UNL     1       7.422   4.709  16.937  0.00  0.00    +0.000 NA
ATOM      9  C   UNL     1       7.114   5.171  18.173  0.00  0.00    +0.000 A 
ATOM     10  C   UNL     1       5.784   4.854  18.522  0.00  0.00    +0.000 A 
ATOM     11  C   UNL     1       4.972   5.120  19.638  0.00  0.00    +0.000 A 
ATOM     12  H   UNL     1       6.261   3.665  15.621  0.00  0.00    +0.000 HD
BRANCH   9  13
ATOM     13  C   UNL     1       8.049   6.009  18.944  0.00  0.00    +0.000 C 
ATOM     14  O   UNL     1       8.370   7.145  18.654  0.00  0.00    +0.000 OA
BRANCH  13  15
ATOM     15  O   UNL     1       8.572   5.341  20.008  0.00  0.00    +0.000 OA
ATOM     16  H   UNL     1       9.113   4.606  19.643  0.00  0.00    +0.000 HD
ENDBRANCH  13  15
ENDBRANCH   9  13
ENDBRANCH   1   3
BRANCH   1  17
ATOM     17  C   UNL     1       1.468   5.953  20.483  0.00  0.00    +0.000 C 
BRANCH  17  23
ATOM     18  C   UNL     1       2.595   8.144  18.023  0.00  0.00    +0.000 C 
ATOM     19  C   UNL     1       1.753   8.330  19.235  0.00  0.00    +0.000 A 
ATOM     20  N   UNL     1       1.296   9.572  19.447  0.00  0.00    +0.000 NA
ATOM     21  N   UNL     1       0.745   9.544  20.676  0.00  0.00    +0.000 N 
ATOM     22  C   UNL     1       0.769   8.282  21.201  0.00  0.00    +0.000 A 
ATOM     23  C   UNL     1       1.340   7.436  20.269  0.00  0.00    +0.000 A 
BRANCH  21  24
ATOM     24  C   UNL     1       0.245  10.724  21.287  0.00  0.00    +0.000 A 
ATOM     25  C   UNL     1       0.708  11.981  20.864  0.00  0.00    +0.000 A 
ATOM     26  C   UNL     1       0.239  13.142  21.483  0.00  0.00    +0.000 A 
ATOM     27  C   UNL     1      -0.679  13.045  22.531  0.00  0.00    +0.000 A 
ATOM     28 CL   UNL     1      -1.230  14.469  23.322  0.00  0.00    +0.000 Cl
ATOM     29  C   UNL     1      -1.147  11.803  22.947  0.00  0.00    +0.000 A 
ATOM     30  C   UNL     1      -0.693  10.640  22.323  0.00  0.00    +0.000 A 
ENDBRANCH  21  24
ENDBRANCH  17  23
ENDBRANCH   1  17
TORSDOF 6
ENDMDL
MODEL 8
REMARK VINA RESULT:      -8.3      2.685      3.344
REMARK  Name = 
REMARK  7 active torsions:
REMARK  status: ('A' for Active; 'I' for Inactive)
REMARK    1  A    between atoms: C_1  and  C_2
REMARK    2  A    between atoms: N_4  and  C_5
REMARK    3  A    between atoms: C_13  and  C_14
REMARK    4  A    between atoms: C_14  and  N_15
REMARK    5  A    between atoms: N_15  and  C_16
REMARK    6  A    between atoms: C_22  and  C_23
REMARK    7  A    between atoms: C_23  and  O_25
REMARK                            x       y       z     vdW  Elec       q    Type
REMARK                         _______ _______ _______ _____ _____    ______ ____
ROOT
ATOM      1  N   UNL     1       3.892   2.439  18.045  0.00  0.00    +0.000 N 
ATOM      2  H   UNL     1       4.369   2.231  18.922  0.00  0.00    +0.000 HD
ENDROOT
BRANCH   1   3
ATOM      3  C   UNL     1       4.691   3.262  17.248  0.00  0.00    +0.000 A 
ATOM      4  C   UNL     1       4.544   3.478  15.876  0.00  0.00    +0.000 A 
ATOM      5  C   UNL     1       5.381   4.367  15.155  0.00  0.00    +0.000 A 
ATOM      6  C   UNL     1       6.322   5.087  15.904  0.00  0.00    +0.000 A 
ATOM      7  N   UNL     1       7.193   6.103  15.589  0.00  0.00    +0.000 N 
ATOM      8  N   UNL     1       7.849   6.617  16.657  0.00  0.00    +0.000 NA
ATOM      9  C   UNL     1       7.440   5.832  17.684  0.00  0.00    +0.000 A 
ATOM     10  C   UNL     1       6.529   4.848  17.246  0.00  0.00    +0.000 A 
ATOM     11  C   UNL     1       5.796   3.835  17.887  0.00  0.00    +0.000 A 
ATOM     12  H   UNL     1       7.338   6.529  14.682  0.00  0.00    +0.000 HD
BRANCH   9  13
ATOM     13  C   UNL     1       7.830   6.112  19.077  0.00  0.00    +0.000 C 
ATOM     14  O   UNL     1       7.489   5.456  20.042  0.00  0.00    +0.000 OA
BRANCH  13  15
ATOM     15  O   UNL     1       8.583   7.241  19.178  0.00  0.00    +0.000 OA
ATOM     16  H   UNL     1       8.831   7.499  18.262  0.00  0.00    +0.000 HD
ENDBRANCH  13  15
ENDBRANCH   9  13
ENDBRANCH   1   3
BRANCH   1  17
ATOM     17  C   UNL     1       2.491   2.733  18.326  0.00  0.00    +0.000 C 
BRANCH  17  23
ATOM     18  C   UNL     1       2.113   3.448  21.713  0.00  0.00    +0.000 C 
ATOM     19  C   UNL     1       2.192   4.305  20.500  0.00  0.00    +0.000 A 
ATOM     20  N   UNL     1       2.133   5.628  20.712  0.00  0.00    +0.000 NA
ATOM     21  N   UNL     1       2.019   6.180  19.489  0.00  0.00    +0.000 N 
ATOM     22  C   UNL     1       2.097   5.231  18.507  0.00  0.00    +0.000 A 
ATOM     23  C   UNL     1       2.293   4.002  19.108  0.00  0.00    +0.000 A 
BRANCH  21  24
ATOM     24  C   UNL     1       1.825   7.577  19.326  0.00  0.00    +0.000 A 
ATOM     25  C   UNL     1       1.345   8.346  20.398  0.00  0.00    +0.000 A 
ATOM     26  C   UNL     1       1.126   9.716  20.231  0.00  0.00    +0.000 A 
ATOM     27  C   UNL     1       1.371  10.310  18.992  0.00  0.00    +0.000 A 
ATOM     28 CL   UNL     1       1.065  11.988  18.771  0.00  0.00    +0.000 Cl
ATOM     29  C   UNL     1       1.853   9.554  17.929  0.00  0.00    +0.000 A 
ATOM     30  C   UNL     1       2.089   8.188  18.093  0.00  0.00    +0.000 A 
ENDBRANCH  21  24
ENDBRANCH  17  23
ENDBRANCH   1  17
TORSDOF 6
ENDMDL
MODEL 9
REMARK VINA RESULT:      -8.2      4.491      6.679
REMARK  Name = 
REMARK  7 active torsions:
REMARK  status: ('A' for Active; 'I' for Inactive)
REMARK    1  A    between atoms: C_1  and  C_2
REMARK    2  A    between atoms: N_4  and  C_5
REMARK    3  A    between atoms: C_13  and  C_14
REMARK    4  A    between atoms: C_14  and  N_15
REMARK    5  A    between atoms: N_15  and  C_16
REMARK    6  A    between atoms: C_22  and  C_23
REMARK    7  A    between atoms: C_23  and  O_25
REMARK                            x       y       z     vdW  Elec       q    Type
REMARK                         _______ _______ _______ _____ _____    ______ ____
ROOT
ATOM      1  N   UNL     1       2.291   8.023  18.972  0.00  0.00    +0.000 N 
ATOM      2  H   UNL     1       2.969   8.524  19.546  0.00  0.00    +0.000 HD
ENDROOT
BRANCH   1   3
ATOM      3  C   UNL     1       2.812   6.785  18.587  0.00  0.00    +0.000 A 
ATOM      4  C   UNL     1       3.741   6.560  17.568  0.00  0.00    +0.000 A 
ATOM      5  C   UNL     1       4.245   5.267  17.275  0.00  0.00    +0.000 A 
ATOM      6  C   UNL     1       3.825   4.227  18.114  0.00  0.00    +0.000 A 
ATOM      7  N   UNL     1       4.187   2.904  18.222  0.00  0.00    +0.000 N 
ATOM      8  N   UNL     1       3.621   2.263  19.272  0.00  0.00    +0.000 NA
ATOM      9  C   UNL     1       2.795   3.197  19.804  0.00  0.00    +0.000 A 
ATOM     10  C   UNL     1       2.864   4.410  19.086  0.00  0.00    +0.000 A 
ATOM     11  C   UNL     1       2.262   5.671  19.231  0.00  0.00    +0.000 A 
ATOM     12  H   UNL     1       4.856   2.402  17.652  0.00  0.00    +0.000 HD
BRANCH   9  13
ATOM     13  C   UNL     1       2.053   2.956  21.053  0.00  0.00    +0.000 C 
ATOM     14  O   UNL     1       2.560   2.699  22.128  0.00  0.00    +0.000 OA
BRANCH  13  15
ATOM     15  O   UNL     1       0.706   2.997  20.862  0.00  0.00    +0.000 OA
ATOM     16  H   UNL     1       0.366   2.094  21.049  0.00  0.00    +0.000 HD
ENDBRANCH  13  15
ENDBRANCH   9  13
ENDBRANCH   1   3
BRANCH   1  17
ATOM     17  C   UNL     1       1.692   8.955  18.023  0.00  0.00    +0.000 C 
BRANCH  17  23
ATOM     18  C   UNL     1       0.859  10.192  21.169  0.00  0.00    +0.000 C 
ATOM     19  C   UNL     1       0.175  10.240  19.849  0.00  0.00    +0.000 A 
ATOM     20  N   UNL     1      -0.989  10.903  19.815  0.00  0.00    +0.000 NA
ATOM     21  N   UNL     1      -1.511  10.646  18.600  0.00  0.00    +0.000 N 
ATOM     22  C   UNL     1      -0.651   9.904  17.838  0.00  0.00    +0.000 A 
ATOM     23  C   UNL     1       0.498   9.683  18.574  0.00  0.00    +0.000 A 
BRANCH  21  24
ATOM     24  C   UNL     1      -2.806  11.104  18.242  0.00  0.00    +0.000 A 
ATOM     25  C   UNL     1      -3.311  10.840  16.958  0.00  0.00    +0.000 A 
ATOM     26  C   UNL     1      -4.574  11.315  16.593  0.00  0.00    +0.000 A 
ATOM     27  C   UNL     1      -5.320  12.064  17.504  0.00  0.00    +0.000 A 
ATOM     28 CL   UNL     1      -6.858  12.684  17.045  0.00  0.00    +0.000 Cl
ATOM     29  C   UNL     1      -4.828  12.322  18.779  0.00  0.00    +0.000 A 
ATOM     30  C   UNL     1      -3.574  11.837  19.155  0.00  0.00    +0.000 A 
ENDBRANCH  21  24
ENDBRANCH  17  23
ENDBRANCH   1  17
TORSDOF 6
ENDMDL
