MODEL 1
REMARK VINA RESULT:      -7.3      0.000      0.000
REMARK  Name = 
REMARK  7 active torsions:
REMARK  status: ('A' for Active; 'I' for Inactive)
REMARK    1  A    between atoms: C_1  and  C_2
REMARK    2  A    between atoms: C_3  and  C_4
REMARK    3  A    between atoms: C_6  and  C_7
REMARK    4  A    between atoms: C_7  and  N_8
REMARK    5  A    between atoms: C_11  and  N_12
REMARK    6  A    between atoms: N_15  and  C_16
REMARK    7  A    between atoms: N_28  and  C_29
REMARK                            x       y       z     vdW  Elec       q    Type
REMARK                         _______ _______ _______ _____ _____    ______ ____
ROOT
ATOM      1  N   UNL     1       0.282  10.580  22.355  0.00  0.00    +0.000 NA
ATOM      2  C   UNL     1       0.001  10.712  20.920  0.00  0.00    +0.000 C 
ATOM      3  C   UNL     1      -0.234   9.308  20.398  0.00  0.00    +0.000 C 
ATOM      4  C   UNL     1       0.694   8.440  21.235  0.00  0.00    +0.000 C 
ATOM      5  C   UNL     1       1.042   9.315  22.464  0.00  0.00    +0.000 C 
ENDROOT
BRANCH   4   6
ATOM      6  N   UNL     1       1.889   7.992  20.522  0.00  0.00    +0.000 N 
ATOM      7  C   UNL     1       1.924   6.654  20.183  0.00  0.00    +0.000 C 
ATOM      8  O   UNL     1       1.039   5.896  20.576  0.00  0.00    +0.000 OA
ATOM      9  N   UNL     1       3.019   6.295  19.432  0.00  0.00    +0.000 N 
ATOM     10  H   UNL     1       2.336   8.630  19.880  0.00  0.00    +0.000 HD
ATOM     11  H   UNL     1       3.792   6.949  19.442  0.00  0.00    +0.000 HD
BRANCH   9  12
ATOM     12  C   UNL     1       3.273   4.988  18.970  0.00  0.00    +0.000 A 
ATOM     13  C   UNL     1       2.591   4.436  17.875  0.00  0.00    +0.000 A 
ATOM     14  C   UNL     1       2.763   3.101  17.517  0.00  0.00    +0.000 A 
ATOM     15  C   UNL     1       3.653   2.320  18.233  0.00  0.00    +0.000 A 
ATOM     16  F   UNL     1       3.801   1.029  17.911  0.00  0.00    +0.000 F 
ATOM     17  C   UNL     1       4.392   2.861  19.279  0.00  0.00    +0.000 A 
ATOM     18  C   UNL     1       4.209   4.201  19.647  0.00  0.00    +0.000 A 
ENDBRANCH   9  12
ENDBRANCH   4   6
BRANCH   1  19
ATOM     19  C   UNL     1      -0.926  10.502  23.189  0.00  0.00    +0.000 C 
BRANCH  19  22
ATOM     20  C   UNL     1      -2.511  13.736  23.800  0.00  0.00    +0.000 A 
ATOM     21  C   UNL     1      -1.332  13.097  23.355  0.00  0.00    +0.000 A 
ATOM     22  C   UNL     1      -1.689  11.773  23.270  0.00  0.00    +0.000 A 
ATOM     23  O   UNL     1      -3.033  11.660  23.445  0.00  0.00    +0.000 OA
ATOM     24  N   UNL     1      -3.556  12.900  23.770  0.00  0.00    +0.000 NA
BRANCH  20  27
ATOM     25  C   UNL     1      -4.718  16.214  23.361  0.00  0.00    +0.000 C 
ATOM     26  C   UNL     1      -3.492  16.099  24.192  0.00  0.00    +0.000 A 
ATOM     27  C   UNL     1      -2.565  15.084  24.362  0.00  0.00    +0.000 A 
ATOM     28  C   UNL     1      -1.674  15.574  25.340  0.00  0.00    +0.000 A 
ATOM     29  N   UNL     1      -1.981  16.806  25.747  0.00  0.00    +0.000 NA
ATOM     30  N   UNL     1      -3.084  17.107  25.036  0.00  0.00    +0.000 N 
ATOM     31  C   UNL     1      -3.715  18.391  25.238  0.00  0.00    +0.000 C 
ENDBRANCH  20  27
ENDBRANCH  19  22
ENDBRANCH   1  19
TORSDOF 5
ENDMDL
MODEL 2
REMARK VINA RESULT:      -7.2      9.599     12.222
REMARK  Name = 
REMARK  7 active torsions:
REMARK  status: ('A' for Active; 'I' for Inactive)
REMARK    1  A    between atoms: C_1  and  C_2
REMARK    2  A    between atoms: C_3  and  C_4
REMARK    3  A    between atoms: C_6  and  C_7
REMARK    4  A    between atoms: C_7  and  N_8
REMARK    5  A    between atoms: C_11  and  N_12
REMARK    6  A    between atoms: N_15  and  C_16
REMARK    7  A    between atoms: N_28  and  C_29
REMARK                            x       y       z     vdW  Elec       q    Type
REMARK                         _______ _______ _______ _____ _____    ______ ____
ROOT
ATOM      1  N   UNL     1       7.309   5.629  16.186  0.00  0.00    +0.000 NA
ATOM      2  C   UNL     1       7.302   4.961  17.495  0.00  0.00    +0.000 C 
ATOM      3  C   UNL     1       6.791   5.982  18.494  0.00  0.00    +0.000 C 
ATOM      4  C   UNL     1       7.313   7.311  17.968  0.00  0.00    +0.000 C 
ATOM      5  C   UNL     1       7.681   7.027  16.491  0.00  0.00    +0.000 C 
ENDROOT
BRANCH   4   6
ATOM      6  N   UNL     1       8.445   7.844  18.725  0.00  0.00    +0.000 N 
ATOM      7  C   UNL     1       8.619   9.212  18.666  0.00  0.00    +0.000 C 
ATOM      8  O   UNL     1       7.915   9.891  17.921  0.00  0.00    +0.000 OA
ATOM      9  N   UNL     1       9.634   9.682  19.466  0.00  0.00    +0.000 N 
ATOM     10  H   UNL     1       8.700   7.394  19.592  0.00  0.00    +0.000 HD
ATOM     11  H   UNL     1      10.300   8.988  19.783  0.00  0.00    +0.000 HD
BRANCH   9  12
ATOM     12  C   UNL     1      10.001  11.039  19.572  0.00  0.00    +0.000 A 
ATOM     13  C   UNL     1      10.799  11.675  18.610  0.00  0.00    +0.000 A 
ATOM     14  C   UNL     1      11.257  12.977  18.800  0.00  0.00    +0.000 A 
ATOM     15  C   UNL     1      10.882  13.664  19.941  0.00  0.00    +0.000 A 
ATOM     16  F   UNL     1      11.342  14.905  20.142  0.00  0.00    +0.000 F 
ATOM     17  C   UNL     1      10.036  13.080  20.878  0.00  0.00    +0.000 A 
ATOM     18  C   UNL     1       9.586  11.766  20.692  0.00  0.00    +0.000 A 
ENDBRANCH   9  12
ENDBRANCH   4   6
BRANCH   1  19
ATOM     19  C   UNL     1       6.007   5.602  15.505  0.00  0.00    +0.000 C 
BRANCH  19  22
ATOM     20  C   UNL     1       3.647   3.655  17.501  0.00  0.00    +0.000 A 
ATOM     21  C   UNL     1       3.890   4.915  16.909  0.00  0.00    +0.000 A 
ATOM     22  C   UNL     1       5.009   4.705  16.139  0.00  0.00    +0.000 A 
ATOM     23  O   UNL     1       5.286   3.374  16.107  0.00  0.00    +0.000 OA
ATOM     24  N   UNL     1       4.421   2.707  16.958  0.00  0.00    +0.000 NA
BRANCH  20  27
ATOM     25  C   UNL     1       4.249   2.210  20.459  0.00  0.00    +0.000 C 
ATOM     26  C   UNL     1       3.038   2.850  19.885  0.00  0.00    +0.000 A 
ATOM     27  C   UNL     1       2.778   3.432  18.655  0.00  0.00    +0.000 A 
ATOM     28  C   UNL     1       1.457   3.916  18.760  0.00  0.00    +0.000 A 
ATOM     29  N   UNL     1       0.903   3.648  19.942  0.00  0.00    +0.000 NA
ATOM     30  N   UNL     1       1.876   2.998  20.608  0.00  0.00    +0.000 N 
ATOM     31  C   UNL     1       1.625   2.562  21.962  0.00  0.00    +0.000 C 
ENDBRANCH  20  27
ENDBRANCH  19  22
ENDBRANCH   1  19
TORSDOF 5
ENDMDL
MODEL 3
REMARK VINA RESULT:      -7.1      6.376     10.214
REMARK  Name = 
REMARK  7 active torsions:
REMARK  status: ('A' for Active; 'I' for Inactive)
REMARK    1  A    between atoms: C_1  and  C_2
REMARK    2  A    between atoms: C_3  and  C_4
REMARK    3  A    between atoms: C_6  and  C_7
REMARK    4  A    between atoms: C_7  and  N_8
REMARK    5  A    between atoms: C_11  and  N_12
REMARK    6  A    between atoms: N_15  and  C_16
REMARK    7  A    between atoms: N_28  and  C_29
REMARK                            x       y       z     vdW  Elec       q    Type
REMARK                         _______ _______ _______ _____ _____    ______ ____
ROOT
ATOM      1  N   UNL     1       5.677   4.747  15.900  0.00  0.00    +0.000 NA
ATOM      2  C   UNL     1       7.131   4.598  16.047  0.00  0.00    +0.000 C 
ATOM      3  C   UNL     1       7.514   5.357  17.303  0.00  0.00    +0.000 C 
ATOM      4  C   UNL     1       6.545   6.529  17.340  0.00  0.00    +0.000 C 
ATOM      5  C   UNL     1       5.399   6.116  16.385  0.00  0.00    +0.000 C 
ENDROOT
BRANCH   4   6
ATOM      6  N   UNL     1       7.145   7.806  16.959  0.00  0.00    +0.000 N 
ATOM      7  C   UNL     1       7.942   8.407  17.913  0.00  0.00    +0.000 C 
ATOM      8  O   UNL     1       8.022   7.924  19.041  0.00  0.00    +0.000 OA
ATOM      9  N   UNL     1       8.562   9.557  17.481  0.00  0.00    +0.000 N 
ATOM     10  H   UNL     1       7.415   7.945  15.996  0.00  0.00    +0.000 HD
ATOM     11  H   UNL     1       8.173   9.979  16.647  0.00  0.00    +0.000 HD
BRANCH   9  12
ATOM     12  C   UNL     1       9.420  10.344  18.275  0.00  0.00    +0.000 A 
ATOM     13  C   UNL     1       9.266  10.449  19.665  0.00  0.00    +0.000 A 
ATOM     14  C   UNL     1      10.042  11.333  20.412  0.00  0.00    +0.000 A 
ATOM     15  C   UNL     1      11.007  12.089  19.772  0.00  0.00    +0.000 A 
ATOM     16  F   UNL     1      11.736  12.961  20.480  0.00  0.00    +0.000 F 
ATOM     17  C   UNL     1      11.226  11.954  18.405  0.00  0.00    +0.000 A 
ATOM     18  C   UNL     1      10.437  11.074  17.653  0.00  0.00    +0.000 A 
ENDBRANCH   9  12
ENDBRANCH   4   6
BRANCH   1  19
ATOM     19  C   UNL     1       4.903   3.777  16.687  0.00  0.00    +0.000 C 
BRANCH  19  22
ATOM     20  C   UNL     1       3.077   5.713  19.190  0.00  0.00    +0.000 A 
ATOM     21  C   UNL     1       3.045   5.220  17.866  0.00  0.00    +0.000 A 
ATOM     22  C   UNL     1       4.130   4.380  17.801  0.00  0.00    +0.000 A 
ATOM     23  O   UNL     1       4.645   4.220  19.050  0.00  0.00    +0.000 OA
ATOM     24  N   UNL     1       3.975   5.052  19.931  0.00  0.00    +0.000 NA
BRANCH  20  27
ATOM     25  C   UNL     1       2.389   8.623  17.686  0.00  0.00    +0.000 C 
ATOM     26  C   UNL     1       2.042   8.080  19.025  0.00  0.00    +0.000 A 
ATOM     27  C   UNL     1       2.341   6.885  19.660  0.00  0.00    +0.000 A 
ATOM     28  C   UNL     1       1.657   6.954  20.892  0.00  0.00    +0.000 A 
ATOM     29  N   UNL     1       0.998   8.101  21.052  0.00  0.00    +0.000 NA
ATOM     30  N   UNL     1       1.247   8.771  19.911  0.00  0.00    +0.000 N 
ATOM     31  C   UNL     1       0.662  10.079  19.728  0.00  0.00    +0.000 C 
ENDBRANCH  20  27
ENDBRANCH  19  22
ENDBRANCH   1  19
TORSDOF 5
ENDMDL
MODEL 4
REMARK VINA RESULT:      -7.0      0.932      1.318
REMARK  Name = 
REMARK  7 active torsions:
REMARK  status: ('A' for Active; 'I' for Inactive)
REMARK    1  A    between atoms: C_1  and  C_2
REMARK    2  A    between atoms: C_3  and  C_4
REMARK    3  A    between atoms: C_6  and  C_7
REMARK    4  A    between atoms: C_7  and  N_8
REMARK    5  A    between atoms: C_11  and  N_12
REMARK    6  A    between atoms: N_15  and  C_16
REMARK    7  A    between atoms: N_28  and  C_29
REMARK                            x       y       z     vdW  Elec       q    Type
REMARK                         _______ _______ _______ _____ _____    ______ ____
ROOT
ATOM      1  N   UNL     1       0.623  10.557  22.391  0.00  0.00    +0.000 NA
ATOM      2  C   UNL     1       0.709  10.839  20.952  0.00  0.00    +0.000 C 
ATOM      3  C   UNL     1       0.327   9.555  20.241  0.00  0.00    +0.000 C 
ATOM      4  C   UNL     1       0.849   8.455  21.152  0.00  0.00    +0.000 C 
ATOM      5  C   UNL     1       1.073   9.154  22.516  0.00  0.00    +0.000 C 
ENDROOT
BRANCH   4   6
ATOM      6  N   UNL     1       2.063   7.805  20.661  0.00  0.00    +0.000 N 
ATOM      7  C   UNL     1       1.943   6.467  20.340  0.00  0.00    +0.000 C 
ATOM      8  O   UNL     1       0.896   5.868  20.576  0.00  0.00    +0.000 OA
ATOM      9  N   UNL     1       3.081   5.919  19.793  0.00  0.00    +0.000 N 
ATOM     10  H   UNL     1       2.708   8.345  20.103  0.00  0.00    +0.000 HD
ATOM     11  H   UNL     1       3.933   6.446  19.934  0.00  0.00    +0.000 HD
BRANCH   9  12
ATOM     12  C   UNL     1       3.200   4.574  19.389  0.00  0.00    +0.000 A 
ATOM     13  C   UNL     1       3.757   3.590  20.219  0.00  0.00    +0.000 A 
ATOM     14  C   UNL     1       3.984   2.298  19.752  0.00  0.00    +0.000 A 
ATOM     15  C   UNL     1       3.617   1.973  18.458  0.00  0.00    +0.000 A 
ATOM     16  F   UNL     1       3.860   0.741  17.995  0.00  0.00    +0.000 F 
ATOM     17  C   UNL     1       3.002   2.912  17.637  0.00  0.00    +0.000 A 
ATOM     18  C   UNL     1       2.784   4.215  18.103  0.00  0.00    +0.000 A 
ENDBRANCH   9  12
ENDBRANCH   4   6
BRANCH   1  19
ATOM     19  C   UNL     1      -0.734  10.690  22.939  0.00  0.00    +0.000 C 
BRANCH  19  22
ATOM     20  C   UNL     1      -2.399  13.941  22.863  0.00  0.00    +0.000 A 
ATOM     21  C   UNL     1      -1.271  13.235  23.340  0.00  0.00    +0.000 A 
ATOM     22  C   UNL     1      -1.354  12.018  22.706  0.00  0.00    +0.000 A 
ATOM     23  O   UNL     1      -2.333  12.072  21.764  0.00  0.00    +0.000 OA
ATOM     24  N   UNL     1      -2.988  13.288  21.854  0.00  0.00    +0.000 NA
BRANCH  20  27
ATOM     25  C   UNL     1      -5.509  14.690  23.848  0.00  0.00    +0.000 C 
ATOM     26  C   UNL     1      -4.231  15.445  23.903  0.00  0.00    +0.000 A 
ATOM     27  C   UNL     1      -2.946  15.149  23.480  0.00  0.00    +0.000 A 
ATOM     28  C   UNL     1      -2.171  16.255  23.885  0.00  0.00    +0.000 A 
ATOM     29  N   UNL     1      -2.894  17.196  24.492  0.00  0.00    +0.000 NA
ATOM     30  N   UNL     1      -4.140  16.687  24.490  0.00  0.00    +0.000 N 
ATOM     31  C   UNL     1      -5.207  17.450  25.098  0.00  0.00    +0.000 C 
ENDBRANCH  20  27
ENDBRANCH  19  22
ENDBRANCH   1  19
TORSDOF 5
ENDMDL
MODEL 5
REMARK VINA RESULT:      -6.9      2.641      3.106
REMARK  Name = 
REMARK  7 active torsions:
REMARK  status: ('A' for Active; 'I' for Inactive)
REMARK    1  A    between atoms: C_1  and  C_2
REMARK    2  A    between atoms: C_3  and  C_4
REMARK    3  A    between atoms: C_6  and  C_7
REMARK    4  A    between atoms: C_7  and  N_8
REMARK    5  A    between atoms: C_11  and  N_12
REMARK    6  A    between atoms: N_15  and  C_16
REMARK    7  A    between atoms: N_28  and  C_29
REMARK                            x       y       z     vdW  Elec       q    Type
REMARK                         _______ _______ _______ _____ _____    ______ ____
ROOT
ATOM      1  N   UNL     1       0.125  11.347  19.413  0.00  0.00    +0.000 NA
ATOM      2  C   UNL     1      -0.580  10.148  19.886  0.00  0.00    +0.000 C 
ATOM      3  C   UNL     1       0.491   9.151  20.283  0.00  0.00    +0.000 C 
ATOM      4  C   UNL     1       1.626   9.413  19.304  0.00  0.00    +0.000 C 
ATOM      5  C   UNL     1       1.326  10.820  18.729  0.00  0.00    +0.000 C 
ENDROOT
BRANCH   4   6
ATOM      6  N   UNL     1       1.748   8.404  18.253  0.00  0.00    +0.000 N 
ATOM      7  C   UNL     1       2.223   7.171  18.653  0.00  0.00    +0.000 C 
ATOM      8  O   UNL     1       2.617   7.007  19.805  0.00  0.00    +0.000 OA
ATOM      9  N   UNL     1       2.232   6.224  17.654  0.00  0.00    +0.000 N 
ATOM     10  H   UNL     1       1.072   8.404  17.503  0.00  0.00    +0.000 HD
ATOM     11  H   UNL     1       2.161   6.582  16.710  0.00  0.00    +0.000 HD
BRANCH   9  12
ATOM     12  C   UNL     1       2.674   4.896  17.821  0.00  0.00    +0.000 A 
ATOM     13  C   UNL     1       3.986   4.502  17.521  0.00  0.00    +0.000 A 
ATOM     14  C   UNL     1       4.364   3.162  17.570  0.00  0.00    +0.000 A 
ATOM     15  C   UNL     1       3.437   2.212  17.959  0.00  0.00    +0.000 A 
ATOM     16  F   UNL     1       3.787   0.920  17.979  0.00  0.00    +0.000 F 
ATOM     17  C   UNL     1       2.148   2.586  18.327  0.00  0.00    +0.000 A 
ATOM     18  C   UNL     1       1.765   3.932  18.266  0.00  0.00    +0.000 A 
ENDBRANCH   9  12
ENDBRANCH   4   6
BRANCH   1  19
ATOM     19  C   UNL     1       0.532  12.256  20.493  0.00  0.00    +0.000 C 
BRANCH  19  22
ATOM     20  C   UNL     1      -2.500  13.257  22.268  0.00  0.00    +0.000 A 
ATOM     21  C   UNL     1      -1.362  12.420  22.312  0.00  0.00    +0.000 A 
ATOM     22  C   UNL     1      -0.600  12.845  21.250  0.00  0.00    +0.000 A 
ATOM     23  O   UNL     1      -1.140  13.985  20.742  0.00  0.00    +0.000 OA
ATOM     24  N   UNL     1      -2.334  14.254  21.389  0.00  0.00    +0.000 NA
BRANCH  20  27
ATOM     25  C   UNL     1      -5.681  13.494  21.254  0.00  0.00    +0.000 C 
ATOM     26  C   UNL     1      -5.068  13.076  22.541  0.00  0.00    +0.000 A 
ATOM     27  C   UNL     1      -3.754  12.995  22.972  0.00  0.00    +0.000 A 
ATOM     28  C   UNL     1      -3.837  12.460  24.275  0.00  0.00    +0.000 A 
ATOM     29  N   UNL     1      -5.093  12.241  24.662  0.00  0.00    +0.000 NA
ATOM     30  N   UNL     1      -5.824  12.624  23.598  0.00  0.00    +0.000 N 
ATOM     31  C   UNL     1      -7.262  12.504  23.660  0.00  0.00    +0.000 C 
ENDBRANCH  20  27
ENDBRANCH  19  22
ENDBRANCH   1  19
TORSDOF 5
ENDMDL
MODEL 6
REMARK VINA RESULT:      -6.9      4.555      6.678
REMARK  Name = 
REMARK  7 active torsions:
REMARK  status: ('A' for Active; 'I' for Inactive)
REMARK    1  A    between atoms: C_1  and  C_2
REMARK    2  A    between atoms: C_3  and  C_4
REMARK    3  A    between atoms: C_6  and  C_7
REMARK    4  A    between atoms: C_7  and  N_8
REMARK    5  A    between atoms: C_11  and  N_12
REMARK    6  A    between atoms: N_15  and  C_16
REMARK    7  A    between atoms: N_28  and  C_29
REMARK                            x       y       z     vdW  Elec       q    Type
REMARK                         _______ _______ _______ _____ _____    ______ ____
ROOT
ATOM      1  N   UNL     1       2.297   6.154  19.068  0.00  0.00    +0.000 NA
ATOM      2  C   UNL     1       1.954   4.779  19.456  0.00  0.00    +0.000 C 
ATOM      3  C   UNL     1       3.207   4.180  20.065  0.00  0.00    +0.000 C 
ATOM      4  C   UNL     1       4.344   4.824  19.286  0.00  0.00    +0.000 C 
ATOM      5  C   UNL     1       3.703   6.066  18.619  0.00  0.00    +0.000 C 
ENDROOT
BRANCH   4   6
ATOM      6  N   UNL     1       4.970   3.936  18.308  0.00  0.00    +0.000 N 
ATOM      7  C   UNL     1       5.195   4.477  17.058  0.00  0.00    +0.000 C 
ATOM      8  O   UNL     1       4.776   5.602  16.789  0.00  0.00    +0.000 OA
ATOM      9  N   UNL     1       5.871   3.641  16.200  0.00  0.00    +0.000 N 
ATOM     10  H   UNL     1       5.645   3.259  18.633  0.00  0.00    +0.000 HD
ATOM     11  H   UNL     1       5.885   2.663  16.460  0.00  0.00    +0.000 HD
BRANCH   9  12
ATOM     12  C   UNL     1       6.214   3.972  14.873  0.00  0.00    +0.000 A 
ATOM     13  C   UNL     1       5.569   3.396  13.768  0.00  0.00    +0.000 A 
ATOM     14  C   UNL     1       6.009   3.638  12.469  0.00  0.00    +0.000 A 
ATOM     15  C   UNL     1       7.078   4.493  12.268  0.00  0.00    +0.000 A 
ATOM     16  F   UNL     1       7.525   4.706  11.024  0.00  0.00    +0.000 F 
ATOM     17  C   UNL     1       7.693   5.129  13.341  0.00  0.00    +0.000 A 
ATOM     18  C   UNL     1       7.256   4.876  14.649  0.00  0.00    +0.000 A 
ENDBRANCH   9  12
ENDBRANCH   4   6
BRANCH   1  19
ATOM     19  C   UNL     1       2.190   7.121  20.169  0.00  0.00    +0.000 C 
BRANCH  19  22
ATOM     20  C   UNL     1       0.197  10.041  19.251  0.00  0.00    +0.000 A 
ATOM     21  C   UNL     1       0.543   9.169  20.308  0.00  0.00    +0.000 A 
ATOM     22  C   UNL     1       1.563   8.410  19.785  0.00  0.00    +0.000 A 
ATOM     23  O   UNL     1       1.938   8.931  18.586  0.00  0.00    +0.000 OA
ATOM     24  N   UNL     1       1.084   9.968  18.251  0.00  0.00    +0.000 NA
BRANCH  20  27
ATOM     25  C   UNL     1      -2.427   9.811  17.186  0.00  0.00    +0.000 C 
ATOM     26  C   UNL     1      -2.134  10.701  18.338  0.00  0.00    +0.000 A 
ATOM     27  C   UNL     1      -1.042  10.815  19.184  0.00  0.00    +0.000 A 
ATOM     28  C   UNL     1      -1.412  11.806  20.116  0.00  0.00    +0.000 A 
ATOM     29  N   UNL     1      -2.624  12.309  19.879  0.00  0.00    +0.000 NA
ATOM     30  N   UNL     1      -3.043  11.629  18.795  0.00  0.00    +0.000 N 
ATOM     31  C   UNL     1      -4.354  11.909  18.259  0.00  0.00    +0.000 C 
ENDBRANCH  20  27
ENDBRANCH  19  22
ENDBRANCH   1  19
TORSDOF 5
ENDMDL
MODEL 7
REMARK VINA RESULT:      -6.9      4.668      6.489
REMARK  Name = 
REMARK  7 active torsions:
REMARK  status: ('A' for Active; 'I' for Inactive)
REMARK    1  A    between atoms: C_1  and  C_2
REMARK    2  A    between atoms: C_3  and  C_4
REMARK    3  A    between atoms: C_6  and  C_7
REMARK    4  A    between atoms: C_7  and  N_8
REMARK    5  A    between atoms: C_11  and  N_12
REMARK    6  A    between atoms: N_15  and  C_16
REMARK    7  A    between atoms: N_28  and  C_29
REMARK                            x       y       z     vdW  Elec       q    Type
REMARK                         _______ _______ _______ _____ _____    ______ ____
ROOT
ATOM      1  N   UNL     1       1.543   6.942  19.615  0.00  0.00    +0.000 NA
ATOM      2  C   UNL     1       1.718   5.686  20.356  0.00  0.00    +0.000 C 
ATOM      3  C   UNL     1       3.198   5.358  20.299  0.00  0.00    +0.000 C 
ATOM      4  C   UNL     1       3.641   5.873  18.938  0.00  0.00    +0.000 C 
ATOM      5  C   UNL     1       2.523   6.855  18.511  0.00  0.00    +0.000 C 
ENDROOT
BRANCH   4   6
ATOM      6  N   UNL     1       3.856   4.820  17.947  0.00  0.00    +0.000 N 
ATOM      7  C   UNL     1       4.651   5.158  16.870  0.00  0.00    +0.000 C 
ATOM      8  O   UNL     1       5.039   6.316  16.730  0.00  0.00    +0.000 OA
ATOM      9  N   UNL     1       4.906   4.112  16.012  0.00  0.00    +0.000 N 
ATOM     10  H   UNL     1       3.911   3.862  18.264  0.00  0.00    +0.000 HD
ATOM     11  H   UNL     1       4.289   3.315  16.097  0.00  0.00    +0.000 HD
BRANCH   9  12
ATOM     12  C   UNL     1       5.689   4.214  14.845  0.00  0.00    +0.000 A 
ATOM     13  C   UNL     1       6.917   4.892  14.824  0.00  0.00    +0.000 A 
ATOM     14  C   UNL     1       7.611   5.091  13.633  0.00  0.00    +0.000 A 
ATOM     15  C   UNL     1       7.094   4.577  12.457  0.00  0.00    +0.000 A 
ATOM     16  F   UNL     1       7.741   4.791  11.305  0.00  0.00    +0.000 F 
ATOM     17  C   UNL     1       5.913   3.843  12.461  0.00  0.00    +0.000 A 
ATOM     18  C   UNL     1       5.209   3.653  13.658  0.00  0.00    +0.000 A 
ENDBRANCH   9  12
ENDBRANCH   4   6
BRANCH   1  19
ATOM     19  C   UNL     1       1.812   8.143  20.419  0.00  0.00    +0.000 C 
BRANCH  19  22
ATOM     20  C   UNL     1      -0.529  10.709  19.290  0.00  0.00    +0.000 A 
ATOM     21  C   UNL     1      -0.307   9.694  20.247  0.00  0.00    +0.000 A 
ATOM     22  C   UNL     1       1.000   9.324  20.035  0.00  0.00    +0.000 A 
ATOM     23  O   UNL     1       1.575  10.196  19.164  0.00  0.00    +0.000 OA
ATOM     24  N   UNL     1       0.614  11.078  18.700  0.00  0.00    +0.000 NA
BRANCH  20  27
ATOM     25  C   UNL     1      -2.489   9.847  16.717  0.00  0.00    +0.000 C 
ATOM     26  C   UNL     1      -2.662  10.819  17.827  0.00  0.00    +0.000 A 
ATOM     27  C   UNL     1      -1.847  11.194  18.883  0.00  0.00    +0.000 A 
ATOM     28  C   UNL     1      -2.619  12.114  19.622  0.00  0.00    +0.000 A 
ATOM     29  N   UNL     1      -3.817  12.335  19.080  0.00  0.00    +0.000 NA
ATOM     30  N   UNL     1      -3.821  11.544  17.991  0.00  0.00    +0.000 N 
ATOM     31  C   UNL     1      -4.998  11.516  17.153  0.00  0.00    +0.000 C 
ENDBRANCH  20  27
ENDBRANCH  19  22
ENDBRANCH   1  19
TORSDOF 5
ENDMDL
MODEL 8
REMARK VINA RESULT:      -6.9      4.388     12.030
REMARK  Name = 
REMARK  7 active torsions:
REMARK  status: ('A' for Active; 'I' for Inactive)
REMARK    1  A    between atoms: C_1  and  C_2
REMARK    2  A    between atoms: C_3  and  C_4
REMARK    3  A    between atoms: C_6  and  C_7
REMARK    4  A    between atoms: C_7  and  N_8
REMARK    5  A    between atoms: C_11  and  N_12
REMARK    6  A    between atoms: N_15  and  C_16
REMARK    7  A    between atoms: N_28  and  C_29
REMARK                            x       y       z     vdW  Elec       q    Type
REMARK                         _______ _______ _______ _____ _____    ______ ____
ROOT
ATOM      1  N   UNL     1      -0.524   9.946  18.749  0.00  0.00    +0.000 NA
ATOM      2  C   UNL     1      -1.457  10.561  17.795  0.00  0.00    +0.000 C 
ATOM      3  C   UNL     1      -1.480  12.043  18.115  0.00  0.00    +0.000 C 
ATOM      4  C   UNL     1      -1.291  12.102  19.623  0.00  0.00    +0.000 C 
ATOM      5  C   UNL     1      -0.719  10.713  19.998  0.00  0.00    +0.000 C 
ENDROOT
BRANCH   4   6
ATOM      6  N   UNL     1      -2.515  12.410  20.362  0.00  0.00    +0.000 N 
ATOM      7  C   UNL     1      -2.421  13.431  21.286  0.00  0.00    +0.000 C 
ATOM      8  O   UNL     1      -1.331  13.947  21.526  0.00  0.00    +0.000 OA
ATOM      9  N   UNL     1      -3.615  13.752  21.889  0.00  0.00    +0.000 N 
ATOM     10  H   UNL     1      -3.402  12.311  19.890  0.00  0.00    +0.000 HD
ATOM     11  H   UNL     1      -4.348  13.058  21.808  0.00  0.00    +0.000 HD
BRANCH   9  12
ATOM     12  C   UNL     1      -3.769  14.758  22.864  0.00  0.00    +0.000 A 
ATOM     13  C   UNL     1      -4.271  16.030  22.554  0.00  0.00    +0.000 A 
ATOM     14  C   UNL     1      -4.293  17.048  23.505  0.00  0.00    +0.000 A 
ATOM     15  C   UNL     1      -3.846  16.783  24.787  0.00  0.00    +0.000 A 
ATOM     16  F   UNL     1      -3.837  17.765  25.697  0.00  0.00    +0.000 F 
ATOM     17  C   UNL     1      -3.406  15.511  25.139  0.00  0.00    +0.000 A 
ATOM     18  C   UNL     1      -3.374  14.491  24.179  0.00  0.00    +0.000 A 
ENDBRANCH   9  12
ENDBRANCH   4   6
BRANCH   1  19
ATOM     19  C   UNL     1       0.883  10.028  18.333  0.00  0.00    +0.000 C 
BRANCH  19  22
ATOM     20  C   UNL     1       2.569   6.824  18.819  0.00  0.00    +0.000 A 
ATOM     21  C   UNL     1       2.386   7.906  17.929  0.00  0.00    +0.000 A 
ATOM     22  C   UNL     1       1.687   8.827  18.671  0.00  0.00    +0.000 A 
ATOM     23  O   UNL     1       1.641   8.414  19.967  0.00  0.00    +0.000 OA
ATOM     24  N   UNL     1       2.207   7.155  20.065  0.00  0.00    +0.000 NA
BRANCH  20  27
ATOM     25  C   UNL     1       1.258   3.840  19.582  0.00  0.00    +0.000 C 
ATOM     26  C   UNL     1       2.400   4.243  18.721  0.00  0.00    +0.000 A 
ATOM     27  C   UNL     1       2.958   5.473  18.417  0.00  0.00    +0.000 A 
ATOM     28  C   UNL     1       3.977   5.184  17.486  0.00  0.00    +0.000 A 
ATOM     29  N   UNL     1       4.086   3.880  17.230  0.00  0.00    +0.000 NA
ATOM     30  N   UNL     1       3.124   3.327  17.991  0.00  0.00    +0.000 N 
ATOM     31  C   UNL     1       2.938   1.895  17.950  0.00  0.00    +0.000 C 
ENDBRANCH  20  27
ENDBRANCH  19  22
ENDBRANCH   1  19
TORSDOF 5
ENDMDL
MODEL 9
REMARK VINA RESULT:      -6.8      2.833      3.660
REMARK  Name = 
REMARK  7 active torsions:
REMARK  status: ('A' for Active; 'I' for Inactive)
REMARK    1  A    between atoms: C_1  and  C_2
REMARK    2  A    between atoms: C_3  and  C_4
REMARK    3  A    between atoms: C_6  and  C_7
REMARK    4  A    between atoms: C_7  and  N_8
REMARK    5  A    between atoms: C_11  and  N_12
REMARK    6  A    between atoms: N_15  and  C_16
REMARK    7  A    between atoms: N_28  and  C_29
REMARK                            x       y       z     vdW  Elec       q    Type
REMARK                         _______ _______ _______ _____ _____    ______ ____
ROOT
ATOM      1  N   UNL     1       0.232  12.020  19.254  0.00  0.00    +0.000 NA
ATOM      2  C   UNL     1      -0.759  10.951  19.072  0.00  0.00    +0.000 C 
ATOM      3  C   UNL     1      -0.167   9.706  19.704  0.00  0.00    +0.000 C 
ATOM      4  C   UNL     1       1.328   9.838  19.456  0.00  0.00    +0.000 C 
ATOM      5  C   UNL     1       1.536  11.336  19.122  0.00  0.00    +0.000 C 
ENDROOT
BRANCH   4   6
ATOM      6  N   UNL     1       1.834   8.964  18.400  0.00  0.00    +0.000 N 
ATOM      7  C   UNL     1       2.113   7.665  18.773  0.00  0.00    +0.000 C 
ATOM      8  O   UNL     1       2.038   7.334  19.955  0.00  0.00    +0.000 OA
ATOM      9  N   UNL     1       2.494   6.852  17.731  0.00  0.00    +0.000 N 
ATOM     10  H   UNL     1       1.494   9.098  17.458  0.00  0.00    +0.000 HD
ATOM     11  H   UNL     1       2.790   7.328  16.888  0.00  0.00    +0.000 HD
BRANCH   9  12
ATOM     12  C   UNL     1       2.830   5.489  17.866  0.00  0.00    +0.000 A 
ATOM     13  C   UNL     1       4.161   5.044  17.871  0.00  0.00    +0.000 A 
ATOM     14  C   UNL     1       4.466   3.685  17.875  0.00  0.00    +0.000 A 
ATOM     15  C   UNL     1       3.436   2.763  17.914  0.00  0.00    +0.000 A 
ATOM     16  F   UNL     1       3.723   1.455  17.889  0.00  0.00    +0.000 F 
ATOM     17  C   UNL     1       2.110   3.178  17.979  0.00  0.00    +0.000 A 
ATOM     18  C   UNL     1       1.804   4.546  17.962  0.00  0.00    +0.000 A 
ENDBRANCH   9  12
ENDBRANCH   4   6
BRANCH   1  19
ATOM     19  C   UNL     1       0.152  12.681  20.564  0.00  0.00    +0.000 C 
BRANCH  19  22
ATOM     20  C   UNL     1      -3.366  13.248  21.367  0.00  0.00    +0.000 A 
ATOM     21  C   UNL     1      -2.189  12.572  21.760  0.00  0.00    +0.000 A 
ATOM     22  C   UNL     1      -1.218  13.105  20.948  0.00  0.00    +0.000 A 
ATOM     23  O   UNL     1      -1.734  14.166  20.271  0.00  0.00    +0.000 OA
ATOM     24  N   UNL     1      -3.088  14.266  20.542  0.00  0.00    +0.000 NA
BRANCH  20  27
ATOM     25  C   UNL     1      -5.293  13.863  24.034  0.00  0.00    +0.000 C 
ATOM     26  C   UNL     1      -5.524  13.087  22.789  0.00  0.00    +0.000 A 
ATOM     27  C   UNL     1      -4.724  12.813  21.691  0.00  0.00    +0.000 A 
ATOM     28  C   UNL     1      -5.553  12.079  20.818  0.00  0.00    +0.000 A 
ATOM     29  N   UNL     1      -6.772  11.873  21.316  0.00  0.00    +0.000 NA
ATOM     30  N   UNL     1      -6.732  12.489  22.513  0.00  0.00    +0.000 N 
ATOM     31  C   UNL     1      -7.916  12.482  23.341  0.00  0.00    +0.000 C 
ENDBRANCH  20  27
ENDBRANCH  19  22
ENDBRANCH   1  19
TORSDOF 5
ENDMDL
