MODEL 1
REMARK VINA RESULT:      -8.8      0.000      0.000
REMARK  Name = 
REMARK  4 active torsions:
REMARK  status: ('A' for Active; 'I' for Inactive)
REMARK    1  A    between atoms: C_7  and  C_8
REMARK    2  A    between atoms: N_10  and  C_11
REMARK    3  A    between atoms: C_11  and  C_12
REMARK    4  A    between atoms: C_12  and  C_13
REMARK                            x       y       z     vdW  Elec       q    Type
REMARK                         _______ _______ _______ _____ _____    ______ ____
ROOT
ATOM      1  C   UNL     1       6.654   6.508  17.017  0.00  0.00    +0.000 C 
ATOM      2  O   UNL     1       7.496   6.153  16.202  0.00  0.00    +0.000 OA
ATOM      3  N   UNL     1       6.763   7.675  17.741  0.00  0.00    +0.000 N 
ATOM      4  H   UNL     1       5.987   7.966  18.326  0.00  0.00    +0.000 HD
ENDROOT
BRANCH   1  11
ATOM      5  O   UNL     1       0.588   2.432  19.561  0.00  0.00    +0.000 OA
ATOM      6  C   UNL     1       1.385   3.314  19.254  0.00  0.00    +0.000 C 
ATOM      7  C   UNL     1       1.474   4.626  19.997  0.00  0.00    +0.000 C 
ATOM      8  C   UNL     1       2.900   5.154  20.062  0.00  0.00    +0.000 C 
ATOM      9  C   UNL     1       3.600   5.054  18.733  0.00  0.00    +0.000 A 
ATOM     10  C   UNL     1       4.728   5.846  18.453  0.00  0.00    +0.000 A 
ATOM     11  C   UNL     1       5.433   5.681  17.250  0.00  0.00    +0.000 A 
ATOM     12  C   UNL     1       4.979   4.729  16.331  0.00  0.00    +0.000 A 
ATOM     13  F   UNL     1       5.609   4.535  15.164  0.00  0.00    +0.000 F 
ATOM     14  C   UNL     1       3.875   3.928  16.605  0.00  0.00    +0.000 A 
ATOM     15  C   UNL     1       3.200   4.081  17.812  0.00  0.00    +0.000 A 
ATOM     16  N   UNL     1       2.157   3.209  18.129  0.00  0.00    +0.000 N 
ATOM     17  H   UNL     1       1.984   2.391  17.557  0.00  0.00    +0.000 HD
ENDBRANCH   1  11
BRANCH   3  18
ATOM     18  C   UNL     1       7.834   8.629  17.517  0.00  0.00    +0.000 C 
BRANCH  18  19
ATOM     19  C   UNL     1       8.736   8.795  18.748  0.00  0.00    +0.000 C 
BRANCH  19  20
ATOM     20  C   UNL     1       9.221  10.206  19.026  0.00  0.00    +0.000 A 
ATOM     21  C   UNL     1       9.398  10.707  20.333  0.00  0.00    +0.000 A 
ATOM     22  C   UNL     1       9.951  11.974  20.560  0.00  0.00    +0.000 A 
ATOM     23  C   UNL     1      10.322  12.711  19.455  0.00  0.00    +0.000 A 
ATOM     24  C   UNL     1      10.098  12.260  18.178  0.00  0.00    +0.000 A 
ATOM     25  C   UNL     1       9.526  11.032  17.928  0.00  0.00    +0.000 A 
ATOM     26  O   UNL     1      10.555  13.127  17.234  0.00  0.00    +0.000 OA
ATOM     27  C   UNL     1      11.323  14.014  18.072  0.00  0.00    +0.000 C 
ATOM     28  O   UNL     1      10.968  13.910  19.467  0.00  0.00    +0.000 OA
ENDBRANCH  19  20
ENDBRANCH  18  19
ENDBRANCH   3  18
TORSDOF 4
ENDMDL
MODEL 2
REMARK VINA RESULT:      -8.8      1.271      1.624
REMARK  Name = 
REMARK  4 active torsions:
REMARK  status: ('A' for Active; 'I' for Inactive)
REMARK    1  A    between atoms: C_7  and  C_8
REMARK    2  A    between atoms: N_10  and  C_11
REMARK    3  A    between atoms: C_11  and  C_12
REMARK    4  A    between atoms: C_12  and  C_13
REMARK                            x       y       z     vdW  Elec       q    Type
REMARK                         _______ _______ _______ _____ _____    ______ ____
ROOT
ATOM      1  C   UNL     1       6.393   6.651  17.228  0.00  0.00    +0.000 C 
ATOM      2  O   UNL     1       7.135   6.151  16.392  0.00  0.00    +0.000 OA
ATOM      3  N   UNL     1       6.686   7.832  17.873  0.00  0.00    +0.000 N 
ATOM      4  H   UNL     1       5.987   8.248  18.479  0.00  0.00    +0.000 HD
ENDROOT
BRANCH   1  11
ATOM      5  O   UNL     1       0.216   2.142  18.405  0.00  0.00    +0.000 OA
ATOM      6  C   UNL     1       1.320   2.678  18.431  0.00  0.00    +0.000 C 
ATOM      7  C   UNL     1       2.582   1.930  18.787  0.00  0.00    +0.000 C 
ATOM      8  C   UNL     1       3.788   2.432  18.008  0.00  0.00    +0.000 C 
ATOM      9  C   UNL     1       3.853   3.935  17.974  0.00  0.00    +0.000 A 
ATOM     10  C   UNL     1       5.062   4.597  17.696  0.00  0.00    +0.000 A 
ATOM     11  C   UNL     1       5.096   5.996  17.573  0.00  0.00    +0.000 A 
ATOM     12  C   UNL     1       3.910   6.715  17.752  0.00  0.00    +0.000 A 
ATOM     13  F   UNL     1       3.887   8.051  17.652  0.00  0.00    +0.000 F 
ATOM     14  C   UNL     1       2.704   6.069  18.010  0.00  0.00    +0.000 A 
ATOM     15  C   UNL     1       2.677   4.681  18.103  0.00  0.00    +0.000 A 
ATOM     16  N   UNL     1       1.452   4.030  18.259  0.00  0.00    +0.000 N 
ATOM     17  H   UNL     1       0.584   4.544  18.166  0.00  0.00    +0.000 HD
ENDBRANCH   1  11
BRANCH   3  18
ATOM     18  C   UNL     1       7.849   8.632  17.535  0.00  0.00    +0.000 C 
BRANCH  18  19
ATOM     19  C   UNL     1       8.787   8.835  18.733  0.00  0.00    +0.000 C 
BRANCH  19  20
ATOM     20  C   UNL     1       9.214  10.265  19.004  0.00  0.00    +0.000 A 
ATOM     21  C   UNL     1       9.413  10.768  20.308  0.00  0.00    +0.000 A 
ATOM     22  C   UNL     1       9.912  12.058  20.524  0.00  0.00    +0.000 A 
ATOM     23  C   UNL     1      10.208  12.818  19.412  0.00  0.00    +0.000 A 
ATOM     24  C   UNL     1       9.961  12.364  18.140  0.00  0.00    +0.000 A 
ATOM     25  C   UNL     1       9.439  11.111  17.902  0.00  0.00    +0.000 A 
ATOM     26  O   UNL     1      10.342  13.256  17.187  0.00  0.00    +0.000 OA
ATOM     27  C   UNL     1      11.096  14.175  18.004  0.00  0.00    +0.000 C 
ATOM     28  O   UNL     1      10.795  14.047  19.410  0.00  0.00    +0.000 OA
ENDBRANCH  19  20
ENDBRANCH  18  19
ENDBRANCH   3  18
TORSDOF 4
ENDMDL
MODEL 3
REMARK VINA RESULT:      -8.8      1.530      2.207
REMARK  Name = 
REMARK  4 active torsions:
REMARK  status: ('A' for Active; 'I' for Inactive)
REMARK    1  A    between atoms: C_7  and  C_8
REMARK    2  A    between atoms: N_10  and  C_11
REMARK    3  A    between atoms: C_11  and  C_12
REMARK    4  A    between atoms: C_12  and  C_13
REMARK                            x       y       z     vdW  Elec       q    Type
REMARK                         _______ _______ _______ _____ _____    ______ ____
ROOT
ATOM      1  C   UNL     1       6.074   6.654  16.971  0.00  0.00    +0.000 C 
ATOM      2  O   UNL     1       6.458   6.514  15.817  0.00  0.00    +0.000 OA
ATOM      3  N   UNL     1       6.726   7.454  17.882  0.00  0.00    +0.000 N 
ATOM      4  H   UNL     1       6.305   7.609  18.791  0.00  0.00    +0.000 HD
ENDROOT
BRANCH   1  11
ATOM      5  O   UNL     1       0.152   1.985  18.706  0.00  0.00    +0.000 OA
ATOM      6  C   UNL     1       1.242   2.543  18.621  0.00  0.00    +0.000 C 
ATOM      7  C   UNL     1       2.549   1.810  18.803  0.00  0.00    +0.000 C 
ATOM      8  C   UNL     1       3.648   2.360  17.906  0.00  0.00    +0.000 C 
ATOM      9  C   UNL     1       3.684   3.865  17.916  0.00  0.00    +0.000 A 
ATOM     10  C   UNL     1       4.841   4.560  17.521  0.00  0.00    +0.000 A 
ATOM     11  C   UNL     1       4.838   5.962  17.443  0.00  0.00    +0.000 A 
ATOM     12  C   UNL     1       3.669   6.650  17.781  0.00  0.00    +0.000 A 
ATOM     13  F   UNL     1       3.612   7.989  17.730  0.00  0.00    +0.000 F 
ATOM     14  C   UNL     1       2.512   5.973  18.156  0.00  0.00    +0.000 A 
ATOM     15  C   UNL     1       2.518   4.582  18.205  0.00  0.00    +0.000 A 
ATOM     16  N   UNL     1       1.331   3.901  18.481  0.00  0.00    +0.000 N 
ATOM     17  H   UNL     1       0.450   4.401  18.506  0.00  0.00    +0.000 HD
ENDBRANCH   1  11
BRANCH   3  18
ATOM     18  C   UNL     1       7.863   8.279  17.515  0.00  0.00    +0.000 C 
BRANCH  18  19
ATOM     19  C   UNL     1       8.701   8.694  18.732  0.00  0.00    +0.000 C 
BRANCH  19  20
ATOM     20  C   UNL     1       9.040  10.169  18.830  0.00  0.00    +0.000 A 
ATOM     21  C   UNL     1       8.765  11.085  17.792  0.00  0.00    +0.000 A 
ATOM     22  C   UNL     1       8.988  12.459  17.953  0.00  0.00    +0.000 A 
ATOM     23  C   UNL     1       9.482  12.883  19.168  0.00  0.00    +0.000 A 
ATOM     24  C   UNL     1       9.811  11.996  20.163  0.00  0.00    +0.000 A 
ATOM     25  C   UNL     1       9.632  10.637  20.018  0.00  0.00    +0.000 A 
ATOM     26  O   UNL     1      10.260  12.619  21.286  0.00  0.00    +0.000 OA
ATOM     27  C   UNL     1       9.908  13.979  20.965  0.00  0.00    +0.000 C 
ATOM     28  O   UNL     1       9.666  14.175  19.556  0.00  0.00    +0.000 OA
ENDBRANCH  19  20
ENDBRANCH  18  19
ENDBRANCH   3  18
TORSDOF 4
ENDMDL
MODEL 4
REMARK VINA RESULT:      -8.8      1.612      1.834
REMARK  Name = 
REMARK  4 active torsions:
REMARK  status: ('A' for Active; 'I' for Inactive)
REMARK    1  A    between atoms: C_7  and  C_8
REMARK    2  A    between atoms: N_10  and  C_11
REMARK    3  A    between atoms: C_11  and  C_12
REMARK    4  A    between atoms: C_12  and  C_13
REMARK                            x       y       z     vdW  Elec       q    Type
REMARK                         _______ _______ _______ _____ _____    ______ ____
ROOT
ATOM      1  C   UNL     1       6.001   6.744  17.423  0.00  0.00    +0.000 C 
ATOM      2  O   UNL     1       5.645   7.085  16.302  0.00  0.00    +0.000 OA
ATOM      3  N   UNL     1       7.097   7.290  18.054  0.00  0.00    +0.000 N 
ATOM      4  H   UNL     1       7.283   7.041  19.020  0.00  0.00    +0.000 HD
ENDROOT
BRANCH   1  11
ATOM      5  O   UNL     1       1.439   2.483  21.995  0.00  0.00    +0.000 OA
ATOM      6  C   UNL     1       1.899   3.229  21.135  0.00  0.00    +0.000 C 
ATOM      7  C   UNL     1       1.114   4.377  20.548  0.00  0.00    +0.000 C 
ATOM      8  C   UNL     1       2.000   5.570  20.217  0.00  0.00    +0.000 C 
ATOM      9  C   UNL     1       3.265   5.156  19.514  0.00  0.00    +0.000 A 
ATOM     10  C   UNL     1       4.002   6.081  18.754  0.00  0.00    +0.000 A 
ATOM     11  C   UNL     1       5.229   5.714  18.179  0.00  0.00    +0.000 A 
ATOM     12  C   UNL     1       5.692   4.407  18.362  0.00  0.00    +0.000 A 
ATOM     13  F   UNL     1       6.853   4.001  17.830  0.00  0.00    +0.000 F 
ATOM     14  C   UNL     1       4.980   3.487  19.126  0.00  0.00    +0.000 A 
ATOM     15  C   UNL     1       3.778   3.870  19.714  0.00  0.00    +0.000 A 
ATOM     16  N   UNL     1       3.117   2.980  20.563  0.00  0.00    +0.000 N 
ATOM     17  H   UNL     1       3.571   2.125  20.860  0.00  0.00    +0.000 HD
ENDBRANCH   1  11
BRANCH   3  18
ATOM     18  C   UNL     1       7.854   8.388  17.483  0.00  0.00    +0.000 C 
BRANCH  18  19
ATOM     19  C   UNL     1       8.663   9.153  18.539  0.00  0.00    +0.000 C 
BRANCH  19  20
ATOM     20  C   UNL     1       9.016  10.587  18.192  0.00  0.00    +0.000 A 
ATOM     21  C   UNL     1       8.075  11.497  17.665  0.00  0.00    +0.000 A 
ATOM     22  C   UNL     1       8.400  12.844  17.457  0.00  0.00    +0.000 A 
ATOM     23  C   UNL     1       9.676  13.247  17.791  0.00  0.00    +0.000 A 
ATOM     24  C   UNL     1      10.618  12.358  18.246  0.00  0.00    +0.000 A 
ATOM     25  C   UNL     1      10.333  11.023  18.429  0.00  0.00    +0.000 A 
ATOM     26  O   UNL     1      11.802  12.962  18.537  0.00  0.00    +0.000 OA
ATOM     27  C   UNL     1      11.392  14.342  18.475  0.00  0.00    +0.000 C 
ATOM     28  O   UNL     1      10.149  14.524  17.762  0.00  0.00    +0.000 OA
ENDBRANCH  19  20
ENDBRANCH  18  19
ENDBRANCH   3  18
TORSDOF 4
ENDMDL
MODEL 5
REMARK VINA RESULT:      -8.7      4.170      7.077
REMARK  Name = 
REMARK  4 active torsions:
REMARK  status: ('A' for Active; 'I' for Inactive)
REMARK    1  A    between atoms: C_7  and  C_8
REMARK    2  A    between atoms: N_10  and  C_11
REMARK    3  A    between atoms: C_11  and  C_12
REMARK    4  A    between atoms: C_12  and  C_13
REMARK                            x       y       z     vdW  Elec       q    Type
REMARK                         _______ _______ _______ _____ _____    ______ ____
ROOT
ATOM      1  C   UNL     1       2.616   5.936  19.404  0.00  0.00    +0.000 C 
ATOM      2  O   UNL     1       3.094   5.604  20.481  0.00  0.00    +0.000 OA
ATOM      3  N   UNL     1       2.395   5.041  18.380  0.00  0.00    +0.000 N 
ATOM      4  H   UNL     1       1.904   5.355  17.550  0.00  0.00    +0.000 HD
ENDROOT
BRANCH   1  11
ATOM      5  O   UNL     1      -0.500  13.004  18.941  0.00  0.00    +0.000 OA
ATOM      6  C   UNL     1       0.059  11.971  19.298  0.00  0.00    +0.000 C 
ATOM      7  C   UNL     1       0.066  11.502  20.733  0.00  0.00    +0.000 C 
ATOM      8  C   UNL     1       0.022   9.984  20.843  0.00  0.00    +0.000 C 
ATOM      9  C   UNL     1       0.976   9.321  19.887  0.00  0.00    +0.000 A 
ATOM     10  C   UNL     1       1.408   8.000  20.101  0.00  0.00    +0.000 A 
ATOM     11  C   UNL     1       2.223   7.355  19.157  0.00  0.00    +0.000 A 
ATOM     12  C   UNL     1       2.609   8.058  18.012  0.00  0.00    +0.000 A 
ATOM     13  F   UNL     1       3.391   7.493  17.081  0.00  0.00    +0.000 F 
ATOM     14  C   UNL     1       2.173   9.359  17.779  0.00  0.00    +0.000 A 
ATOM     15  C   UNL     1       1.344   9.980  18.709  0.00  0.00    +0.000 A 
ATOM     16  N   UNL     1       0.825  11.245  18.427  0.00  0.00    +0.000 N 
ATOM     17  H   UNL     1       0.934  11.647  17.503  0.00  0.00    +0.000 HD
ENDBRANCH   1  11
BRANCH   3  18
ATOM     18  C   UNL     1       2.613   3.615  18.536  0.00  0.00    +0.000 C 
BRANCH  18  19
ATOM     19  C   UNL     1       3.677   3.077  17.570  0.00  0.00    +0.000 C 
BRANCH  19  20
ATOM     20  C   UNL     1       4.804   4.033  17.229  0.00  0.00    +0.000 A 
ATOM     21  C   UNL     1       5.000   4.549  15.930  0.00  0.00    +0.000 A 
ATOM     22  C   UNL     1       5.982   5.514  15.669  0.00  0.00    +0.000 A 
ATOM     23  C   UNL     1       6.747   5.945  16.732  0.00  0.00    +0.000 A 
ATOM     24  C   UNL     1       6.608   5.405  17.987  0.00  0.00    +0.000 A 
ATOM     25  C   UNL     1       5.672   4.432  18.263  0.00  0.00    +0.000 A 
ATOM     26  O   UNL     1       7.441   5.982  18.894  0.00  0.00    +0.000 OA
ATOM     27  C   UNL     1       7.898   7.109  18.121  0.00  0.00    +0.000 C 
ATOM     28  O   UNL     1       7.672   6.943  16.705  0.00  0.00    +0.000 OA
ENDBRANCH  19  20
ENDBRANCH  18  19
ENDBRANCH   3  18
TORSDOF 4
ENDMDL
MODEL 6
REMARK VINA RESULT:      -8.7      5.281      7.642
REMARK  Name = 
REMARK  4 active torsions:
REMARK  status: ('A' for Active; 'I' for Inactive)
REMARK    1  A    between atoms: C_7  and  C_8
REMARK    2  A    between atoms: N_10  and  C_11
REMARK    3  A    between atoms: C_11  and  C_12
REMARK    4  A    between atoms: C_12  and  C_13
REMARK                            x       y       z     vdW  Elec       q    Type
REMARK                         _______ _______ _______ _____ _____    ______ ____
ROOT
ATOM      1  C   UNL     1       2.265   6.220  20.156  0.00  0.00    +0.000 C 
ATOM      2  O   UNL     1       1.464   5.640  20.879  0.00  0.00    +0.000 OA
ATOM      3  N   UNL     1       3.457   5.654  19.760  0.00  0.00    +0.000 N 
ATOM      4  H   UNL     1       4.031   6.142  19.082  0.00  0.00    +0.000 HD
ENDROOT
BRANCH   1  11
ATOM      5  O   UNL     1      -0.337  13.295  18.410  0.00  0.00    +0.000 OA
ATOM      6  C   UNL     1       0.165  12.310  18.943  0.00  0.00    +0.000 C 
ATOM      7  C   UNL     1       0.229  12.138  20.442  0.00  0.00    +0.000 C 
ATOM      8  C   UNL     1       0.078  10.682  20.861  0.00  0.00    +0.000 C 
ATOM      9  C   UNL     1       0.917   9.762  20.016  0.00  0.00    +0.000 A 
ATOM     10  C   UNL     1       1.262   8.478  20.475  0.00  0.00    +0.000 A 
ATOM     11  C   UNL     1       1.964   7.590  19.645  0.00  0.00    +0.000 A 
ATOM     12  C   UNL     1       2.328   8.014  18.363  0.00  0.00    +0.000 A 
ATOM     13  F   UNL     1       3.004   7.210  17.531  0.00  0.00    +0.000 F 
ATOM     14  C   UNL     1       1.976   9.275  17.891  0.00  0.00    +0.000 A 
ATOM     15  C   UNL     1       1.257  10.138  18.712  0.00  0.00    +0.000 A 
ATOM     16  N   UNL     1       0.817  11.361  18.203  0.00  0.00    +0.000 N 
ATOM     17  H   UNL     1       0.896  11.560  17.213  0.00  0.00    +0.000 HD
ENDBRANCH   1  11
BRANCH   3  18
ATOM     18  C   UNL     1       3.809   4.283  20.083  0.00  0.00    +0.000 C 
BRANCH  18  19
ATOM     19  C   UNL     1       4.104   3.446  18.831  0.00  0.00    +0.000 C 
BRANCH  19  20
ATOM     20  C   UNL     1       5.072   4.061  17.837  0.00  0.00    +0.000 A 
ATOM     21  C   UNL     1       6.325   4.586  18.219  0.00  0.00    +0.000 A 
ATOM     22  C   UNL     1       7.244   5.047  17.267  0.00  0.00    +0.000 A 
ATOM     23  C   UNL     1       6.878   4.963  15.940  0.00  0.00    +0.000 A 
ATOM     24  C   UNL     1       5.638   4.512  15.560  0.00  0.00    +0.000 A 
ATOM     25  C   UNL     1       4.705   4.083  16.479  0.00  0.00    +0.000 A 
ATOM     26  O   UNL     1       5.486   4.489  14.209  0.00  0.00    +0.000 OA
ATOM     27  C   UNL     1       6.854   4.709  13.808  0.00  0.00    +0.000 C 
ATOM     28  O   UNL     1       7.664   5.259  14.869  0.00  0.00    +0.000 OA
ENDBRANCH  19  20
ENDBRANCH  18  19
ENDBRANCH   3  18
TORSDOF 4
ENDMDL
MODEL 7
REMARK VINA RESULT:      -8.7      5.975      8.898
REMARK  Name = 
REMARK  4 active torsions:
REMARK  status: ('A' for Active; 'I' for Inactive)
REMARK    1  A    between atoms: C_7  and  C_8
REMARK    2  A    between atoms: N_10  and  C_11
REMARK    3  A    between atoms: C_11  and  C_12
REMARK    4  A    between atoms: C_12  and  C_13
REMARK                            x       y       z     vdW  Elec       q    Type
REMARK                         _______ _______ _______ _____ _____    ______ ____
ROOT
ATOM      1  C   UNL     1       2.106   8.486  18.408  0.00  0.00    +0.000 C 
ATOM      2  O   UNL     1       1.962   8.981  17.297  0.00  0.00    +0.000 OA
ATOM      3  N   UNL     1       1.693   9.112  19.562  0.00  0.00    +0.000 N 
ATOM      4  H   UNL     1       1.747   8.610  20.441  0.00  0.00    +0.000 HD
ENDROOT
BRANCH   1  11
ATOM      5  O   UNL     1       4.984   1.617  20.510  0.00  0.00    +0.000 OA
ATOM      6  C   UNL     1       4.261   2.566  20.219  0.00  0.00    +0.000 C 
ATOM      7  C   UNL     1       2.883   2.751  20.806  0.00  0.00    +0.000 C 
ATOM      8  C   UNL     1       2.537   4.218  21.014  0.00  0.00    +0.000 C 
ATOM      9  C   UNL     1       2.907   5.060  19.823  0.00  0.00    +0.000 A 
ATOM     10  C   UNL     1       2.313   6.317  19.617  0.00  0.00    +0.000 A 
ATOM     11  C   UNL     1       2.730   7.138  18.557  0.00  0.00    +0.000 A 
ATOM     12  C   UNL     1       3.733   6.671  17.702  0.00  0.00    +0.000 A 
ATOM     13  F   UNL     1       4.165   7.409  16.670  0.00  0.00    +0.000 F 
ATOM     14  C   UNL     1       4.342   5.436  17.905  0.00  0.00    +0.000 A 
ATOM     15  C   UNL     1       3.939   4.642  18.975  0.00  0.00    +0.000 A 
ATOM     16  N   UNL     1       4.619   3.452  19.239  0.00  0.00    +0.000 N 
ATOM     17  H   UNL     1       5.479   3.236  18.749  0.00  0.00    +0.000 HD
ENDBRANCH   1  11
BRANCH   3  18
ATOM     18  C   UNL     1       0.958  10.364  19.545  0.00  0.00    +0.000 C 
BRANCH  18  19
ATOM     19  C   UNL     1      -0.526  10.176  19.887  0.00  0.00    +0.000 C 
BRANCH  19  20
ATOM     20  C   UNL     1      -1.507  10.505  18.777  0.00  0.00    +0.000 A 
ATOM     21  C   UNL     1      -1.409   9.949  17.483  0.00  0.00    +0.000 A 
ATOM     22  C   UNL     1      -2.390  10.185  16.512  0.00  0.00    +0.000 A 
ATOM     23  C   UNL     1      -3.460  10.979  16.870  0.00  0.00    +0.000 A 
ATOM     24  C   UNL     1      -3.535  11.575  18.105  0.00  0.00    +0.000 A 
ATOM     25  C   UNL     1      -2.567  11.385  19.067  0.00  0.00    +0.000 A 
ATOM     26  O   UNL     1      -4.676  12.297  18.263  0.00  0.00    +0.000 OA
ATOM     27  C   UNL     1      -5.408  11.850  17.104  0.00  0.00    +0.000 C 
ATOM     28  O   UNL     1      -4.559  11.238  16.110  0.00  0.00    +0.000 OA
ENDBRANCH  19  20
ENDBRANCH  18  19
ENDBRANCH   3  18
TORSDOF 4
ENDMDL
MODEL 8
REMARK VINA RESULT:      -8.7      0.816      1.513
REMARK  Name = 
REMARK  4 active torsions:
REMARK  status: ('A' for Active; 'I' for Inactive)
REMARK    1  A    between atoms: C_7  and  C_8
REMARK    2  A    between atoms: N_10  and  C_11
REMARK    3  A    between atoms: C_11  and  C_12
REMARK    4  A    between atoms: C_12  and  C_13
REMARK                            x       y       z     vdW  Elec       q    Type
REMARK                         _______ _______ _______ _____ _____    ______ ____
ROOT
ATOM      1  C   UNL     1       6.795   6.236  17.645  0.00  0.00    +0.000 C 
ATOM      2  O   UNL     1       7.857   5.627  17.616  0.00  0.00    +0.000 OA
ATOM      3  N   UNL     1       6.725   7.611  17.638  0.00  0.00    +0.000 N 
ATOM      4  H   UNL     1       5.818   8.058  17.562  0.00  0.00    +0.000 HD
ENDROOT
BRANCH   1  11
ATOM      5  O   UNL     1       0.287   2.321  19.126  0.00  0.00    +0.000 OA
ATOM      6  C   UNL     1       1.168   3.169  19.025  0.00  0.00    +0.000 C 
ATOM      7  C   UNL     1       1.324   4.304  20.009  0.00  0.00    +0.000 C 
ATOM      8  C   UNL     1       2.783   4.680  20.228  0.00  0.00    +0.000 C 
ATOM      9  C   UNL     1       3.544   4.768  18.933  0.00  0.00    +0.000 A 
ATOM     10  C   UNL     1       4.746   5.492  18.853  0.00  0.00    +0.000 A 
ATOM     11  C   UNL     1       5.500   5.494  17.668  0.00  0.00    +0.000 A 
ATOM     12  C   UNL     1       5.021   4.777  16.567  0.00  0.00    +0.000 A 
ATOM     13  F   UNL     1       5.695   4.749  15.409  0.00  0.00    +0.000 F 
ATOM     14  C   UNL     1       3.841   4.042  16.640  0.00  0.00    +0.000 A 
ATOM     15  C   UNL     1       3.116   4.026  17.827  0.00  0.00    +0.000 A 
ATOM     16  N   UNL     1       1.990   3.208  17.931  0.00  0.00    +0.000 N 
ATOM     17  H   UNL     1       1.782   2.531  17.206  0.00  0.00    +0.000 HD
ENDBRANCH   1  11
BRANCH   3  18
ATOM     18  C   UNL     1       7.903   8.447  17.489  0.00  0.00    +0.000 C 
BRANCH  18  19
ATOM     19  C   UNL     1       8.581   8.747  18.833  0.00  0.00    +0.000 C 
BRANCH  19  20
ATOM     20  C   UNL     1       9.165  10.140  18.982  0.00  0.00    +0.000 A 
ATOM     21  C   UNL     1       9.452  10.969  17.877  0.00  0.00    +0.000 A 
ATOM     22  C   UNL     1       9.888  12.289  18.048  0.00  0.00    +0.000 A 
ATOM     23  C   UNL     1      10.021  12.750  19.341  0.00  0.00    +0.000 A 
ATOM     24  C   UNL     1       9.804  11.934  20.424  0.00  0.00    +0.000 A 
ATOM     25  C   UNL     1       9.407  10.622  20.282  0.00  0.00    +0.000 A 
ATOM     26  O   UNL     1       9.969  12.587  21.606  0.00  0.00    +0.000 OA
ATOM     27  C   UNL     1      10.035  13.944  21.125  0.00  0.00    +0.000 C 
ATOM     28  O   UNL     1      10.327  14.023  19.714  0.00  0.00    +0.000 OA
ENDBRANCH  19  20
ENDBRANCH  18  19
ENDBRANCH   3  18
TORSDOF 4
ENDMDL
MODEL 9
REMARK VINA RESULT:      -8.6      5.588      8.499
REMARK  Name = 
REMARK  4 active torsions:
REMARK  status: ('A' for Active; 'I' for Inactive)
REMARK    1  A    between atoms: C_7  and  C_8
REMARK    2  A    between atoms: N_10  and  C_11
REMARK    3  A    between atoms: C_11  and  C_12
REMARK    4  A    between atoms: C_12  and  C_13
REMARK                            x       y       z     vdW  Elec       q    Type
REMARK                         _______ _______ _______ _____ _____    ______ ____
ROOT
ATOM      1  C   UNL     1       2.384   8.376  18.032  0.00  0.00    +0.000 C 
ATOM      2  O   UNL     1       2.533   9.136  17.084  0.00  0.00    +0.000 OA
ATOM      3  N   UNL     1       1.759   8.754  19.199  0.00  0.00    +0.000 N 
ATOM      4  H   UNL     1       1.575   8.053  19.909  0.00  0.00    +0.000 HD
ENDROOT
BRANCH   1  11
ATOM      5  O   UNL     1       3.896   0.803  18.535  0.00  0.00    +0.000 OA
ATOM      6  C   UNL     1       3.408   1.907  18.309  0.00  0.00    +0.000 C 
ATOM      7  C   UNL     1       1.921   2.130  18.180  0.00  0.00    +0.000 C 
ATOM      8  C   UNL     1       1.492   3.485  18.724  0.00  0.00    +0.000 C 
ATOM      9  C   UNL     1       2.406   4.591  18.269  0.00  0.00    +0.000 A 
ATOM     10  C   UNL     1       1.979   5.930  18.287  0.00  0.00    +0.000 A 
ATOM     11  C   UNL     1       2.867   6.965  17.950  0.00  0.00    +0.000 A 
ATOM     12  C   UNL     1       4.175   6.635  17.581  0.00  0.00    +0.000 A 
ATOM     13  F   UNL     1       5.061   7.582  17.244  0.00  0.00    +0.000 F 
ATOM     14  C   UNL     1       4.614   5.314  17.577  0.00  0.00    +0.000 A 
ATOM     15  C   UNL     1       3.733   4.298  17.938  0.00  0.00    +0.000 A 
ATOM     16  N   UNL     1       4.202   2.987  18.032  0.00  0.00    +0.000 N 
ATOM     17  H   UNL     1       5.195   2.794  17.976  0.00  0.00    +0.000 HD
ENDBRANCH   1  11
BRANCH   3  18
ATOM     18  C   UNL     1       1.132  10.054  19.358  0.00  0.00    +0.000 C 
BRANCH  18  19
ATOM     19  C   UNL     1      -0.305   9.949  19.886  0.00  0.00    +0.000 C 
BRANCH  19  20
ATOM     20  C   UNL     1      -1.399  10.337  18.908  0.00  0.00    +0.000 A 
ATOM     21  C   UNL     1      -2.306  11.389  19.157  0.00  0.00    +0.000 A 
ATOM     22  C   UNL     1      -3.235  11.796  18.190  0.00  0.00    +0.000 A 
ATOM     23  C   UNL     1      -3.225  11.131  16.982  0.00  0.00    +0.000 A 
ATOM     24  C   UNL     1      -2.389  10.066  16.751  0.00  0.00    +0.000 A 
ATOM     25  C   UNL     1      -1.489   9.626  17.697  0.00  0.00    +0.000 A 
ATOM     26  O   UNL     1      -2.522   9.566  15.493  0.00  0.00    +0.000 OA
ATOM     27  C   UNL     1      -3.321  10.610  14.901  0.00  0.00    +0.000 C 
ATOM     28  O   UNL     1      -3.970  11.443  15.886  0.00  0.00    +0.000 OA
ENDBRANCH  19  20
ENDBRANCH  18  19
ENDBRANCH   3  18
TORSDOF 4
ENDMDL
