MODEL 1
REMARK VINA RESULT:      -8.0      0.000      0.000
REMARK  Name = 
REMARK  4 active torsions:
REMARK  status: ('A' for Active; 'I' for Inactive)
REMARK    1  A    between atoms: C_1  and  N_2
REMARK    2  A    between atoms: C_4  and  N_5
REMARK    3  A    between atoms: C_7  and  C_8
REMARK    4  A    between atoms: C_14  and  C_15
REMARK                            x       y       z     vdW  Elec       q    Type
REMARK                         _______ _______ _______ _____ _____    ______ ____
ROOT
ATOM      1  C   UNL     1       1.353   7.702  20.316  0.00  0.00    +0.000 C 
ATOM      2  O   UNL     1       0.853   8.111  21.365  0.00  0.00    +0.000 OA
ATOM      3  N   UNL     1       1.492   8.516  19.206  0.00  0.00    +0.000 N 
ATOM      4  C   UNL     1       2.131   8.226  17.937  0.00  0.00    +0.000 C 
ATOM      5  C   UNL     1       2.651   9.537  17.389  0.00  0.00    +0.000 C 
ATOM      6  C   UNL     1       1.991  10.631  18.206  0.00  0.00    +0.000 C 
ATOM      7  C   UNL     1       1.223   9.938  19.350  0.00  0.00    +0.000 C 
ENDROOT
BRANCH   7   8
ATOM      8  C   UNL     1      -0.232  10.369  19.291  0.00  0.00    +0.000 A 
ATOM      9  C   UNL     1      -1.112  10.011  18.261  0.00  0.00    +0.000 A 
ATOM     10  C   UNL     1      -2.346  10.660  18.129  0.00  0.00    +0.000 A 
ATOM     11  C   UNL     1      -2.678  11.722  18.974  0.00  0.00    +0.000 A 
ATOM     12  C   UNL     1      -1.806  12.091  19.993  0.00  0.00    +0.000 A 
ATOM     13  C   UNL     1      -0.644  11.358  20.200  0.00  0.00    +0.000 A 
ATOM     14  O   UNL     1       0.136  11.579  21.303  0.00  0.00    +0.000 OA
ATOM     15  C   UNL     1       0.272  12.973  21.504  0.00  0.00    +0.000 C 
ATOM     16  C   UNL     1      -1.054  13.724  21.517  0.00  0.00    +0.000 C 
ATOM     17  O   UNL     1      -2.125  13.193  20.729  0.00  0.00    +0.000 OA
ENDBRANCH   7   8
BRANCH   1  20
ATOM     18  N   UNL     1       3.729   4.936  19.510  0.00  0.00    +0.000 N 
ATOM     19  C   UNL     1       3.126   6.184  19.683  0.00  0.00    +0.000 A 
ATOM     20  C   UNL     1       1.933   6.321  20.294  0.00  0.00    +0.000 A 
ATOM     21  C   UNL     1       1.308   5.156  20.880  0.00  0.00    +0.000 A 
ATOM     22  C   UNL     1       1.823   3.942  20.684  0.00  0.00    +0.000 A 
ATOM     23  C   UNL     1       3.102   3.758  19.940  0.00  0.00    +0.000 A 
ATOM     24  O   UNL     1       3.491   2.603  19.800  0.00  0.00    +0.000 OA
BRANCH  18  28
ATOM     25  C   UNL     1       7.199   4.591  16.010  0.00  0.00    +0.000 C 
ATOM     26  N   UNL     1       6.522   4.754  17.274  0.00  0.00    +0.000 N 
ATOM     27  C   UNL     1       5.187   4.614  17.511  0.00  0.00    +0.000 A 
ATOM     28  C   UNL     1       4.967   4.917  18.842  0.00  0.00    +0.000 A 
ATOM     29  C   UNL     1       6.284   5.191  19.314  0.00  0.00    +0.000 A 
ATOM     30  N   UNL     1       7.222   5.094  18.365  0.00  0.00    +0.000 NA
ENDBRANCH  18  28
ENDBRANCH   1  20
TORSDOF 3
ENDMDL
MODEL 2
REMARK VINA RESULT:      -7.7      1.873      2.721
REMARK  Name = 
REMARK  4 active torsions:
REMARK  status: ('A' for Active; 'I' for Inactive)
REMARK    1  A    between atoms: C_1  and  N_2
REMARK    2  A    between atoms: C_4  and  N_5
REMARK    3  A    between atoms: C_7  and  C_8
REMARK    4  A    between atoms: C_14  and  C_15
REMARK                            x       y       z     vdW  Elec       q    Type
REMARK                         _______ _______ _______ _____ _____    ______ ____
ROOT
ATOM      1  C   UNL     1       1.776   8.308  18.609  0.00  0.00    +0.000 C 
ATOM      2  O   UNL     1       1.451   8.616  17.462  0.00  0.00    +0.000 OA
ATOM      3  N   UNL     1       1.324   9.012  19.711  0.00  0.00    +0.000 N 
ATOM      4  C   UNL     1       1.534   8.736  21.119  0.00  0.00    +0.000 C 
ATOM      5  C   UNL     1       0.336   9.282  21.866  0.00  0.00    +0.000 C 
ATOM      6  C   UNL     1      -0.397  10.183  20.890  0.00  0.00    +0.000 C 
ATOM      7  C   UNL     1       0.286  10.013  19.518  0.00  0.00    +0.000 C 
ENDROOT
BRANCH   7   8
ATOM      8  C   UNL     1       0.734  11.377  19.024  0.00  0.00    +0.000 A 
ATOM      9  C   UNL     1       2.054  11.683  18.664  0.00  0.00    +0.000 A 
ATOM     10  C   UNL     1       2.445  13.016  18.481  0.00  0.00    +0.000 A 
ATOM     11  C   UNL     1       1.546  14.055  18.732  0.00  0.00    +0.000 A 
ATOM     12  C   UNL     1       0.237  13.760  19.100  0.00  0.00    +0.000 A 
ATOM     13  C   UNL     1      -0.180  12.436  19.152  0.00  0.00    +0.000 A 
ATOM     14  O   UNL     1      -1.501  12.125  19.327  0.00  0.00    +0.000 OA
ATOM     15  C   UNL     1      -2.044  12.955  20.336  0.00  0.00    +0.000 C 
ATOM     16  C   UNL     1      -1.777  14.440  20.119  0.00  0.00    +0.000 C 
ATOM     17  O   UNL     1      -0.576  14.804  19.430  0.00  0.00    +0.000 OA
ENDBRANCH   7   8
BRANCH   1  20
ATOM     18  N   UNL     1       4.373   5.702  17.974  0.00  0.00    +0.000 N 
ATOM     19  C   UNL     1       3.604   6.867  17.954  0.00  0.00    +0.000 A 
ATOM     20  C   UNL     1       2.583   7.063  18.811  0.00  0.00    +0.000 A 
ATOM     21  C   UNL     1       2.344   6.085  19.850  0.00  0.00    +0.000 A 
ATOM     22  C   UNL     1       3.018   4.935  19.864  0.00  0.00    +0.000 A 
ATOM     23  C   UNL     1       4.098   4.663  18.874  0.00  0.00    +0.000 A 
ATOM     24  O   UNL     1       4.655   3.573  18.958  0.00  0.00    +0.000 OA
BRANCH  18  28
ATOM     25  C   UNL     1       6.924   4.649  13.875  0.00  0.00    +0.000 C 
ATOM     26  N   UNL     1       6.546   5.125  15.184  0.00  0.00    +0.000 N 
ATOM     27  C   UNL     1       5.352   4.929  15.813  0.00  0.00    +0.000 A 
ATOM     28  C   UNL     1       5.402   5.605  17.018  0.00  0.00    +0.000 A 
ATOM     29  C   UNL     1       6.721   6.145  17.010  0.00  0.00    +0.000 A 
ATOM     30  N   UNL     1       7.410   5.857  15.901  0.00  0.00    +0.000 NA
ENDBRANCH  18  28
ENDBRANCH   1  20
TORSDOF 3
ENDMDL
MODEL 3
REMARK VINA RESULT:      -7.7      1.245      1.307
REMARK  Name = 
REMARK  4 active torsions:
REMARK  status: ('A' for Active; 'I' for Inactive)
REMARK    1  A    between atoms: C_1  and  N_2
REMARK    2  A    between atoms: C_4  and  N_5
REMARK    3  A    between atoms: C_7  and  C_8
REMARK    4  A    between atoms: C_14  and  C_15
REMARK                            x       y       z     vdW  Elec       q    Type
REMARK                         _______ _______ _______ _____ _____    ______ ____
ROOT
ATOM      1  C   UNL     1       1.224   8.211  20.242  0.00  0.00    +0.000 C 
ATOM      2  O   UNL     1       0.658   8.393  21.321  0.00  0.00    +0.000 OA
ATOM      3  N   UNL     1       1.322   9.211  19.290  0.00  0.00    +0.000 N 
ATOM      4  C   UNL     1       2.022   9.195  18.020  0.00  0.00    +0.000 C 
ATOM      5  C   UNL     1       2.440  10.619  17.723  0.00  0.00    +0.000 C 
ATOM      6  C   UNL     1       1.661  11.500  18.682  0.00  0.00    +0.000 C 
ATOM      7  C   UNL     1       0.924  10.561  19.658  0.00  0.00    +0.000 C 
ENDROOT
BRANCH   7   8
ATOM      8  C   UNL     1      -0.561  10.874  19.608  0.00  0.00    +0.000 A 
ATOM      9  C   UNL     1      -1.398  10.522  18.539  0.00  0.00    +0.000 A 
ATOM     10  C   UNL     1      -2.681  11.076  18.435  0.00  0.00    +0.000 A 
ATOM     11  C   UNL     1      -3.108  12.041  19.350  0.00  0.00    +0.000 A 
ATOM     12  C   UNL     1      -2.279  12.405  20.407  0.00  0.00    +0.000 A 
ATOM     13  C   UNL     1      -1.063  11.757  20.579  0.00  0.00    +0.000 A 
ATOM     14  O   UNL     1      -0.315  11.959  21.707  0.00  0.00    +0.000 OA
ATOM     15  C   UNL     1      -0.297  13.340  22.011  0.00  0.00    +0.000 C 
ATOM     16  C   UNL     1      -1.681  13.978  22.057  0.00  0.00    +0.000 C 
ATOM     17  O   UNL     1      -2.696  13.420  21.216  0.00  0.00    +0.000 OA
ENDBRANCH   7   8
BRANCH   1  20
ATOM     18  N   UNL     1       3.393   5.668  18.578  0.00  0.00    +0.000 N 
ATOM     19  C   UNL     1       2.754   6.852  18.955  0.00  0.00    +0.000 A 
ATOM     20  C   UNL     1       1.923   6.907  20.015  0.00  0.00    +0.000 A 
ATOM     21  C   UNL     1       1.771   5.735  20.848  0.00  0.00    +0.000 A 
ATOM     22  C   UNL     1       2.317   4.573  20.487  0.00  0.00    +0.000 A 
ATOM     23  C   UNL     1       3.175   4.470  19.272  0.00  0.00    +0.000 A 
ATOM     24  O   UNL     1       3.624   3.358  19.013  0.00  0.00    +0.000 OA
BRANCH  18  28
ATOM     25  C   UNL     1       5.964   4.451  14.539  0.00  0.00    +0.000 C 
ATOM     26  N   UNL     1       5.383   5.181  15.639  0.00  0.00    +0.000 N 
ATOM     27  C   UNL     1       4.614   4.672  16.643  0.00  0.00    +0.000 A 
ATOM     28  C   UNL     1       4.224   5.730  17.444  0.00  0.00    +0.000 A 
ATOM     29  C   UNL     1       4.870   6.838  16.822  0.00  0.00    +0.000 A 
ATOM     30  N   UNL     1       5.568   6.506  15.731  0.00  0.00    +0.000 NA
ENDBRANCH  18  28
ENDBRANCH   1  20
TORSDOF 3
ENDMDL
MODEL 4
REMARK VINA RESULT:      -7.6      7.174     10.826
REMARK  Name = 
REMARK  4 active torsions:
REMARK  status: ('A' for Active; 'I' for Inactive)
REMARK    1  A    between atoms: C_1  and  N_2
REMARK    2  A    between atoms: C_4  and  N_5
REMARK    3  A    between atoms: C_7  and  C_8
REMARK    4  A    between atoms: C_14  and  C_15
REMARK                            x       y       z     vdW  Elec       q    Type
REMARK                         _______ _______ _______ _____ _____    ______ ____
ROOT
ATOM      1  C   UNL     1       6.058  14.885  18.607  0.00  0.00    +0.000 C 
ATOM      2  O   UNL     1       6.501  14.324  17.604  0.00  0.00    +0.000 OA
ATOM      3  N   UNL     1       6.886  15.323  19.625  0.00  0.00    +0.000 N 
ATOM      4  C   UNL     1       6.545  16.072  20.820  0.00  0.00    +0.000 C 
ATOM      5  C   UNL     1       7.760  16.892  21.195  0.00  0.00    +0.000 C 
ATOM      6  C   UNL     1       8.917  16.331  20.390  0.00  0.00    +0.000 C 
ATOM      7  C   UNL     1       8.325  15.297  19.411  0.00  0.00    +0.000 C 
ENDROOT
BRANCH   7   8
ATOM      8  C   UNL     1       9.025  13.967  19.624  0.00  0.00    +0.000 A 
ATOM      9  C   UNL     1       8.932  13.215  20.804  0.00  0.00    +0.000 A 
ATOM     10  C   UNL     1       9.811  12.148  21.032  0.00  0.00    +0.000 A 
ATOM     11  C   UNL     1      10.836  11.873  20.124  0.00  0.00    +0.000 A 
ATOM     12  C   UNL     1      10.942  12.621  18.956  0.00  0.00    +0.000 A 
ATOM     13  C   UNL     1       9.989  13.591  18.674  0.00  0.00    +0.000 A 
ATOM     14  O   UNL     1       9.960  14.209  17.453  0.00  0.00    +0.000 OA
ATOM     15  C   UNL     1      11.280  14.549  17.073  0.00  0.00    +0.000 C 
ATOM     16  C   UNL     1      12.263  13.388  17.160  0.00  0.00    +0.000 C 
ATOM     17  O   UNL     1      12.014  12.382  18.149  0.00  0.00    +0.000 OA
ENDBRANCH   7   8
BRANCH   1  20
ATOM     18  N   UNL     1       2.417  14.423  19.292  0.00  0.00    +0.000 N 
ATOM     19  C   UNL     1       3.808  14.292  19.261  0.00  0.00    +0.000 A 
ATOM     20  C   UNL     1       4.596  15.204  18.658  0.00  0.00    +0.000 A 
ATOM     21  C   UNL     1       3.995  16.403  18.119  0.00  0.00    +0.000 A 
ATOM     22  C   UNL     1       2.669  16.535  18.078  0.00  0.00    +0.000 A 
ATOM     23  C   UNL     1       1.773  15.500  18.667  0.00  0.00    +0.000 A 
ATOM     24  O   UNL     1       0.567  15.702  18.571  0.00  0.00    +0.000 OA
BRANCH  18  28
ATOM     25  C   UNL     1       0.332  10.074  20.362  0.00  0.00    +0.000 C 
ATOM     26  N   UNL     1       0.757  11.452  20.410  0.00  0.00    +0.000 N 
ATOM     27  C   UNL     1       1.454  12.127  19.453  0.00  0.00    +0.000 A 
ATOM     28  C   UNL     1       1.698  13.399  19.936  0.00  0.00    +0.000 A 
ATOM     29  C   UNL     1       1.049  13.373  21.205  0.00  0.00    +0.000 A 
ATOM     30  N   UNL     1       0.483  12.195  21.492  0.00  0.00    +0.000 NA
ENDBRANCH  18  28
ENDBRANCH   1  20
TORSDOF 3
ENDMDL
MODEL 5
REMARK VINA RESULT:      -7.5      1.893      2.861
REMARK  Name = 
REMARK  4 active torsions:
REMARK  status: ('A' for Active; 'I' for Inactive)
REMARK    1  A    between atoms: C_1  and  N_2
REMARK    2  A    between atoms: C_4  and  N_5
REMARK    3  A    between atoms: C_7  and  C_8
REMARK    4  A    between atoms: C_14  and  C_15
REMARK                            x       y       z     vdW  Elec       q    Type
REMARK                         _______ _______ _______ _____ _____    ______ ____
ROOT
ATOM      1  C   UNL     1       1.340   8.741  19.501  0.00  0.00    +0.000 C 
ATOM      2  O   UNL     1       0.996   9.181  18.403  0.00  0.00    +0.000 OA
ATOM      3  N   UNL     1       0.971   9.356  20.684  0.00  0.00    +0.000 N 
ATOM      4  C   UNL     1       1.212   8.928  22.049  0.00  0.00    +0.000 C 
ATOM      5  C   UNL     1       0.076   9.464  22.893  0.00  0.00    +0.000 C 
ATOM      6  C   UNL     1      -0.634  10.500  22.041  0.00  0.00    +0.000 C 
ATOM      7  C   UNL     1      -0.010  10.429  20.632  0.00  0.00    +0.000 C 
ENDROOT
BRANCH   7   8
ATOM      8  C   UNL     1       0.503  11.808  20.256  0.00  0.00    +0.000 A 
ATOM      9  C   UNL     1       1.854  12.178  20.302  0.00  0.00    +0.000 A 
ATOM     10  C   UNL     1       2.221  13.527  20.207  0.00  0.00    +0.000 A 
ATOM     11  C   UNL     1       1.241  14.521  20.146  0.00  0.00    +0.000 A 
ATOM     12  C   UNL     1      -0.103  14.163  20.112  0.00  0.00    +0.000 A 
ATOM     13  C   UNL     1      -0.455  12.819  20.073  0.00  0.00    +0.000 A 
ATOM     14  O   UNL     1      -1.752  12.441  19.852  0.00  0.00    +0.000 OA
ATOM     15  C   UNL     1      -2.611  13.255  20.626  0.00  0.00    +0.000 C 
ATOM     16  C   UNL     1      -2.360  14.749  20.457  0.00  0.00    +0.000 C 
ATOM     17  O   UNL     1      -1.025  15.167  20.151  0.00  0.00    +0.000 OA
ENDBRANCH   7   8
BRANCH   1  20
ATOM     18  N   UNL     1       3.788   6.090  18.541  0.00  0.00    +0.000 N 
ATOM     19  C   UNL     1       3.085   7.290  18.666  0.00  0.00    +0.000 A 
ATOM     20  C   UNL     1       2.077   7.438  19.548  0.00  0.00    +0.000 A 
ATOM     21  C   UNL     1       1.783   6.358  20.463  0.00  0.00    +0.000 A 
ATOM     22  C   UNL     1       2.392   5.178  20.335  0.00  0.00    +0.000 A 
ATOM     23  C   UNL     1       3.455   4.967  19.312  0.00  0.00    +0.000 A 
ATOM     24  O   UNL     1       3.949   3.846  19.262  0.00  0.00    +0.000 OA
BRANCH  18  28
ATOM     25  C   UNL     1       6.439   4.996  14.519  0.00  0.00    +0.000 C 
ATOM     26  N   UNL     1       6.001   5.553  15.775  0.00  0.00    +0.000 N 
ATOM     27  C   UNL     1       4.861   5.240  16.455  0.00  0.00    +0.000 A 
ATOM     28  C   UNL     1       4.809   6.051  17.574  0.00  0.00    +0.000 A 
ATOM     29  C   UNL     1       6.021   6.795  17.468  0.00  0.00    +0.000 A 
ATOM     30  N   UNL     1       6.738   6.495  16.380  0.00  0.00    +0.000 NA
ENDBRANCH  18  28
ENDBRANCH   1  20
TORSDOF 3
ENDMDL
MODEL 6
REMARK VINA RESULT:      -7.4      0.759      1.037
REMARK  Name = 
REMARK  4 active torsions:
REMARK  status: ('A' for Active; 'I' for Inactive)
REMARK    1  A    between atoms: C_1  and  N_2
REMARK    2  A    between atoms: C_4  and  N_5
REMARK    3  A    between atoms: C_7  and  C_8
REMARK    4  A    between atoms: C_14  and  C_15
REMARK                            x       y       z     vdW  Elec       q    Type
REMARK                         _______ _______ _______ _____ _____    ______ ____
ROOT
ATOM      1  C   UNL     1       1.402   7.815  20.439  0.00  0.00    +0.000 C 
ATOM      2  O   UNL     1       1.112   8.252  21.553  0.00  0.00    +0.000 OA
ATOM      3  N   UNL     1       1.481   8.636  19.328  0.00  0.00    +0.000 N 
ATOM      4  C   UNL     1       1.890   8.307  17.977  0.00  0.00    +0.000 C 
ATOM      5  C   UNL     1       2.487   9.559  17.372  0.00  0.00    +0.000 C 
ATOM      6  C   UNL     1       2.092  10.703  18.288  0.00  0.00    +0.000 C 
ATOM      7  C   UNL     1       1.415  10.076  19.524  0.00  0.00    +0.000 C 
ENDROOT
BRANCH   7   8
ATOM      8  C   UNL     1       0.032  10.683  19.682  0.00  0.00    +0.000 A 
ATOM      9  C   UNL     1      -1.084  10.291  18.930  0.00  0.00    +0.000 A 
ATOM     10  C   UNL     1      -2.248  11.071  18.934  0.00  0.00    +0.000 A 
ATOM     11  C   UNL     1      -2.281  12.285  19.625  0.00  0.00    +0.000 A 
ATOM     12  C   UNL     1      -1.173  12.687  20.365  0.00  0.00    +0.000 A 
ATOM     13  C   UNL     1      -0.071  11.847  20.463  0.00  0.00    +0.000 A 
ATOM     14  O   UNL     1       0.950  12.129  21.330  0.00  0.00    +0.000 OA
ATOM     15  C   UNL     1       1.262  13.506  21.246  0.00  0.00    +0.000 C 
ATOM     16  C   UNL     1       0.051  14.421  21.390  0.00  0.00    +0.000 C 
ATOM     17  O   UNL     1      -1.214  13.922  20.941  0.00  0.00    +0.000 OA
ENDBRANCH   7   8
BRANCH   1  20
ATOM     18  N   UNL     1       3.279   4.804  19.274  0.00  0.00    +0.000 N 
ATOM     19  C   UNL     1       2.867   6.111  19.545  0.00  0.00    +0.000 A 
ATOM     20  C   UNL     1       1.796   6.375  20.318  0.00  0.00    +0.000 A 
ATOM     21  C   UNL     1       1.116   5.278  20.971  0.00  0.00    +0.000 A 
ATOM     22  C   UNL     1       1.443   4.016  20.690  0.00  0.00    +0.000 A 
ATOM     23  C   UNL     1       2.575   3.700  19.773  0.00  0.00    +0.000 A 
ATOM     24  O   UNL     1       2.794   2.511  19.565  0.00  0.00    +0.000 OA
BRANCH  18  28
ATOM     25  C   UNL     1       7.926   4.522  17.620  0.00  0.00    +0.000 C 
ATOM     26  N   UNL     1       6.485   4.537  17.697  0.00  0.00    +0.000 N 
ATOM     27  C   UNL     1       5.729   4.812  18.798  0.00  0.00    +0.000 A 
ATOM     28  C   UNL     1       4.402   4.654  18.439  0.00  0.00    +0.000 A 
ATOM     29  C   UNL     1       4.498   4.315  17.058  0.00  0.00    +0.000 A 
ATOM     30  N   UNL     1       5.757   4.242  16.612  0.00  0.00    +0.000 NA
ENDBRANCH  18  28
ENDBRANCH   1  20
TORSDOF 3
ENDMDL
MODEL 7
REMARK VINA RESULT:      -7.4      4.390     10.058
REMARK  Name = 
REMARK  4 active torsions:
REMARK  status: ('A' for Active; 'I' for Inactive)
REMARK    1  A    between atoms: C_1  and  N_2
REMARK    2  A    between atoms: C_4  and  N_5
REMARK    3  A    between atoms: C_7  and  C_8
REMARK    4  A    between atoms: C_14  and  C_15
REMARK                            x       y       z     vdW  Elec       q    Type
REMARK                         _______ _______ _______ _____ _____    ______ ____
ROOT
ATOM      1  C   UNL     1      -2.604  11.007  18.581  0.00  0.00    +0.000 C 
ATOM      2  O   UNL     1      -2.354   9.941  18.017  0.00  0.00    +0.000 OA
ATOM      3  N   UNL     1      -1.637  11.711  19.277  0.00  0.00    +0.000 N 
ATOM      4  C   UNL     1      -1.736  13.009  19.916  0.00  0.00    +0.000 C 
ATOM      5  C   UNL     1      -0.357  13.631  19.882  0.00  0.00    +0.000 C 
ATOM      6  C   UNL     1       0.604  12.514  19.520  0.00  0.00    +0.000 C 
ATOM      7  C   UNL     1      -0.252  11.280  19.168  0.00  0.00    +0.000 C 
ENDROOT
BRANCH   7   8
ATOM      8  C   UNL     1       0.176  10.122  20.052  0.00  0.00    +0.000 A 
ATOM      9  C   UNL     1       0.077  10.128  21.451  0.00  0.00    +0.000 A 
ATOM     10  C   UNL     1       0.735   9.152  22.210  0.00  0.00    +0.000 A 
ATOM     11  C   UNL     1       1.558   8.211  21.587  0.00  0.00    +0.000 A 
ATOM     12  C   UNL     1       1.671   8.204  20.200  0.00  0.00    +0.000 A 
ATOM     13  C   UNL     1       0.913   9.091  19.446  0.00  0.00    +0.000 A 
ATOM     14  O   UNL     1       0.862   8.984  18.082  0.00  0.00    +0.000 OA
ATOM     15  C   UNL     1       2.165   8.749  17.585  0.00  0.00    +0.000 C 
ATOM     16  C   UNL     1       2.887   7.597  18.275  0.00  0.00    +0.000 C 
ATOM     17  O   UNL     1       2.560   7.334  19.644  0.00  0.00    +0.000 OA
ENDBRANCH   7   8
BRANCH   1  20
ATOM     18  N   UNL     1      -5.951  12.384  19.499  0.00  0.00    +0.000 N 
ATOM     19  C   UNL     1      -4.638  11.909  19.528  0.00  0.00    +0.000 A 
ATOM     20  C   UNL     1      -3.964  11.607  18.400  0.00  0.00    +0.000 A 
ATOM     21  C   UNL     1      -4.579  11.883  17.121  0.00  0.00    +0.000 A 
ATOM     22  C   UNL     1      -5.851  12.280  17.054  0.00  0.00    +0.000 A 
ATOM     23  C   UNL     1      -6.642  12.542  18.289  0.00  0.00    +0.000 A 
ATOM     24  O   UNL     1      -7.807  12.892  18.128  0.00  0.00    +0.000 OA
BRANCH  18  28
ATOM     25  C   UNL     1      -7.225  14.514  23.771  0.00  0.00    +0.000 C 
ATOM     26  N   UNL     1      -7.121  13.599  22.660  0.00  0.00    +0.000 N 
ATOM     27  C   UNL     1      -6.282  13.705  21.590  0.00  0.00    +0.000 A 
ATOM     28  C   UNL     1      -6.557  12.648  20.741  0.00  0.00    +0.000 A 
ATOM     29  C   UNL     1      -7.575  11.944  21.450  0.00  0.00    +0.000 A 
ATOM     30  N   UNL     1      -7.916  12.521  22.607  0.00  0.00    +0.000 NA
ENDBRANCH  18  28
ENDBRANCH   1  20
TORSDOF 3
ENDMDL
MODEL 8
REMARK VINA RESULT:      -7.3      2.138      3.935
REMARK  Name = 
REMARK  4 active torsions:
REMARK  status: ('A' for Active; 'I' for Inactive)
REMARK    1  A    between atoms: C_1  and  N_2
REMARK    2  A    between atoms: C_4  and  N_5
REMARK    3  A    between atoms: C_7  and  C_8
REMARK    4  A    between atoms: C_14  and  C_15
REMARK                            x       y       z     vdW  Elec       q    Type
REMARK                         _______ _______ _______ _____ _____    ______ ____
ROOT
ATOM      1  C   UNL     1       1.737   9.016  18.350  0.00  0.00    +0.000 C 
ATOM      2  O   UNL     1       1.375   9.713  17.401  0.00  0.00    +0.000 OA
ATOM      3  N   UNL     1       1.270   9.230  19.634  0.00  0.00    +0.000 N 
ATOM      4  C   UNL     1       1.521   8.459  20.836  0.00  0.00    +0.000 C 
ATOM      5  C   UNL     1       0.309   8.617  21.730  0.00  0.00    +0.000 C 
ATOM      6  C   UNL     1      -0.489   9.775  21.162  0.00  0.00    +0.000 C 
ATOM      7  C   UNL     1       0.176  10.170  19.828  0.00  0.00    +0.000 C 
ENDROOT
BRANCH   7   8
ATOM      8  C   UNL     1       0.541  11.643  19.882  0.00  0.00    +0.000 A 
ATOM      9  C   UNL     1       1.834  12.119  20.140  0.00  0.00    +0.000 A 
ATOM     10  C   UNL     1       2.042  13.471  20.444  0.00  0.00    +0.000 A 
ATOM     11  C   UNL     1       0.955  14.340  20.569  0.00  0.00    +0.000 A 
ATOM     12  C   UNL     1      -0.333  13.873  20.326  0.00  0.00    +0.000 A 
ATOM     13  C   UNL     1      -0.519  12.565  19.897  0.00  0.00    +0.000 A 
ATOM     14  O   UNL     1      -1.747  12.136  19.473  0.00  0.00    +0.000 OA
ATOM     15  C   UNL     1      -2.739  12.613  20.361  0.00  0.00    +0.000 C 
ATOM     16  C   UNL     1      -2.659  14.113  20.623  0.00  0.00    +0.000 C 
ATOM     17  O   UNL     1      -1.368  14.730  20.555  0.00  0.00    +0.000 OA
ENDBRANCH   7   8
BRANCH   1  20
ATOM     18  N   UNL     1       3.014   5.512  18.525  0.00  0.00    +0.000 N 
ATOM     19  C   UNL     1       2.234   6.667  18.627  0.00  0.00    +0.000 A 
ATOM     20  C   UNL     1       2.614   7.835  18.073  0.00  0.00    +0.000 A 
ATOM     21  C   UNL     1       3.810   7.869  17.261  0.00  0.00    +0.000 A 
ATOM     22  C   UNL     1       4.609   6.804  17.189  0.00  0.00    +0.000 A 
ATOM     23  C   UNL     1       4.249   5.523  17.862  0.00  0.00    +0.000 A 
ATOM     24  O   UNL     1       5.052   4.603  17.750  0.00  0.00    +0.000 OA
BRANCH  18  28
ATOM     25  C   UNL     1       1.519   2.283  21.953  0.00  0.00    +0.000 C 
ATOM     26  N   UNL     1       1.860   2.907  20.697  0.00  0.00    +0.000 N 
ATOM     27  C   UNL     1       2.425   4.136  20.521  0.00  0.00    +0.000 A 
ATOM     28  C   UNL     1       2.521   4.356  19.159  0.00  0.00    +0.000 A 
ATOM     29  C   UNL     1       2.005   3.144  18.616  0.00  0.00    +0.000 A 
ATOM     30  N   UNL     1       1.604   2.270  19.546  0.00  0.00    +0.000 NA
ENDBRANCH  18  28
ENDBRANCH   1  20
TORSDOF 3
ENDMDL
MODEL 9
REMARK VINA RESULT:      -7.3      2.088      3.330
REMARK  Name = 
REMARK  4 active torsions:
REMARK  status: ('A' for Active; 'I' for Inactive)
REMARK    1  A    between atoms: C_1  and  N_2
REMARK    2  A    between atoms: C_4  and  N_5
REMARK    3  A    between atoms: C_7  and  C_8
REMARK    4  A    between atoms: C_14  and  C_15
REMARK                            x       y       z     vdW  Elec       q    Type
REMARK                         _______ _______ _______ _____ _____    ______ ____
ROOT
ATOM      1  C   UNL     1       1.091   9.290  19.777  0.00  0.00    +0.000 C 
ATOM      2  O   UNL     1       0.472   8.914  20.773  0.00  0.00    +0.000 OA
ATOM      3  N   UNL     1       1.088  10.613  19.370  0.00  0.00    +0.000 N 
ATOM      4  C   UNL     1       1.824  11.235  18.286  0.00  0.00    +0.000 C 
ATOM      5  C   UNL     1       2.060  12.678  18.678  0.00  0.00    +0.000 C 
ATOM      6  C   UNL     1       1.141  12.955  19.853  0.00  0.00    +0.000 C 
ATOM      7  C   UNL     1       0.503  11.610  20.253  0.00  0.00    +0.000 C 
ENDROOT
BRANCH   7   8
ATOM      8  C   UNL     1      -1.007  11.756  20.216  0.00  0.00    +0.000 A 
ATOM      9  C   UNL     1      -1.776  11.629  19.050  0.00  0.00    +0.000 A 
ATOM     10  C   UNL     1      -3.115  12.042  19.038  0.00  0.00    +0.000 A 
ATOM     11  C   UNL     1      -3.673  12.656  20.162  0.00  0.00    +0.000 A 
ATOM     12  C   UNL     1      -2.914  12.796  21.320  0.00  0.00    +0.000 A 
ATOM     13  C   UNL     1      -1.631  12.266  21.367  0.00  0.00    +0.000 A 
ATOM     14  O   UNL     1      -0.934  12.224  22.544  0.00  0.00    +0.000 OA
ATOM     15  C   UNL     1      -1.090  13.456  23.221  0.00  0.00    +0.000 C 
ATOM     16  C   UNL     1      -2.541  13.895  23.371  0.00  0.00    +0.000 C 
ATOM     17  O   UNL     1      -3.466  13.488  22.357  0.00  0.00    +0.000 OA
ENDBRANCH   7   8
BRANCH   1  20
ATOM     18  N   UNL     1       2.892   6.091  19.099  0.00  0.00    +0.000 N 
ATOM     19  C   UNL     1       2.041   7.073  19.610  0.00  0.00    +0.000 A 
ATOM     20  C   UNL     1       1.964   8.303  19.065  0.00  0.00    +0.000 A 
ATOM     21  C   UNL     1       2.706   8.581  17.856  0.00  0.00    +0.000 A 
ATOM     22  C   UNL     1       3.573   7.690  17.374  0.00  0.00    +0.000 A 
ATOM     23  C   UNL     1       3.733   6.351  18.008  0.00  0.00    +0.000 A 
ATOM     24  O   UNL     1       4.563   5.603  17.502  0.00  0.00    +0.000 OA
BRANCH  18  28
ATOM     25  C   UNL     1       1.655   2.276  21.985  0.00  0.00    +0.000 C 
ATOM     26  N   UNL     1       2.347   3.144  21.063  0.00  0.00    +0.000 N 
ATOM     27  C   UNL     1       1.993   4.414  20.713  0.00  0.00    +0.000 A 
ATOM     28  C   UNL     1       2.898   4.849  19.762  0.00  0.00    +0.000 A 
ATOM     29  C   UNL     1       3.786   3.739  19.655  0.00  0.00    +0.000 A 
ATOM     30  N   UNL     1       3.450   2.709  20.439  0.00  0.00    +0.000 NA
ENDBRANCH  18  28
ENDBRANCH   1  20
TORSDOF 3
ENDMDL
