MODEL 1
REMARK VINA RESULT:      -8.1      0.000      0.000
REMARK  Name = 
REMARK  5 active torsions:
REMARK  status: ('A' for Active; 'I' for Inactive)
REMARK    1  A    between atoms: C_1  and  C_2
REMARK    2  A    between atoms: C_6  and  N_7
REMARK    3  A    between atoms: C_8  and  C_10
REMARK    4  A    between atoms: C_15  and  C_17
REMARK    5  A    between atoms: C_23  and  C_24
REMARK                            x       y       z     vdW  Elec       q    Type
REMARK                         _______ _______ _______ _____ _____    ______ ____
ROOT
ATOM      1  C   UNL     1       2.080   6.552  18.893  0.00  0.00    +0.000 C 
ATOM      2  C   UNL     1       1.772   6.078  20.323  0.00  0.00    +0.000 C 
ATOM      3  C   UNL     1       0.807   7.074  20.987  0.00  0.00    +0.000 C 
ATOM      4  C   UNL     1       1.327   8.520  20.905  0.00  0.00    +0.000 C 
ATOM      5  N   UNL     1       1.753   8.843  19.539  0.00  0.00    +0.000 N 
ATOM      6  C   UNL     1       1.184   9.753  18.640  0.00  0.00    +0.000 C 
ATOM      7  O   UNL     1       1.682   9.923  17.526  0.00  0.00    +0.000 OA
ATOM      8  C   UNL     1       2.753   7.921  18.995  0.00  0.00    +0.000 C 
ENDROOT
BRANCH   6   9
ATOM      9  C   UNL     1      -0.035  10.452  18.996  0.00  0.00    +0.000 A 
ATOM     10  C   UNL     1      -0.414  11.075  20.200  0.00  0.00    +0.000 A 
ATOM     11  N   UNL     1      -1.652  11.567  20.180  0.00  0.00    +0.000 NA
ATOM     12  N   UNL     1      -2.134  11.194  18.972  0.00  0.00    +0.000 N 
ATOM     13  C   UNL     1      -3.411  11.411  18.469  0.00  0.00    +0.000 A 
ATOM     14  C   UNL     1      -3.754  10.952  17.259  0.00  0.00    +0.000 A 
ATOM     15  C   UNL     1      -2.678  10.218  16.520  0.00  0.00    +0.000 A 
ATOM     16  C   UNL     1      -3.024   9.671  15.158  0.00  0.00    +0.000 C 
ATOM     17  N   UNL     1      -1.471  10.027  16.967  0.00  0.00    +0.000 NA
ATOM     18  C   UNL     1      -1.180  10.509  18.217  0.00  0.00    +0.000 A 
ENDBRANCH   6   9
BRANCH   1  20
ATOM     19  N   UNL     1       4.025   6.183  17.535  0.00  0.00    +0.000 N 
ATOM     20  C   UNL     1       2.889   5.580  18.051  0.00  0.00    +0.000 C 
ATOM     21  O   UNL     1       2.547   4.413  17.920  0.00  0.00    +0.000 OA
ATOM     22  H   UNL     1       4.128   7.180  17.635  0.00  0.00    +0.000 HD
BRANCH  19  28
ATOM     23  C   UNL     1       5.846   3.958  13.699  0.00  0.00    +0.000 C 
ATOM     24  C   UNL     1       6.026   4.406  15.116  0.00  0.00    +0.000 A 
ATOM     25  C   UNL     1       7.186   4.123  15.825  0.00  0.00    +0.000 A 
ATOM     26  C   UNL     1       7.277   4.551  17.145  0.00  0.00    +0.000 A 
ATOM     27  C   UNL     1       6.211   5.245  17.711  0.00  0.00    +0.000 A 
ATOM     28  C   UNL     1       5.090   5.506  16.932  0.00  0.00    +0.000 A 
ATOM     29  N   UNL     1       4.996   5.090  15.659  0.00  0.00    +0.000 NA
ENDBRANCH  19  28
ENDBRANCH   1  20
TORSDOF 3
ENDMDL
MODEL 2
REMARK VINA RESULT:      -8.0      3.258      5.335
REMARK  Name = 
REMARK  5 active torsions:
REMARK  status: ('A' for Active; 'I' for Inactive)
REMARK    1  A    between atoms: C_1  and  C_2
REMARK    2  A    between atoms: C_6  and  N_7
REMARK    3  A    between atoms: C_8  and  C_10
REMARK    4  A    between atoms: C_15  and  C_17
REMARK    5  A    between atoms: C_23  and  C_24
REMARK                            x       y       z     vdW  Elec       q    Type
REMARK                         _______ _______ _______ _____ _____    ______ ____
ROOT
ATOM      1  C   UNL     1       0.951   9.588  19.348  0.00  0.00    +0.000 C 
ATOM      2  C   UNL     1       0.182  10.062  18.104  0.00  0.00    +0.000 C 
ATOM      3  C   UNL     1      -0.601  11.339  18.452  0.00  0.00    +0.000 C 
ATOM      4  C   UNL     1      -1.482  11.150  19.699  0.00  0.00    +0.000 C 
ATOM      5  N   UNL     1      -0.715  10.543  20.791  0.00  0.00    +0.000 N 
ATOM      6  C   UNL     1      -0.344  11.109  22.017  0.00  0.00    +0.000 C 
ATOM      7  O   UNL     1       0.289  10.448  22.842  0.00  0.00    +0.000 OA
ATOM      8  C   UNL     1      -0.077   9.273  20.434  0.00  0.00    +0.000 C 
ENDROOT
BRANCH   6   9
ATOM      9  C   UNL     1      -0.647  12.500  22.290  0.00  0.00    +0.000 A 
ATOM     10  C   UNL     1       0.116  13.662  22.070  0.00  0.00    +0.000 A 
ATOM     11  N   UNL     1      -0.468  14.775  22.510  0.00  0.00    +0.000 NA
ATOM     12  N   UNL     1      -1.601  14.338  23.107  0.00  0.00    +0.000 N 
ATOM     13  C   UNL     1      -2.548  15.100  23.781  0.00  0.00    +0.000 A 
ATOM     14  C   UNL     1      -3.609  14.517  24.351  0.00  0.00    +0.000 A 
ATOM     15  C   UNL     1      -3.687  13.029  24.198  0.00  0.00    +0.000 A 
ATOM     16  C   UNL     1      -4.861  12.329  24.836  0.00  0.00    +0.000 C 
ATOM     17  N   UNL     1      -2.822  12.305  23.551  0.00  0.00    +0.000 NA
ATOM     18  C   UNL     1      -1.748  12.954  22.997  0.00  0.00    +0.000 A 
ENDBRANCH   6   9
BRANCH   1  20
ATOM     19  N   UNL     1       1.789   7.470  20.106  0.00  0.00    +0.000 N 
ATOM     20  C   UNL     1       1.905   8.429  19.114  0.00  0.00    +0.000 C 
ATOM     21  O   UNL     1       2.629   8.389  18.128  0.00  0.00    +0.000 OA
ATOM     22  H   UNL     1       1.230   7.681  20.917  0.00  0.00    +0.000 HD
BRANCH  19  28
ATOM     23  C   UNL     1       5.413   4.598  18.840  0.00  0.00    +0.000 C 
ATOM     24  C   UNL     1       4.054   4.739  19.453  0.00  0.00    +0.000 A 
ATOM     25  C   UNL     1       3.347   3.636  19.911  0.00  0.00    +0.000 A 
ATOM     26  C   UNL     1       2.081   3.838  20.450  0.00  0.00    +0.000 A 
ATOM     27  C   UNL     1       1.566   5.131  20.515  0.00  0.00    +0.000 A 
ATOM     28  C   UNL     1       2.343   6.187  20.052  0.00  0.00    +0.000 A 
ATOM     29  N   UNL     1       3.563   5.995  19.527  0.00  0.00    +0.000 NA
ENDBRANCH  19  28
ENDBRANCH   1  20
TORSDOF 3
ENDMDL
MODEL 3
REMARK VINA RESULT:      -7.8      2.519      9.231
REMARK  Name = 
REMARK  5 active torsions:
REMARK  status: ('A' for Active; 'I' for Inactive)
REMARK    1  A    between atoms: C_1  and  C_2
REMARK    2  A    between atoms: C_6  and  N_7
REMARK    3  A    between atoms: C_8  and  C_10
REMARK    4  A    between atoms: C_15  and  C_17
REMARK    5  A    between atoms: C_23  and  C_24
REMARK                            x       y       z     vdW  Elec       q    Type
REMARK                         _______ _______ _______ _____ _____    ______ ____
ROOT
ATOM      1  C   UNL     1       0.496   9.037  20.020  0.00  0.00    +0.000 C 
ATOM      2  C   UNL     1       0.821   9.923  18.805  0.00  0.00    +0.000 C 
ATOM      3  C   UNL     1       1.495   9.064  17.722  0.00  0.00    +0.000 C 
ATOM      4  C   UNL     1       2.704   8.288  18.274  0.00  0.00    +0.000 C 
ATOM      5  N   UNL     1       2.356   7.600  19.521  0.00  0.00    +0.000 N 
ATOM      6  C   UNL     1       2.267   6.225  19.764  0.00  0.00    +0.000 C 
ATOM      7  O   UNL     1       1.980   5.807  20.887  0.00  0.00    +0.000 OA
ATOM      8  C   UNL     1       1.817   8.486  20.557  0.00  0.00    +0.000 C 
ENDROOT
BRANCH   6   9
ATOM      9  C   UNL     1       2.448   5.287  18.674  0.00  0.00    +0.000 A 
ATOM     10  C   UNL     1       1.555   4.356  18.111  0.00  0.00    +0.000 A 
ATOM     11  N   UNL     1       2.097   3.609  17.150  0.00  0.00    +0.000 NA
ATOM     12  N   UNL     1       3.395   3.993  17.129  0.00  0.00    +0.000 N 
ATOM     13  C   UNL     1       4.414   3.479  16.337  0.00  0.00    +0.000 A 
ATOM     14  C   UNL     1       5.665   3.942  16.451  0.00  0.00    +0.000 A 
ATOM     15  C   UNL     1       5.859   5.028  17.464  0.00  0.00    +0.000 A 
ATOM     16  C   UNL     1       7.256   5.571  17.636  0.00  0.00    +0.000 C 
ATOM     17  N   UNL     1       4.912   5.536  18.196  0.00  0.00    +0.000 NA
ATOM     18  C   UNL     1       3.652   5.014  18.046  0.00  0.00    +0.000 A 
ENDBRANCH   6   9
BRANCH   1  20
ATOM     19  N   UNL     1      -0.545  11.047  20.821  0.00  0.00    +0.000 N 
ATOM     20  C   UNL     1      -0.325   9.710  21.107  0.00  0.00    +0.000 C 
ATOM     21  O   UNL     1      -0.744   9.081  22.069  0.00  0.00    +0.000 OA
ATOM     22  H   UNL     1      -0.050  11.461  20.047  0.00  0.00    +0.000 HD
BRANCH  19  28
ATOM     23  C   UNL     1      -4.651  13.521  20.788  0.00  0.00    +0.000 C 
ATOM     24  C   UNL     1      -3.424  13.099  21.535  0.00  0.00    +0.000 A 
ATOM     25  C   UNL     1      -3.173  13.543  22.827  0.00  0.00    +0.000 A 
ATOM     26  C   UNL     1      -2.003  13.129  23.453  0.00  0.00    +0.000 A 
ATOM     27  C   UNL     1      -1.126  12.288  22.773  0.00  0.00    +0.000 A 
ATOM     28  C   UNL     1      -1.456  11.872  21.488  0.00  0.00    +0.000 A 
ATOM     29  N   UNL     1      -2.582  12.273  20.878  0.00  0.00    +0.000 NA
ENDBRANCH  19  28
ENDBRANCH   1  20
TORSDOF 3
ENDMDL
MODEL 4
REMARK VINA RESULT:      -7.8      2.279      3.329
REMARK  Name = 
REMARK  5 active torsions:
REMARK  status: ('A' for Active; 'I' for Inactive)
REMARK    1  A    between atoms: C_1  and  C_2
REMARK    2  A    between atoms: C_6  and  N_7
REMARK    3  A    between atoms: C_8  and  C_10
REMARK    4  A    between atoms: C_15  and  C_17
REMARK    5  A    between atoms: C_23  and  C_24
REMARK                            x       y       z     vdW  Elec       q    Type
REMARK                         _______ _______ _______ _____ _____    ______ ____
ROOT
ATOM      1  C   UNL     1       0.897   9.344  19.656  0.00  0.00    +0.000 C 
ATOM      2  C   UNL     1       0.814   8.564  20.978  0.00  0.00    +0.000 C 
ATOM      3  C   UNL     1      -0.237   9.223  21.887  0.00  0.00    +0.000 C 
ATOM      4  C   UNL     1       0.019  10.730  22.063  0.00  0.00    +0.000 C 
ATOM      5  N   UNL     1       0.249  11.374  20.765  0.00  0.00    +0.000 N 
ATOM      6  C   UNL     1      -0.550  12.314  20.103  0.00  0.00    +0.000 C 
ATOM      7  O   UNL     1      -0.199  12.776  19.017  0.00  0.00    +0.000 OA
ATOM      8  C   UNL     1       1.334  10.771  19.987  0.00  0.00    +0.000 C 
ENDROOT
BRANCH   6   9
ATOM      9  C   UNL     1      -1.831  12.695  20.666  0.00  0.00    +0.000 A 
ATOM     10  C   UNL     1      -2.154  13.212  21.935  0.00  0.00    +0.000 A 
ATOM     11  N   UNL     1      -3.461  13.388  22.123  0.00  0.00    +0.000 NA
ATOM     12  N   UNL     1      -4.024  12.903  20.991  0.00  0.00    +0.000 N 
ATOM     13  C   UNL     1      -5.378  12.801  20.699  0.00  0.00    +0.000 A 
ATOM     14  C   UNL     1      -5.786  12.266  19.541  0.00  0.00    +0.000 A 
ATOM     15  C   UNL     1      -4.695  11.814  18.621  0.00  0.00    +0.000 A 
ATOM     16  C   UNL     1      -5.109  11.194  17.310  0.00  0.00    +0.000 C 
ATOM     17  N   UNL     1      -3.423  11.925  18.869  0.00  0.00    +0.000 NA
ATOM     18  C   UNL     1      -3.063  12.468  20.076  0.00  0.00    +0.000 A 
ENDBRANCH   6   9
BRANCH   1  20
ATOM     19  N   UNL     1       2.370   7.549  19.046  0.00  0.00    +0.000 N 
ATOM     20  C   UNL     1       1.775   8.713  18.588  0.00  0.00    +0.000 C 
ATOM     21  O   UNL     1       1.867   9.200  17.469  0.00  0.00    +0.000 OA
ATOM     22  H   UNL     1       2.292   7.321  20.024  0.00  0.00    +0.000 HD
BRANCH  19  28
ATOM     23  C   UNL     1       2.744   3.060  17.403  0.00  0.00    +0.000 C 
ATOM     24  C   UNL     1       3.276   4.460  17.417  0.00  0.00    +0.000 A 
ATOM     25  C   UNL     1       4.409   4.813  16.697  0.00  0.00    +0.000 A 
ATOM     26  C   UNL     1       4.860   6.126  16.773  0.00  0.00    +0.000 A 
ATOM     27  C   UNL     1       4.167   7.040  17.563  0.00  0.00    +0.000 A 
ATOM     28  C   UNL     1       3.030   6.614  18.241  0.00  0.00    +0.000 A 
ATOM     29  N   UNL     1       2.594   5.347  18.174  0.00  0.00    +0.000 NA
ENDBRANCH  19  28
ENDBRANCH   1  20
TORSDOF 3
ENDMDL
MODEL 5
REMARK VINA RESULT:      -7.8      3.377      5.511
REMARK  Name = 
REMARK  5 active torsions:
REMARK  status: ('A' for Active; 'I' for Inactive)
REMARK    1  A    between atoms: C_1  and  C_2
REMARK    2  A    between atoms: C_6  and  N_7
REMARK    3  A    between atoms: C_8  and  C_10
REMARK    4  A    between atoms: C_15  and  C_17
REMARK    5  A    between atoms: C_23  and  C_24
REMARK                            x       y       z     vdW  Elec       q    Type
REMARK                         _______ _______ _______ _____ _____    ______ ____
ROOT
ATOM      1  C   UNL     1       0.933   9.603  19.363  0.00  0.00    +0.000 C 
ATOM      2  C   UNL     1       0.157  10.072  18.121  0.00  0.00    +0.000 C 
ATOM      3  C   UNL     1      -0.626  11.350  18.469  0.00  0.00    +0.000 C 
ATOM      4  C   UNL     1      -1.500  11.165  19.721  0.00  0.00    +0.000 C 
ATOM      5  N   UNL     1      -0.726  10.562  20.812  0.00  0.00    +0.000 N 
ATOM      6  C   UNL     1      -0.349  11.133  22.033  0.00  0.00    +0.000 C 
ATOM      7  O   UNL     1       0.289  10.476  22.858  0.00  0.00    +0.000 OA
ATOM      8  C   UNL     1      -0.090   9.292  20.456  0.00  0.00    +0.000 C 
ENDROOT
BRANCH   6   9
ATOM      9  C   UNL     1      -0.652  12.525  22.303  0.00  0.00    +0.000 A 
ATOM     10  C   UNL     1       0.114  13.686  22.085  0.00  0.00    +0.000 A 
ATOM     11  N   UNL     1      -0.471  14.801  22.521  0.00  0.00    +0.000 NA
ATOM     12  N   UNL     1      -1.608  14.366  23.112  0.00  0.00    +0.000 N 
ATOM     13  C   UNL     1      -2.559  15.130  23.778  0.00  0.00    +0.000 A 
ATOM     14  C   UNL     1      -3.624  14.549  24.343  0.00  0.00    +0.000 A 
ATOM     15  C   UNL     1      -3.703  13.061  24.191  0.00  0.00    +0.000 A 
ATOM     16  C   UNL     1      -4.881  12.363  24.824  0.00  0.00    +0.000 C 
ATOM     17  N   UNL     1      -2.835  12.335  23.551  0.00  0.00    +0.000 NA
ATOM     18  C   UNL     1      -1.757  12.982  23.003  0.00  0.00    +0.000 A 
ENDBRANCH   6   9
BRANCH   1  20
ATOM     19  N   UNL     1       1.769   7.484  20.119  0.00  0.00    +0.000 N 
ATOM     20  C   UNL     1       1.887   8.444  19.128  0.00  0.00    +0.000 C 
ATOM     21  O   UNL     1       2.612   8.406  18.143  0.00  0.00    +0.000 OA
ATOM     22  H   UNL     1       1.209   7.694  20.929  0.00  0.00    +0.000 HD
BRANCH  19  28
ATOM     23  C   UNL     1       1.687   2.897  21.513  0.00  0.00    +0.000 C 
ATOM     24  C   UNL     1       2.348   3.972  20.707  0.00  0.00    +0.000 A 
ATOM     25  C   UNL     1       3.495   3.721  19.965  0.00  0.00    +0.000 A 
ATOM     26  C   UNL     1       4.069   4.771  19.257  0.00  0.00    +0.000 A 
ATOM     27  C   UNL     1       3.480   6.032  19.312  0.00  0.00    +0.000 A 
ATOM     28  C   UNL     1       2.323   6.200  20.063  0.00  0.00    +0.000 A 
ATOM     29  N   UNL     1       1.768   5.191  20.751  0.00  0.00    +0.000 NA
ENDBRANCH  19  28
ENDBRANCH   1  20
TORSDOF 3
ENDMDL
MODEL 6
REMARK VINA RESULT:      -7.8      2.056      3.179
REMARK  Name = 
REMARK  5 active torsions:
REMARK  status: ('A' for Active; 'I' for Inactive)
REMARK    1  A    between atoms: C_1  and  C_2
REMARK    2  A    between atoms: C_6  and  N_7
REMARK    3  A    between atoms: C_8  and  C_10
REMARK    4  A    between atoms: C_15  and  C_17
REMARK    5  A    between atoms: C_23  and  C_24
REMARK                            x       y       z     vdW  Elec       q    Type
REMARK                         _______ _______ _______ _____ _____    ______ ____
ROOT
ATOM      1  C   UNL     1       0.971   9.237  19.630  0.00  0.00    +0.000 C 
ATOM      2  C   UNL     1       0.844   8.512  20.980  0.00  0.00    +0.000 C 
ATOM      3  C   UNL     1      -0.198   9.240  21.846  0.00  0.00    +0.000 C 
ATOM      4  C   UNL     1       0.105  10.743  21.968  0.00  0.00    +0.000 C 
ATOM      5  N   UNL     1       0.374  11.328  20.651  0.00  0.00    +0.000 N 
ATOM      6  C   UNL     1      -0.384  12.267  19.941  0.00  0.00    +0.000 C 
ATOM      7  O   UNL     1      -0.002  12.675  18.843  0.00  0.00    +0.000 OA
ATOM      8  C   UNL     1       1.450  10.661  19.913  0.00  0.00    +0.000 C 
ENDROOT
BRANCH   6   9
ATOM      9  C   UNL     1      -1.659  12.711  20.469  0.00  0.00    +0.000 A 
ATOM     10  C   UNL     1      -1.977  13.325  21.695  0.00  0.00    +0.000 A 
ATOM     11  N   UNL     1      -3.281  13.537  21.864  0.00  0.00    +0.000 NA
ATOM     12  N   UNL     1      -3.849  12.982  20.768  0.00  0.00    +0.000 N 
ATOM     13  C   UNL     1      -5.204  12.883  20.478  0.00  0.00    +0.000 A 
ATOM     14  C   UNL     1      -5.618  12.273  19.360  0.00  0.00    +0.000 A 
ATOM     15  C   UNL     1      -4.532  11.736  18.480  0.00  0.00    +0.000 A 
ATOM     16  C   UNL     1      -4.953  11.029  17.215  0.00  0.00    +0.000 C 
ATOM     17  N   UNL     1      -3.259  11.841  18.725  0.00  0.00    +0.000 NA
ATOM     18  C   UNL     1      -2.893  12.464  19.891  0.00  0.00    +0.000 A 
ENDBRANCH   6   9
BRANCH   1  20
ATOM     19  N   UNL     1       2.384   7.367  19.109  0.00  0.00    +0.000 N 
ATOM     20  C   UNL     1       1.842   8.536  18.601  0.00  0.00    +0.000 C 
ATOM     21  O   UNL     1       1.973   8.981  17.468  0.00  0.00    +0.000 OA
ATOM     22  H   UNL     1       2.280   7.176  20.092  0.00  0.00    +0.000 HD
BRANCH  19  28
ATOM     23  C   UNL     1       6.096   6.022  16.389  0.00  0.00    +0.000 C 
ATOM     24  C   UNL     1       4.782   5.670  17.015  0.00  0.00    +0.000 A 
ATOM     25  C   UNL     1       4.192   4.430  16.815  0.00  0.00    +0.000 A 
ATOM     26  C   UNL     1       2.960   4.178  17.409  0.00  0.00    +0.000 A 
ATOM     27  C   UNL     1       2.361   5.170  18.181  0.00  0.00    +0.000 A 
ATOM     28  C   UNL     1       3.022   6.381  18.349  0.00  0.00    +0.000 A 
ATOM     29  N   UNL     1       4.209   6.630  17.774  0.00  0.00    +0.000 NA
ENDBRANCH  19  28
ENDBRANCH   1  20
TORSDOF 3
ENDMDL
MODEL 7
REMARK VINA RESULT:      -7.7      2.308      2.911
REMARK  Name = 
REMARK  5 active torsions:
REMARK  status: ('A' for Active; 'I' for Inactive)
REMARK    1  A    between atoms: C_1  and  C_2
REMARK    2  A    between atoms: C_6  and  N_7
REMARK    3  A    between atoms: C_8  and  C_10
REMARK    4  A    between atoms: C_15  and  C_17
REMARK    5  A    between atoms: C_23  and  C_24
REMARK                            x       y       z     vdW  Elec       q    Type
REMARK                         _______ _______ _______ _____ _____    ______ ____
ROOT
ATOM      1  C   UNL     1       1.118   8.650  20.071  0.00  0.00    +0.000 C 
ATOM      2  C   UNL     1       0.777   8.103  21.467  0.00  0.00    +0.000 C 
ATOM      3  C   UNL     1      -0.395   8.910  22.051  0.00  0.00    +0.000 C 
ATOM      4  C   UNL     1      -0.122  10.424  22.021  0.00  0.00    +0.000 C 
ATOM      5  N   UNL     1       0.356  10.840  20.698  0.00  0.00    +0.000 N 
ATOM      6  C   UNL     1      -0.281  11.660  19.759  0.00  0.00    +0.000 C 
ATOM      7  O   UNL     1       0.272  11.933  18.692  0.00  0.00    +0.000 OA
ATOM      8  C   UNL     1       1.540  10.110  20.238  0.00  0.00    +0.000 C 
ENDROOT
BRANCH   6   9
ATOM      9  C   UNL     1      -1.627  12.136  20.012  0.00  0.00    +0.000 A 
ATOM     10  C   UNL     1      -2.195  12.699  21.171  0.00  0.00    +0.000 A 
ATOM     11  N   UNL     1      -3.494  12.964  21.054  0.00  0.00    +0.000 NA
ATOM     12  N   UNL     1      -3.816  12.495  19.826  0.00  0.00    +0.000 N 
ATOM     13  C   UNL     1      -5.072  12.476  19.232  0.00  0.00    +0.000 A 
ATOM     14  C   UNL     1      -5.241  11.947  18.014  0.00  0.00    +0.000 A 
ATOM     15  C   UNL     1      -4.002  11.406  17.369  0.00  0.00    +0.000 A 
ATOM     16  C   UNL     1      -4.148  10.788  16.001  0.00  0.00    +0.000 C 
ATOM     17  N   UNL     1      -2.816  11.437  17.901  0.00  0.00    +0.000 NA
ATOM     18  C   UNL     1      -2.704  11.979  19.156  0.00  0.00    +0.000 A 
ENDBRANCH   6   9
BRANCH   1  20
ATOM     19  N   UNL     1       2.419   6.638  19.920  0.00  0.00    +0.000 N 
ATOM     20  C   UNL     1       2.148   7.845  19.297  0.00  0.00    +0.000 C 
ATOM     21  O   UNL     1       2.610   8.251  18.239  0.00  0.00    +0.000 OA
ATOM     22  H   UNL     1       2.047   6.478  20.842  0.00  0.00    +0.000 HD
BRANCH  19  28
ATOM     23  C   UNL     1       2.388   2.407  17.664  0.00  0.00    +0.000 C 
ATOM     24  C   UNL     1       3.183   3.525  18.263  0.00  0.00    +0.000 A 
ATOM     25  C   UNL     1       4.571   3.496  18.289  0.00  0.00    +0.000 A 
ATOM     26  C   UNL     1       5.245   4.558  18.880  0.00  0.00    +0.000 A 
ATOM     27  C   UNL     1       4.514   5.612  19.424  0.00  0.00    +0.000 A 
ATOM     28  C   UNL     1       3.126   5.578  19.343  0.00  0.00    +0.000 A 
ATOM     29  N   UNL     1       2.472   4.552  18.777  0.00  0.00    +0.000 NA
ENDBRANCH  19  28
ENDBRANCH   1  20
TORSDOF 3
ENDMDL
MODEL 8
REMARK VINA RESULT:      -7.6      1.196      2.500
REMARK  Name = 
REMARK  5 active torsions:
REMARK  status: ('A' for Active; 'I' for Inactive)
REMARK    1  A    between atoms: C_1  and  C_2
REMARK    2  A    between atoms: C_6  and  N_7
REMARK    3  A    between atoms: C_8  and  C_10
REMARK    4  A    between atoms: C_15  and  C_17
REMARK    5  A    between atoms: C_23  and  C_24
REMARK                            x       y       z     vdW  Elec       q    Type
REMARK                         _______ _______ _______ _____ _____    ______ ____
ROOT
ATOM      1  C   UNL     1       2.123   6.486  19.042  0.00  0.00    +0.000 C 
ATOM      2  C   UNL     1       1.766   6.125  20.493  0.00  0.00    +0.000 C 
ATOM      3  C   UNL     1       0.721   7.123  21.017  0.00  0.00    +0.000 C 
ATOM      4  C   UNL     1       1.172   8.582  20.827  0.00  0.00    +0.000 C 
ATOM      5  N   UNL     1       1.650   8.804  19.459  0.00  0.00    +0.000 N 
ATOM      6  C   UNL     1       1.084   9.599  18.455  0.00  0.00    +0.000 C 
ATOM      7  O   UNL     1       1.629   9.695  17.354  0.00  0.00    +0.000 OA
ATOM      8  C   UNL     1       2.722   7.893  19.049  0.00  0.00    +0.000 C 
ENDROOT
BRANCH   6   9
ATOM      9  C   UNL     1      -0.185  10.259  18.688  0.00  0.00    +0.000 A 
ATOM     10  C   UNL     1      -1.455  10.024  18.127  0.00  0.00    +0.000 A 
ATOM     11  N   UNL     1      -2.388  10.880  18.539  0.00  0.00    +0.000 NA
ATOM     12  N   UNL     1      -1.711  11.751  19.325  0.00  0.00    +0.000 N 
ATOM     13  C   UNL     1      -2.213  12.878  19.963  0.00  0.00    +0.000 A 
ATOM     14  C   UNL     1      -1.409  13.666  20.686  0.00  0.00    +0.000 A 
ATOM     15  C   UNL     1       0.025  13.236  20.751  0.00  0.00    +0.000 A 
ATOM     16  C   UNL     1       0.971  14.102  21.546  0.00  0.00    +0.000 C 
ATOM     17  N   UNL     1       0.506  12.172  20.180  0.00  0.00    +0.000 NA
ATOM     18  C   UNL     1      -0.362  11.409  19.441  0.00  0.00    +0.000 A 
ENDBRANCH   6   9
BRANCH   1  20
ATOM     19  N   UNL     1       4.008   6.128  17.599  0.00  0.00    +0.000 N 
ATOM     20  C   UNL     1       3.022   5.488  18.331  0.00  0.00    +0.000 C 
ATOM     21  O   UNL     1       2.865   4.282  18.465  0.00  0.00    +0.000 OA
ATOM     22  H   UNL     1       3.955   7.128  17.491  0.00  0.00    +0.000 HD
BRANCH  19  28
ATOM     23  C   UNL     1       6.063   3.949  13.855  0.00  0.00    +0.000 C 
ATOM     24  C   UNL     1       6.176   4.427  15.270  0.00  0.00    +0.000 A 
ATOM     25  C   UNL     1       7.327   4.220  16.017  0.00  0.00    +0.000 A 
ATOM     26  C   UNL     1       7.355   4.672  17.331  0.00  0.00    +0.000 A 
ATOM     27  C   UNL     1       6.236   5.315  17.854  0.00  0.00    +0.000 A 
ATOM     28  C   UNL     1       5.126   5.501  17.038  0.00  0.00    +0.000 A 
ATOM     29  N   UNL     1       5.094   5.063  15.770  0.00  0.00    +0.000 NA
ENDBRANCH  19  28
ENDBRANCH   1  20
TORSDOF 3
ENDMDL
MODEL 9
REMARK VINA RESULT:      -7.6      3.310      4.911
REMARK  Name = 
REMARK  5 active torsions:
REMARK  status: ('A' for Active; 'I' for Inactive)
REMARK    1  A    between atoms: C_1  and  C_2
REMARK    2  A    between atoms: C_6  and  N_7
REMARK    3  A    between atoms: C_8  and  C_10
REMARK    4  A    between atoms: C_15  and  C_17
REMARK    5  A    between atoms: C_23  and  C_24
REMARK                            x       y       z     vdW  Elec       q    Type
REMARK                         _______ _______ _______ _____ _____    ______ ____
ROOT
ATOM      1  C   UNL     1       1.013   9.336  19.639  0.00  0.00    +0.000 C 
ATOM      2  C   UNL     1       0.440   9.848  18.307  0.00  0.00    +0.000 C 
ATOM      3  C   UNL     1      -0.276  11.188  18.549  0.00  0.00    +0.000 C 
ATOM      4  C   UNL     1      -1.314  11.089  19.680  0.00  0.00    +0.000 C 
ATOM      5  N   UNL     1      -0.735  10.441  20.862  0.00  0.00    +0.000 N 
ATOM      6  C   UNL     1      -0.471  10.996  22.120  0.00  0.00    +0.000 C 
ATOM      7  O   UNL     1       0.003  10.302  23.021  0.00  0.00    +0.000 OA
ATOM      8  C   UNL     1      -0.162   9.120  20.594  0.00  0.00    +0.000 C 
ENDROOT
BRANCH   6   9
ATOM      9  C   UNL     1      -0.694  12.411  22.345  0.00  0.00    +0.000 A 
ATOM     10  C   UNL     1       0.139  13.518  22.097  0.00  0.00    +0.000 A 
ATOM     11  N   UNL     1      -0.382  14.678  22.495  0.00  0.00    +0.000 NA
ATOM     12  N   UNL     1      -1.546  14.328  23.091  0.00  0.00    +0.000 N 
ATOM     13  C   UNL     1      -2.453  15.166  23.727  0.00  0.00    +0.000 A 
ATOM     14  C   UNL     1      -3.554  14.666  24.302  0.00  0.00    +0.000 A 
ATOM     15  C   UNL     1      -3.718  13.181  24.195  0.00  0.00    +0.000 A 
ATOM     16  C   UNL     1      -4.938  12.573  24.840  0.00  0.00    +0.000 C 
ATOM     17  N   UNL     1      -2.891  12.386  23.583  0.00  0.00    +0.000 NA
ATOM     18  C   UNL     1      -1.774  12.952  23.023  0.00  0.00    +0.000 A 
ENDBRANCH   6   9
BRANCH   1  20
ATOM     19  N   UNL     1       2.131   7.765  18.208  0.00  0.00    +0.000 N 
ATOM     20  C   UNL     1       1.893   8.102  19.531  0.00  0.00    +0.000 C 
ATOM     21  O   UNL     1       2.339   7.549  20.527  0.00  0.00    +0.000 OA
ATOM     22  H   UNL     1       1.614   8.244  17.489  0.00  0.00    +0.000 HD
BRANCH  19  28
ATOM     23  C   UNL     1       3.481   3.203  17.611  0.00  0.00    +0.000 C 
ATOM     24  C   UNL     1       3.809   4.658  17.470  0.00  0.00    +0.000 A 
ATOM     25  C   UNL     1       5.033   5.081  16.970  0.00  0.00    +0.000 A 
ATOM     26  C   UNL     1       5.278   6.446  16.886  0.00  0.00    +0.000 A 
ATOM     27  C   UNL     1       4.296   7.342  17.302  0.00  0.00    +0.000 A 
ATOM     28  C   UNL     1       3.088   6.842  17.775  0.00  0.00    +0.000 A 
ATOM     29  N   UNL     1       2.849   5.524  17.862  0.00  0.00    +0.000 NA
ENDBRANCH  19  28
ENDBRANCH   1  20
TORSDOF 3
ENDMDL
