MODEL 1
REMARK VINA RESULT:      -9.5      0.000      0.000
REMARK  Name = 
REMARK  5 active torsions:
REMARK  status: ('A' for Active; 'I' for Inactive)
REMARK    1  A    between atoms: C_1  and  C_2
REMARK    2  A    between atoms: C_7  and  N_8
REMARK    3  A    between atoms: C_9  and  C_11
REMARK    4  A    between atoms: C_11  and  C_12
REMARK    5  A    between atoms: C_12  and  N_13
REMARK                            x       y       z     vdW  Elec       q    Type
REMARK                         _______ _______ _______ _____ _____    ______ ____
ROOT
ATOM      1  N   UNL     1       3.271   6.322  18.868  0.00  0.00    +0.000 N 
ATOM      2  C   UNL     1       2.802   5.150  18.284  0.00  0.00    +0.000 C 
ATOM      3  O   UNL     1       1.660   4.987  17.859  0.00  0.00    +0.000 OA
ATOM      4  H   UNL     1       4.268   6.491  18.797  0.00  0.00    +0.000 HD
ENDROOT
BRANCH   1  11
ATOM      5  C   UNL     1      -1.205  12.343  20.859  0.00  0.00    +0.000 C 
ATOM      6  C   UNL     1      -0.708  10.915  20.671  0.00  0.00    +0.000 C 
ATOM      7  O   UNL     1       0.105  10.878  19.496  0.00  0.00    +0.000 OA
ATOM      8  C   UNL     1       0.833   9.723  19.376  0.00  0.00    +0.000 A 
ATOM      9  C   UNL     1       1.391   9.454  18.125  0.00  0.00    +0.000 A 
ATOM     10  C   UNL     1       2.212   8.333  17.957  0.00  0.00    +0.000 A 
ATOM     11  C   UNL     1       2.444   7.458  19.023  0.00  0.00    +0.000 A 
ATOM     12  C   UNL     1       1.864   7.710  20.267  0.00  0.00    +0.000 A 
ATOM     13  C   UNL     1       1.098   8.870  20.455  0.00  0.00    +0.000 A 
ATOM     14  N   UNL     1       0.693   9.233  21.749  0.00  0.00    +0.000 N 
ATOM     15  C   UNL     1      -0.057  10.358  21.955  0.00  0.00    +0.000 C 
ATOM     16  O   UNL     1      -0.249  10.804  23.082  0.00  0.00    +0.000 OA
ATOM     17  H   UNL     1       1.066   8.773  22.560  0.00  0.00    +0.000 HD
ENDBRANCH   1  11
BRANCH   2  18
ATOM     18  C   UNL     1       3.850   4.054  18.170  0.00  0.00    +0.000 C 
BRANCH  18  19
ATOM     19  C   UNL     1       5.027   4.365  19.105  0.00  0.00    +0.000 C 
BRANCH  19  20
ATOM     20  N   UNL     1       6.369   4.550  18.501  0.00  0.00    +0.000 N 
ATOM     21  C   UNL     1       7.239   5.383  19.207  0.00  0.00    +0.000 A 
ATOM     22  O   UNL     1       7.476   5.275  20.408  0.00  0.00    +0.000 OA
ATOM     23  N   UNL     1       7.772   6.439  18.522  0.00  0.00    +0.000 N 
ATOM     24  C   UNL     1       7.350   6.855  17.289  0.00  0.00    +0.000 A 
ATOM     25  O   UNL     1       7.406   8.020  16.922  0.00  0.00    +0.000 OA
ATOM     26  C   UNL     1       6.817   5.787  16.439  0.00  0.00    +0.000 A 
ATOM     27  C   UNL     1       6.782   5.934  15.050  0.00  0.00    +0.000 A 
ATOM     28  C   UNL     1       6.355   4.866  14.265  0.00  0.00    +0.000 A 
ATOM     29  C   UNL     1       5.952   3.674  14.873  0.00  0.00    +0.000 A 
ATOM     30  C   UNL     1       5.938   3.558  16.271  0.00  0.00    +0.000 A 
ATOM     31  C   UNL     1       6.367   4.626  17.067  0.00  0.00    +0.000 A 
ATOM     32  H   UNL     1       8.186   7.146  19.110  0.00  0.00    +0.000 HD
ENDBRANCH  19  20
ENDBRANCH  18  19
ENDBRANCH   2  18
TORSDOF 4
ENDMDL
MODEL 2
REMARK VINA RESULT:      -9.1      3.075      4.877
REMARK  Name = 
REMARK  5 active torsions:
REMARK  status: ('A' for Active; 'I' for Inactive)
REMARK    1  A    between atoms: C_1  and  C_2
REMARK    2  A    between atoms: C_7  and  N_8
REMARK    3  A    between atoms: C_9  and  C_11
REMARK    4  A    between atoms: C_11  and  C_12
REMARK    5  A    between atoms: C_12  and  N_13
REMARK                            x       y       z     vdW  Elec       q    Type
REMARK                         _______ _______ _______ _____ _____    ______ ____
ROOT
ATOM      1  N   UNL     1       0.354   9.833  17.692  0.00  0.00    +0.000 N 
ATOM      2  C   UNL     1       1.228   9.147  18.528  0.00  0.00    +0.000 C 
ATOM      3  O   UNL     1       1.138   9.104  19.753  0.00  0.00    +0.000 OA
ATOM      4  H   UNL     1       0.268   9.479  16.746  0.00  0.00    +0.000 HD
ENDROOT
BRANCH   1  11
ATOM      5  C   UNL     1      -6.351  13.038  19.931  0.00  0.00    +0.000 C 
ATOM      6  C   UNL     1      -5.213  12.542  19.046  0.00  0.00    +0.000 C 
ATOM      7  O   UNL     1      -4.000  12.624  19.797  0.00  0.00    +0.000 OA
ATOM      8  C   UNL     1      -2.956  11.950  19.216  0.00  0.00    +0.000 A 
ATOM      9  C   UNL     1      -1.676  12.239  19.688  0.00  0.00    +0.000 A 
ATOM     10  C   UNL     1      -0.576  11.528  19.194  0.00  0.00    +0.000 A 
ATOM     11  C   UNL     1      -0.747  10.559  18.201  0.00  0.00    +0.000 A 
ATOM     12  C   UNL     1      -2.024  10.289  17.707  0.00  0.00    +0.000 A 
ATOM     13  C   UNL     1      -3.134  10.951  18.250  0.00  0.00    +0.000 A 
ATOM     14  N   UNL     1      -4.430  10.532  17.908  0.00  0.00    +0.000 N 
ATOM     15  C   UNL     1      -5.526  11.165  18.423  0.00  0.00    +0.000 C 
ATOM     16  O   UNL     1      -6.654  10.696  18.304  0.00  0.00    +0.000 OA
ATOM     17  H   UNL     1      -4.585   9.675  17.408  0.00  0.00    +0.000 HD
ENDBRANCH   1  11
BRANCH   2  18
ATOM     18  C   UNL     1       2.326   8.395  17.792  0.00  0.00    +0.000 C 
BRANCH  18  19
ATOM     19  C   UNL     1       2.687   7.119  18.565  0.00  0.00    +0.000 C 
BRANCH  19  20
ATOM     20  N   UNL     1       3.319   6.004  17.817  0.00  0.00    +0.000 N 
ATOM     21  C   UNL     1       2.662   4.775  17.898  0.00  0.00    +0.000 A 
ATOM     22  O   UNL     1       1.461   4.619  17.689  0.00  0.00    +0.000 OA
ATOM     23  N   UNL     1       3.400   3.711  18.336  0.00  0.00    +0.000 N 
ATOM     24  C   UNL     1       4.642   3.808  18.899  0.00  0.00    +0.000 A 
ATOM     25  O   UNL     1       5.060   3.023  19.738  0.00  0.00    +0.000 OA
ATOM     26  C   UNL     1       5.439   4.941  18.417  0.00  0.00    +0.000 A 
ATOM     27  C   UNL     1       6.831   4.927  18.521  0.00  0.00    +0.000 A 
ATOM     28  C   UNL     1       7.564   5.976  17.972  0.00  0.00    +0.000 A 
ATOM     29  C   UNL     1       6.900   7.033  17.344  0.00  0.00    +0.000 A 
ATOM     30  C   UNL     1       5.498   7.065  17.297  0.00  0.00    +0.000 A 
ATOM     31  C   UNL     1       4.754   6.013  17.844  0.00  0.00    +0.000 A 
ATOM     32  H   UNL     1       2.848   2.914  18.615  0.00  0.00    +0.000 HD
ENDBRANCH  19  20
ENDBRANCH  18  19
ENDBRANCH   2  18
TORSDOF 4
ENDMDL
MODEL 3
REMARK VINA RESULT:      -9.1      1.865      3.028
REMARK  Name = 
REMARK  5 active torsions:
REMARK  status: ('A' for Active; 'I' for Inactive)
REMARK    1  A    between atoms: C_1  and  C_2
REMARK    2  A    between atoms: C_7  and  N_8
REMARK    3  A    between atoms: C_9  and  C_11
REMARK    4  A    between atoms: C_11  and  C_12
REMARK    5  A    between atoms: C_12  and  N_13
REMARK                            x       y       z     vdW  Elec       q    Type
REMARK                         _______ _______ _______ _____ _____    ______ ____
ROOT
ATOM      1  N   UNL     1       1.896   8.523  19.269  0.00  0.00    +0.000 N 
ATOM      2  C   UNL     1       2.236   7.177  19.352  0.00  0.00    +0.000 C 
ATOM      3  O   UNL     1       1.886   6.420  20.254  0.00  0.00    +0.000 OA
ATOM      4  H   UNL     1       1.874   8.924  18.339  0.00  0.00    +0.000 HD
ENDROOT
BRANCH   1  11
ATOM      5  C   UNL     1      -3.047  12.490  23.751  0.00  0.00    +0.000 C 
ATOM      6  C   UNL     1      -1.924  12.174  22.771  0.00  0.00    +0.000 C 
ATOM      7  O   UNL     1      -1.374  10.902  23.120  0.00  0.00    +0.000 OA
ATOM      8  C   UNL     1      -0.552  10.382  22.154  0.00  0.00    +0.000 A 
ATOM      9  C   UNL     1       0.278   9.326  22.530  0.00  0.00    +0.000 A 
ATOM     10  C   UNL     1       1.081   8.698  21.572  0.00  0.00    +0.000 A 
ATOM     11  C   UNL     1       1.089   9.148  20.249  0.00  0.00    +0.000 A 
ATOM     12  C   UNL     1       0.281  10.223  19.876  0.00  0.00    +0.000 A 
ATOM     13  C   UNL     1      -0.576  10.808  20.819  0.00  0.00    +0.000 A 
ATOM     14  N   UNL     1      -1.537  11.742  20.401  0.00  0.00    +0.000 N 
ATOM     15  C   UNL     1      -2.380  12.327  21.304  0.00  0.00    +0.000 C 
ATOM     16  O   UNL     1      -3.352  12.984  20.943  0.00  0.00    +0.000 OA
ATOM     17  H   UNL     1      -1.732  11.887  19.427  0.00  0.00    +0.000 HD
ENDBRANCH   1  11
BRANCH   2  18
ATOM     18  C   UNL     1       3.076   6.680  18.186  0.00  0.00    +0.000 C 
BRANCH  18  19
ATOM     19  C   UNL     1       2.749   5.208  17.903  0.00  0.00    +0.000 C 
BRANCH  19  20
ATOM     20  N   UNL     1       3.847   4.215  18.008  0.00  0.00    +0.000 N 
ATOM     21  C   UNL     1       4.183   3.821  19.304  0.00  0.00    +0.000 A 
ATOM     22  O   UNL     1       3.369   3.440  20.143  0.00  0.00    +0.000 OA
ATOM     23  N   UNL     1       5.490   3.971  19.674  0.00  0.00    +0.000 N 
ATOM     24  C   UNL     1       6.422   4.670  18.959  0.00  0.00    +0.000 A 
ATOM     25  O   UNL     1       7.365   5.252  19.477  0.00  0.00    +0.000 OA
ATOM     26  C   UNL     1       6.198   4.672  17.510  0.00  0.00    +0.000 A 
ATOM     27  C   UNL     1       7.252   4.921  16.627  0.00  0.00    +0.000 A 
ATOM     28  C   UNL     1       7.025   4.825  15.257  0.00  0.00    +0.000 A 
ATOM     29  C   UNL     1       5.751   4.502  14.784  0.00  0.00    +0.000 A 
ATOM     30  C   UNL     1       4.687   4.312  15.678  0.00  0.00    +0.000 A 
ATOM     31  C   UNL     1       4.906   4.404  17.057  0.00  0.00    +0.000 A 
ATOM     32  H   UNL     1       5.646   3.915  20.669  0.00  0.00    +0.000 HD
ENDBRANCH  19  20
ENDBRANCH  18  19
ENDBRANCH   2  18
TORSDOF 4
ENDMDL
MODEL 4
REMARK VINA RESULT:      -9.1      2.047      2.882
REMARK  Name = 
REMARK  5 active torsions:
REMARK  status: ('A' for Active; 'I' for Inactive)
REMARK    1  A    between atoms: C_1  and  C_2
REMARK    2  A    between atoms: C_7  and  N_8
REMARK    3  A    between atoms: C_9  and  C_11
REMARK    4  A    between atoms: C_11  and  C_12
REMARK    5  A    between atoms: C_12  and  N_13
REMARK                            x       y       z     vdW  Elec       q    Type
REMARK                         _______ _______ _______ _____ _____    ______ ____
ROOT
ATOM      1  N   UNL     1       2.744   5.672  20.396  0.00  0.00    +0.000 N 
ATOM      2  C   UNL     1       2.035   4.484  20.253  0.00  0.00    +0.000 C 
ATOM      3  O   UNL     1       0.857   4.408  19.910  0.00  0.00    +0.000 OA
ATOM      4  H   UNL     1       3.749   5.613  20.272  0.00  0.00    +0.000 HD
ENDROOT
BRANCH   1  11
ATOM      5  C   UNL     1      -0.683  12.633  20.181  0.00  0.00    +0.000 C 
ATOM      6  C   UNL     1      -0.460  11.141  20.397  0.00  0.00    +0.000 C 
ATOM      7  O   UNL     1       0.494  10.691  19.433  0.00  0.00    +0.000 OA
ATOM      8  C   UNL     1       0.987   9.440  19.700  0.00  0.00    +0.000 A 
ATOM      9  C   UNL     1       1.658   8.789  18.664  0.00  0.00    +0.000 A 
ATOM     10  C   UNL     1       2.254   7.545  18.896  0.00  0.00    +0.000 A 
ATOM     11  C   UNL     1       2.147   6.930  20.147  0.00  0.00    +0.000 A 
ATOM     12  C   UNL     1       1.452   7.566  21.176  0.00  0.00    +0.000 A 
ATOM     13  C   UNL     1       0.914   8.843  20.966  0.00  0.00    +0.000 A 
ATOM     14  N   UNL     1       0.403   9.570  22.053  0.00  0.00    +0.000 N 
ATOM     15  C   UNL     1      -0.130  10.816  21.870  0.00  0.00    +0.000 C 
ATOM     16  O   UNL     1      -0.393  11.547  22.820  0.00  0.00    +0.000 OA
ATOM     17  H   UNL     1       0.552   9.267  22.998  0.00  0.00    +0.000 HD
ENDBRANCH   1  11
BRANCH   2  18
ATOM     18  C   UNL     1       2.859   3.236  20.527  0.00  0.00    +0.000 C 
BRANCH  18  19
ATOM     19  C   UNL     1       3.741   2.921  19.311  0.00  0.00    +0.000 C 
BRANCH  19  20
ATOM     20  N   UNL     1       3.970   3.998  18.316  0.00  0.00    +0.000 N 
ATOM     21  C   UNL     1       3.345   3.821  17.081  0.00  0.00    +0.000 A 
ATOM     22  O   UNL     1       2.154   3.548  16.942  0.00  0.00    +0.000 OA
ATOM     23  N   UNL     1       4.146   3.858  15.974  0.00  0.00    +0.000 N 
ATOM     24  C   UNL     1       5.513   3.834  16.006  0.00  0.00    +0.000 A 
ATOM     25  O   UNL     1       6.194   3.344  15.117  0.00  0.00    +0.000 OA
ATOM     26  C   UNL     1       6.102   4.443  17.203  0.00  0.00    +0.000 A 
ATOM     27  C   UNL     1       7.418   4.910  17.189  0.00  0.00    +0.000 A 
ATOM     28  C   UNL     1       7.918   5.566  18.311  0.00  0.00    +0.000 A 
ATOM     29  C   UNL     1       7.107   5.731  19.437  0.00  0.00    +0.000 A 
ATOM     30  C   UNL     1       5.806   5.207  19.461  0.00  0.00    +0.000 A 
ATOM     31  C   UNL     1       5.296   4.548  18.336  0.00  0.00    +0.000 A 
ATOM     32  H   UNL     1       3.716   3.487  15.141  0.00  0.00    +0.000 HD
ENDBRANCH  19  20
ENDBRANCH  18  19
ENDBRANCH   2  18
TORSDOF 4
ENDMDL
MODEL 5
REMARK VINA RESULT:      -9.0      1.091      1.768
REMARK  Name = 
REMARK  5 active torsions:
REMARK  status: ('A' for Active; 'I' for Inactive)
REMARK    1  A    between atoms: C_1  and  C_2
REMARK    2  A    between atoms: C_7  and  N_8
REMARK    3  A    between atoms: C_9  and  C_11
REMARK    4  A    between atoms: C_11  and  C_12
REMARK    5  A    between atoms: C_12  and  N_13
REMARK                            x       y       z     vdW  Elec       q    Type
REMARK                         _______ _______ _______ _____ _____    ______ ____
ROOT
ATOM      1  N   UNL     1       3.070   6.632  18.787  0.00  0.00    +0.000 N 
ATOM      2  C   UNL     1       2.589   5.460  18.212  0.00  0.00    +0.000 C 
ATOM      3  O   UNL     1       1.400   5.163  18.117  0.00  0.00    +0.000 OA
ATOM      4  H   UNL     1       3.971   6.957  18.455  0.00  0.00    +0.000 HD
ENDROOT
BRANCH   1  11
ATOM      5  C   UNL     1      -1.837  12.357  20.630  0.00  0.00    +0.000 C 
ATOM      6  C   UNL     1      -0.600  11.623  20.126  0.00  0.00    +0.000 C 
ATOM      7  O   UNL     1      -0.459  10.418  20.881  0.00  0.00    +0.000 OA
ATOM      8  C   UNL     1       0.445   9.541  20.340  0.00  0.00    +0.000 A 
ATOM      9  C   UNL     1       0.890   8.504  21.161  0.00  0.00    +0.000 A 
ATOM     10  C   UNL     1       1.750   7.529  20.644  0.00  0.00    +0.000 A 
ATOM     11  C   UNL     1       2.200   7.610  19.323  0.00  0.00    +0.000 A 
ATOM     12  C   UNL     1       1.779   8.662  18.509  0.00  0.00    +0.000 A 
ATOM     13  C   UNL     1       0.862   9.600  19.004  0.00  0.00    +0.000 A 
ATOM     14  N   UNL     1       0.278  10.529  18.129  0.00  0.00    +0.000 N 
ATOM     15  C   UNL     1      -0.616  11.455  18.592  0.00  0.00    +0.000 C 
ATOM     16  O   UNL     1      -1.288  12.137  17.824  0.00  0.00    +0.000 OA
ATOM     17  H   UNL     1       0.378  10.442  17.134  0.00  0.00    +0.000 HD
ENDBRANCH   1  11
BRANCH   2  18
ATOM     18  C   UNL     1       3.675   4.553  17.658  0.00  0.00    +0.000 C 
BRANCH  18  19
ATOM     19  C   UNL     1       4.782   4.370  18.705  0.00  0.00    +0.000 C 
BRANCH  19  20
ATOM     20  N   UNL     1       6.192   4.499  18.262  0.00  0.00    +0.000 N 
ATOM     21  C   UNL     1       7.009   5.290  19.072  0.00  0.00    +0.000 A 
ATOM     22  O   UNL     1       7.100   5.167  20.291  0.00  0.00    +0.000 OA
ATOM     23  N   UNL     1       7.663   6.324  18.462  0.00  0.00    +0.000 N 
ATOM     24  C   UNL     1       7.405   6.763  17.193  0.00  0.00    +0.000 A 
ATOM     25  O   UNL     1       7.554   7.926  16.844  0.00  0.00    +0.000 OA
ATOM     26  C   UNL     1       6.929   5.722  16.277  0.00  0.00    +0.000 A 
ATOM     27  C   UNL     1       7.061   5.876  14.895  0.00  0.00    +0.000 A 
ATOM     28  C   UNL     1       6.683   4.830  14.056  0.00  0.00    +0.000 A 
ATOM     29  C   UNL     1       6.162   3.655  14.603  0.00  0.00    +0.000 A 
ATOM     30  C   UNL     1       5.980   3.535  15.989  0.00  0.00    +0.000 A 
ATOM     31  C   UNL     1       6.359   4.580  16.839  0.00  0.00    +0.000 A 
ATOM     32  H   UNL     1       8.036   7.010  19.101  0.00  0.00    +0.000 HD
ENDBRANCH  19  20
ENDBRANCH  18  19
ENDBRANCH   2  18
TORSDOF 4
ENDMDL
MODEL 6
REMARK VINA RESULT:      -8.9      2.704      4.342
REMARK  Name = 
REMARK  5 active torsions:
REMARK  status: ('A' for Active; 'I' for Inactive)
REMARK    1  A    between atoms: C_1  and  C_2
REMARK    2  A    between atoms: C_7  and  N_8
REMARK    3  A    between atoms: C_9  and  C_11
REMARK    4  A    between atoms: C_11  and  C_12
REMARK    5  A    between atoms: C_12  and  N_13
REMARK                            x       y       z     vdW  Elec       q    Type
REMARK                         _______ _______ _______ _____ _____    ______ ____
ROOT
ATOM      1  N   UNL     1       1.648   8.849  18.551  0.00  0.00    +0.000 N 
ATOM      2  C   UNL     1       1.853   8.101  19.705  0.00  0.00    +0.000 C 
ATOM      3  O   UNL     1       1.566   8.472  20.841  0.00  0.00    +0.000 OA
ATOM      4  H   UNL     1       1.527   8.324  17.692  0.00  0.00    +0.000 HD
ENDROOT
BRANCH   1  11
ATOM      5  C   UNL     1      -0.433  16.326  18.670  0.00  0.00    +0.000 C 
ATOM      6  C   UNL     1       0.207  15.000  19.064  0.00  0.00    +0.000 C 
ATOM      7  O   UNL     1      -0.635  13.944  18.596  0.00  0.00    +0.000 OA
ATOM      8  C   UNL     1      -0.036  12.712  18.640  0.00  0.00    +0.000 A 
ATOM      9  C   UNL     1      -0.869  11.599  18.521  0.00  0.00    +0.000 A 
ATOM     10  C   UNL     1      -0.312  10.316  18.477  0.00  0.00    +0.000 A 
ATOM     11  C   UNL     1       1.071  10.139  18.593  0.00  0.00    +0.000 A 
ATOM     12  C   UNL     1       1.903  11.250  18.741  0.00  0.00    +0.000 A 
ATOM     13  C   UNL     1       1.352  12.539  18.715  0.00  0.00    +0.000 A 
ATOM     14  N   UNL     1       2.201  13.656  18.650  0.00  0.00    +0.000 N 
ATOM     15  C   UNL     1       1.685  14.922  18.627  0.00  0.00    +0.000 C 
ATOM     16  O   UNL     1       2.386  15.895  18.367  0.00  0.00    +0.000 OA
ATOM     17  H   UNL     1       3.182  13.554  18.465  0.00  0.00    +0.000 HD
ENDBRANCH   1  11
BRANCH   2  18
ATOM     18  C   UNL     1       2.447   6.724  19.452  0.00  0.00    +0.000 C 
BRANCH  18  19
ATOM     19  C   UNL     1       2.513   6.459  17.942  0.00  0.00    +0.000 C 
BRANCH  19  20
ATOM     20  N   UNL     1       3.433   5.401  17.457  0.00  0.00    +0.000 N 
ATOM     21  C   UNL     1       2.972   4.090  17.595  0.00  0.00    +0.000 A 
ATOM     22  O   UNL     1       1.867   3.704  17.222  0.00  0.00    +0.000 OA
ATOM     23  N   UNL     1       3.777   3.224  18.282  0.00  0.00    +0.000 N 
ATOM     24  C   UNL     1       4.868   3.596  19.015  0.00  0.00    +0.000 A 
ATOM     25  O   UNL     1       5.248   2.988  20.006  0.00  0.00    +0.000 OA
ATOM     26  C   UNL     1       5.552   4.795  18.519  0.00  0.00    +0.000 A 
ATOM     27  C   UNL     1       6.889   5.037  18.843  0.00  0.00    +0.000 A 
ATOM     28  C   UNL     1       7.535   6.136  18.282  0.00  0.00    +0.000 A 
ATOM     29  C   UNL     1       6.836   6.988  17.423  0.00  0.00    +0.000 A 
ATOM     30  C   UNL     1       5.478   6.768  17.151  0.00  0.00    +0.000 A 
ATOM     31  C   UNL     1       4.822   5.664  17.709  0.00  0.00    +0.000 A 
ATOM     32  H   UNL     1       3.315   2.376  18.573  0.00  0.00    +0.000 HD
ENDBRANCH  19  20
ENDBRANCH  18  19
ENDBRANCH   2  18
TORSDOF 4
ENDMDL
MODEL 7
REMARK VINA RESULT:      -8.9      2.426      3.423
REMARK  Name = 
REMARK  5 active torsions:
REMARK  status: ('A' for Active; 'I' for Inactive)
REMARK    1  A    between atoms: C_1  and  C_2
REMARK    2  A    between atoms: C_7  and  N_8
REMARK    3  A    between atoms: C_9  and  C_11
REMARK    4  A    between atoms: C_11  and  C_12
REMARK    5  A    between atoms: C_12  and  N_13
REMARK                            x       y       z     vdW  Elec       q    Type
REMARK                         _______ _______ _______ _____ _____    ______ ____
ROOT
ATOM      1  N   UNL     1       1.718   8.997  17.940  0.00  0.00    +0.000 N 
ATOM      2  C   UNL     1       2.269   7.962  18.688  0.00  0.00    +0.000 C 
ATOM      3  O   UNL     1       1.919   7.656  19.826  0.00  0.00    +0.000 OA
ATOM      4  H   UNL     1       1.772   8.901  16.932  0.00  0.00    +0.000 HD
ENDROOT
BRANCH   1  11
ATOM      5  C   UNL     1      -4.706  12.841  19.993  0.00  0.00    +0.000 C 
ATOM      6  C   UNL     1      -3.553  12.302  19.154  0.00  0.00    +0.000 C 
ATOM      7  O   UNL     1      -2.431  12.104  20.017  0.00  0.00    +0.000 OA
ATOM      8  C   UNL     1      -1.429  11.365  19.443  0.00  0.00    +0.000 A 
ATOM      9  C   UNL     1      -0.182  11.397  20.068  0.00  0.00    +0.000 A 
ATOM     10  C   UNL     1       0.861  10.602  19.580  0.00  0.00    +0.000 A 
ATOM     11  C   UNL     1       0.673   9.806  18.445  0.00  0.00    +0.000 A 
ATOM     12  C   UNL     1      -0.565   9.795  17.802  0.00  0.00    +0.000 A 
ATOM     13  C   UNL     1      -1.630  10.537  18.331  0.00  0.00    +0.000 A 
ATOM     14  N   UNL     1      -2.924  10.363  17.814  0.00  0.00    +0.000 N 
ATOM     15  C   UNL     1      -3.976  11.079  18.312  0.00  0.00    +0.000 C 
ATOM     16  O   UNL     1      -5.136  10.801  18.023  0.00  0.00    +0.000 OA
ATOM     17  H   UNL     1      -3.135   9.611  17.183  0.00  0.00    +0.000 HD
ENDBRANCH   1  11
BRANCH   2  18
ATOM     18  C   UNL     1       3.352   7.183  17.959  0.00  0.00    +0.000 C 
BRANCH  18  19
ATOM     19  C   UNL     1       2.885   5.740  17.728  0.00  0.00    +0.000 C 
BRANCH  19  20
ATOM     20  N   UNL     1       3.860   4.644  17.953  0.00  0.00    +0.000 N 
ATOM     21  C   UNL     1       4.118   4.330  19.289  0.00  0.00    +0.000 A 
ATOM     22  O   UNL     1       3.246   4.116  20.128  0.00  0.00    +0.000 OA
ATOM     23  N   UNL     1       5.424   4.366  19.689  0.00  0.00    +0.000 N 
ATOM     24  C   UNL     1       6.447   4.892  18.949  0.00  0.00    +0.000 A 
ATOM     25  O   UNL     1       7.437   5.408  19.448  0.00  0.00    +0.000 OA
ATOM     26  C   UNL     1       6.259   4.792  17.498  0.00  0.00    +0.000 A 
ATOM     27  C   UNL     1       7.355   4.843  16.634  0.00  0.00    +0.000 A 
ATOM     28  C   UNL     1       7.152   4.654  15.269  0.00  0.00    +0.000 A 
ATOM     29  C   UNL     1       5.862   4.434  14.782  0.00  0.00    +0.000 A 
ATOM     30  C   UNL     1       4.762   4.443  15.653  0.00  0.00    +0.000 A 
ATOM     31  C   UNL     1       4.956   4.630  17.026  0.00  0.00    +0.000 A 
ATOM     32  H   UNL     1       5.549   4.380  20.689  0.00  0.00    +0.000 HD
ENDBRANCH  19  20
ENDBRANCH  18  19
ENDBRANCH   2  18
TORSDOF 4
ENDMDL
MODEL 8
REMARK VINA RESULT:      -8.9      1.738      2.588
REMARK  Name = 
REMARK  5 active torsions:
REMARK  status: ('A' for Active; 'I' for Inactive)
REMARK    1  A    between atoms: C_1  and  C_2
REMARK    2  A    between atoms: C_7  and  N_8
REMARK    3  A    between atoms: C_9  and  C_11
REMARK    4  A    between atoms: C_11  and  C_12
REMARK    5  A    between atoms: C_12  and  N_13
REMARK                            x       y       z     vdW  Elec       q    Type
REMARK                         _______ _______ _______ _____ _____    ______ ____
ROOT
ATOM      1  N   UNL     1       1.827   8.772  18.025  0.00  0.00    +0.000 N 
ATOM      2  C   UNL     1       2.357   7.679  18.705  0.00  0.00    +0.000 C 
ATOM      3  O   UNL     1       2.013   7.320  19.829  0.00  0.00    +0.000 OA
ATOM      4  H   UNL     1       1.865   8.731  17.013  0.00  0.00    +0.000 HD
ENDROOT
BRANCH   1  11
ATOM      5  C   UNL     1      -2.941  13.474  21.949  0.00  0.00    +0.000 C 
ATOM      6  C   UNL     1      -2.034  12.298  21.606  0.00  0.00    +0.000 C 
ATOM      7  O   UNL     1      -2.124  12.063  20.199  0.00  0.00    +0.000 OA
ATOM      8  C   UNL     1      -1.151  11.221  19.727  0.00  0.00    +0.000 A 
ATOM      9  C   UNL     1      -1.347  10.678  18.457  0.00  0.00    +0.000 A 
ATOM     10  C   UNL     1      -0.354   9.876  17.883  0.00  0.00    +0.000 A 
ATOM     11  C   UNL     1       0.815   9.581  18.591  0.00  0.00    +0.000 A 
ATOM     12  C   UNL     1       1.000  10.100  19.873  0.00  0.00    +0.000 A 
ATOM     13  C   UNL     1       0.038  10.960  20.420  0.00  0.00    +0.000 A 
ATOM     14  N   UNL     1       0.317  11.648  21.612  0.00  0.00    +0.000 N 
ATOM     15  C   UNL     1      -0.608  12.489  22.165  0.00  0.00    +0.000 C 
ATOM     16  O   UNL     1      -0.317  13.250  23.083  0.00  0.00    +0.000 OA
ATOM     17  H   UNL     1       1.243  11.662  22.000  0.00  0.00    +0.000 HD
ENDBRANCH   1  11
BRANCH   2  18
ATOM     18  C   UNL     1       3.406   6.911  17.917  0.00  0.00    +0.000 C 
BRANCH  18  19
ATOM     19  C   UNL     1       2.960   5.452  17.748  0.00  0.00    +0.000 C 
BRANCH  19  20
ATOM     20  N   UNL     1       3.995   4.392  17.826  0.00  0.00    +0.000 N 
ATOM     21  C   UNL     1       4.368   4.007  19.115  0.00  0.00    +0.000 A 
ATOM     22  O   UNL     1       3.574   3.702  20.002  0.00  0.00    +0.000 OA
ATOM     23  N   UNL     1       5.700   4.079  19.418  0.00  0.00    +0.000 N 
ATOM     24  C   UNL     1       6.638   4.697  18.639  0.00  0.00    +0.000 A 
ATOM     25  O   UNL     1       7.642   5.226  19.095  0.00  0.00    +0.000 OA
ATOM     26  C   UNL     1       6.342   4.678  17.203  0.00  0.00    +0.000 A 
ATOM     27  C   UNL     1       7.365   4.834  16.264  0.00  0.00    +0.000 A 
ATOM     28  C   UNL     1       7.064   4.721  14.909  0.00  0.00    +0.000 A 
ATOM     29  C   UNL     1       5.749   4.472  14.507  0.00  0.00    +0.000 A 
ATOM     30  C   UNL     1       4.721   4.375  15.457  0.00  0.00    +0.000 A 
ATOM     31  C   UNL     1       5.015   4.486  16.821  0.00  0.00    +0.000 A 
ATOM     32  H   UNL     1       5.901   4.036  20.405  0.00  0.00    +0.000 HD
ENDBRANCH  19  20
ENDBRANCH  18  19
ENDBRANCH   2  18
TORSDOF 4
ENDMDL
MODEL 9
REMARK VINA RESULT:      -8.9      1.080      1.301
REMARK  Name = 
REMARK  5 active torsions:
REMARK  status: ('A' for Active; 'I' for Inactive)
REMARK    1  A    between atoms: C_1  and  C_2
REMARK    2  A    between atoms: C_7  and  N_8
REMARK    3  A    between atoms: C_9  and  C_11
REMARK    4  A    between atoms: C_11  and  C_12
REMARK    5  A    between atoms: C_12  and  N_13
REMARK                            x       y       z     vdW  Elec       q    Type
REMARK                         _______ _______ _______ _____ _____    ______ ____
ROOT
ATOM      1  N   UNL     1       2.937   5.974  18.562  0.00  0.00    +0.000 N 
ATOM      2  C   UNL     1       2.382   4.714  18.755  0.00  0.00    +0.000 C 
ATOM      3  O   UNL     1       1.297   4.501  19.292  0.00  0.00    +0.000 OA
ATOM      4  H   UNL     1       3.582   6.066  17.785  0.00  0.00    +0.000 HD
ENDROOT
BRANCH   1  11
ATOM      5  C   UNL     1      -0.617  11.997  21.930  0.00  0.00    +0.000 C 
ATOM      6  C   UNL     1      -0.321  10.582  21.447  0.00  0.00    +0.000 C 
ATOM      7  O   UNL     1       0.428  10.674  20.234  0.00  0.00    +0.000 OA
ATOM      8  C   UNL     1       0.992   9.484  19.853  0.00  0.00    +0.000 A 
ATOM      9  C   UNL     1       1.455   9.394  18.540  0.00  0.00    +0.000 A 
ATOM     10  C   UNL     1       2.113   8.236  18.112  0.00  0.00    +0.000 A 
ATOM     11  C   UNL     1       2.274   7.151  18.980  0.00  0.00    +0.000 A 
ATOM     12  C   UNL     1       1.787   7.228  20.285  0.00  0.00    +0.000 A 
ATOM     13  C   UNL     1       1.190   8.414  20.736  0.00  0.00    +0.000 A 
ATOM     14  N   UNL     1       0.893   8.568  22.099  0.00  0.00    +0.000 N 
ATOM     15  C   UNL     1       0.307   9.714  22.559  0.00  0.00    +0.000 C 
ATOM     16  O   UNL     1       0.225   9.956  23.760  0.00  0.00    +0.000 OA
ATOM     17  H   UNL     1       1.236   7.919  22.784  0.00  0.00    +0.000 HD
ENDBRANCH   1  11
BRANCH   2  18
ATOM     18  C   UNL     1       3.226   3.576  18.203  0.00  0.00    +0.000 C 
BRANCH  18  19
ATOM     19  C   UNL     1       3.951   4.038  16.932  0.00  0.00    +0.000 C 
BRANCH  19  20
ATOM     20  N   UNL     1       5.427   3.893  16.878  0.00  0.00    +0.000 N 
ATOM     21  C   UNL     1       6.119   4.334  18.007  0.00  0.00    +0.000 A 
ATOM     22  O   UNL     1       5.840   4.010  19.159  0.00  0.00    +0.000 OA
ATOM     23  N   UNL     1       7.101   5.263  17.802  0.00  0.00    +0.000 N 
ATOM     24  C   UNL     1       7.297   5.938  16.630  0.00  0.00    +0.000 A 
ATOM     25  O   UNL     1       7.755   7.071  16.578  0.00  0.00    +0.000 OA
ATOM     26  C   UNL     1       6.908   5.192  15.429  0.00  0.00    +0.000 A 
ATOM     27  C   UNL     1       7.449   5.518  14.183  0.00  0.00    +0.000 A 
ATOM     28  C   UNL     1       7.129   4.733  13.078  0.00  0.00    +0.000 A 
ATOM     29  C   UNL     1       6.263   3.646  13.225  0.00  0.00    +0.000 A 
ATOM     30  C   UNL     1       5.681   3.364  14.470  0.00  0.00    +0.000 A 
ATOM     31  C   UNL     1       5.998   4.147  15.586  0.00  0.00    +0.000 A 
ATOM     32  H   UNL     1       7.403   5.735  18.641  0.00  0.00    +0.000 HD
ENDBRANCH  19  20
ENDBRANCH  18  19
ENDBRANCH   2  18
TORSDOF 4
ENDMDL
