MODEL 1
REMARK VINA RESULT:      -8.6      0.000      0.000
REMARK  Name = 
REMARK  7 active torsions:
REMARK  status: ('A' for Active; 'I' for Inactive)
REMARK    1  A    between atoms: C_1  and  N_2
REMARK    2  A    between atoms: C_6  and  C_7
REMARK    3  A    between atoms: C_7  and  C_8
REMARK    4  A    between atoms: C_8  and  C_11
REMARK    5  A    between atoms: C_15  and  N_16
REMARK    6  A    between atoms: C_23  and  C_24
REMARK    7  A    between atoms: C_24  and  C_25
REMARK                            x       y       z     vdW  Elec       q    Type
REMARK                         _______ _______ _______ _____ _____    ______ ____
ROOT
ATOM      1  C   UNL     1       1.271   8.767  19.811  0.00  0.00    +0.000 A 
ATOM      2  C   UNL     1       1.869   9.232  18.623  0.00  0.00    +0.000 A 
ATOM      3  C   UNL     1       2.537   8.366  17.756  0.00  0.00    +0.000 A 
ATOM      4  C   UNL     1       2.748   7.045  18.129  0.00  0.00    +0.000 A 
ATOM      5  C   UNL     1       2.417   6.651  19.438  0.00  0.00    +0.000 A 
ATOM      6  C   UNL     1       1.535   7.445  20.190  0.00  0.00    +0.000 A 
ENDROOT
BRANCH   5   7
ATOM      7  N   UNL     1       3.366   5.805  20.170  0.00  0.00    +0.000 N 
ATOM      8  C   UNL     1       4.527   5.489  19.301  0.00  0.00    +0.000 C 
ATOM      9  C   UNL     1       4.046   4.261  18.579  0.00  0.00    +0.000 A 
ATOM     10  C   UNL     1       3.168   3.605  19.447  0.00  0.00    +0.000 A 
ATOM     11  C   UNL     1       2.370   2.539  19.055  0.00  0.00    +0.000 A 
ATOM     12  C   UNL     1       2.443   2.155  17.720  0.00  0.00    +0.000 A 
ATOM     13  C   UNL     1       3.301   2.824  16.828  0.00  0.00    +0.000 A 
ATOM     14  C   UNL     1       4.129   3.889  17.240  0.00  0.00    +0.000 A 
ATOM     15  C   UNL     1       2.868   4.534  20.570  0.00  0.00    +0.000 C 
ATOM     16  O   UNL     1       2.148   4.257  21.510  0.00  0.00    +0.000 OA
BRANCH  14  17
ATOM     17  C   UNL     1       4.986   4.607  16.225  0.00  0.00    +0.000 C 
ATOM     18  C   UNL     1       6.459   4.459  16.572  0.00  0.00    +0.000 C 
ATOM     19  F   UNL     1       4.807   4.118  14.963  0.00  0.00    +0.000 F 
ATOM     20  F   UNL     1       4.717   5.941  16.125  0.00  0.00    +0.000 F 
ENDBRANCH  14  17
ENDBRANCH   5   7
BRANCH   1  21
ATOM     21  C   UNL     1       0.523   9.711  20.689  0.00  0.00    +0.000 C 
ATOM     22  C   UNL     1       0.184   9.302  21.921  0.00  0.00    +0.000 C 
ATOM     23  F   UNL     1      -0.602  10.045  22.744  0.00  0.00    +0.000 F 
BRANCH  21  24
ATOM     24  C   UNL     1       0.007  11.035  20.160  0.00  0.00    +0.000 C 
BRANCH  24  30
ATOM     25  C   UNL     1       2.252  12.683  18.613  0.00  0.00    +0.000 C 
ATOM     26  N   UNL     1       1.710  12.941  19.920  0.00  0.00    +0.000 N 
ATOM     27  C   UNL     1       2.172  13.907  20.768  0.00  0.00    +0.000 A 
ATOM     28  N   UNL     1       1.468  13.901  21.867  0.00  0.00    +0.000 NA
ATOM     29  N   UNL     1       0.540  12.887  21.763  0.00  0.00    +0.000 NA
ATOM     30  C   UNL     1       0.700  12.301  20.593  0.00  0.00    +0.000 A 
ENDBRANCH  24  30
ENDBRANCH  21  24
ENDBRANCH   1  21
TORSDOF 5
ENDMDL
MODEL 2
REMARK VINA RESULT:      -8.6      1.527      2.004
REMARK  Name = 
REMARK  7 active torsions:
REMARK  status: ('A' for Active; 'I' for Inactive)
REMARK    1  A    between atoms: C_1  and  N_2
REMARK    2  A    between atoms: C_6  and  C_7
REMARK    3  A    between atoms: C_7  and  C_8
REMARK    4  A    between atoms: C_8  and  C_11
REMARK    5  A    between atoms: C_15  and  N_16
REMARK    6  A    between atoms: C_23  and  C_24
REMARK    7  A    between atoms: C_24  and  C_25
REMARK                            x       y       z     vdW  Elec       q    Type
REMARK                         _______ _______ _______ _____ _____    ______ ____
ROOT
ATOM      1  C   UNL     1       1.327   8.829  19.739  0.00  0.00    +0.000 A 
ATOM      2  C   UNL     1       1.932   9.258  18.541  0.00  0.00    +0.000 A 
ATOM      3  C   UNL     1       2.579   8.361  17.689  0.00  0.00    +0.000 A 
ATOM      4  C   UNL     1       2.762   7.044  18.087  0.00  0.00    +0.000 A 
ATOM      5  C   UNL     1       2.426   6.683  19.405  0.00  0.00    +0.000 A 
ATOM      6  C   UNL     1       1.563   7.510  20.142  0.00  0.00    +0.000 A 
ENDROOT
BRANCH   5   7
ATOM      7  N   UNL     1       3.359   5.830  20.151  0.00  0.00    +0.000 N 
ATOM      8  C   UNL     1       4.532   5.508  19.300  0.00  0.00    +0.000 C 
ATOM      9  C   UNL     1       4.055   4.283  18.571  0.00  0.00    +0.000 A 
ATOM     10  C   UNL     1       3.159   3.632  19.425  0.00  0.00    +0.000 A 
ATOM     11  C   UNL     1       2.362   2.571  19.019  0.00  0.00    +0.000 A 
ATOM     12  C   UNL     1       2.454   2.186  17.686  0.00  0.00    +0.000 A 
ATOM     13  C   UNL     1       3.330   2.850  16.808  0.00  0.00    +0.000 A 
ATOM     14  C   UNL     1       4.157   3.911  17.233  0.00  0.00    +0.000 A 
ATOM     15  C   UNL     1       2.848   4.562  20.543  0.00  0.00    +0.000 C 
ATOM     16  O   UNL     1       2.111   4.289  21.471  0.00  0.00    +0.000 OA
BRANCH  14  17
ATOM     17  C   UNL     1       5.034   4.625  16.232  0.00  0.00    +0.000 C 
ATOM     18  C   UNL     1       6.500   4.473  16.606  0.00  0.00    +0.000 C 
ATOM     19  F   UNL     1       4.877   4.133  14.968  0.00  0.00    +0.000 F 
ATOM     20  F   UNL     1       4.771   5.959  16.124  0.00  0.00    +0.000 F 
ENDBRANCH  14  17
ENDBRANCH   5   7
BRANCH   1  21
ATOM     21  C   UNL     1       0.600   9.805  20.600  0.00  0.00    +0.000 C 
ATOM     22  C   UNL     1       0.166   9.396  21.801  0.00  0.00    +0.000 C 
ATOM     23  F   UNL     1      -0.608  10.175  22.600  0.00  0.00    +0.000 F 
BRANCH  21  24
ATOM     24  C   UNL     1       0.209  11.174  20.077  0.00  0.00    +0.000 C 
BRANCH  24  30
ATOM     25  C   UNL     1      -1.463  10.142  17.570  0.00  0.00    +0.000 C 
ATOM     26  N   UNL     1      -1.901  11.017  18.624  0.00  0.00    +0.000 N 
ATOM     27  C   UNL     1      -3.114  11.645  18.649  0.00  0.00    +0.000 A 
ATOM     28  N   UNL     1      -3.218  12.357  19.737  0.00  0.00    +0.000 NA
ATOM     29  N   UNL     1      -2.037  12.228  20.436  0.00  0.00    +0.000 NA
ATOM     30  C   UNL     1      -1.239  11.431  19.752  0.00  0.00    +0.000 A 
ENDBRANCH  24  30
ENDBRANCH  21  24
ENDBRANCH   1  21
TORSDOF 5
ENDMDL
MODEL 3
REMARK VINA RESULT:      -8.5      0.807      1.225
REMARK  Name = 
REMARK  7 active torsions:
REMARK  status: ('A' for Active; 'I' for Inactive)
REMARK    1  A    between atoms: C_1  and  N_2
REMARK    2  A    between atoms: C_6  and  C_7
REMARK    3  A    between atoms: C_7  and  C_8
REMARK    4  A    between atoms: C_8  and  C_11
REMARK    5  A    between atoms: C_15  and  N_16
REMARK    6  A    between atoms: C_23  and  C_24
REMARK    7  A    between atoms: C_24  and  C_25
REMARK                            x       y       z     vdW  Elec       q    Type
REMARK                         _______ _______ _______ _____ _____    ______ ____
ROOT
ATOM      1  C   UNL     1       1.156   8.631  20.060  0.00  0.00    +0.000 A 
ATOM      2  C   UNL     1       1.758   9.193  18.917  0.00  0.00    +0.000 A 
ATOM      3  C   UNL     1       2.471   8.410  18.008  0.00  0.00    +0.000 A 
ATOM      4  C   UNL     1       2.722   7.076  18.298  0.00  0.00    +0.000 A 
ATOM      5  C   UNL     1       2.383   6.585  19.572  0.00  0.00    +0.000 A 
ATOM      6  C   UNL     1       1.461   7.297  20.356  0.00  0.00    +0.000 A 
ENDROOT
BRANCH   5   7
ATOM      7  N   UNL     1       3.349   5.725  20.265  0.00  0.00    +0.000 N 
ATOM      8  C   UNL     1       4.499   5.442  19.370  0.00  0.00    +0.000 C 
ATOM      9  C   UNL     1       4.015   4.231  18.622  0.00  0.00    +0.000 A 
ATOM     10  C   UNL     1       3.154   3.545  19.485  0.00  0.00    +0.000 A 
ATOM     11  C   UNL     1       2.358   2.485  19.074  0.00  0.00    +0.000 A 
ATOM     12  C   UNL     1       2.412   2.138  17.729  0.00  0.00    +0.000 A 
ATOM     13  C   UNL     1       3.252   2.838  16.843  0.00  0.00    +0.000 A 
ATOM     14  C   UNL     1       4.079   3.897  17.271  0.00  0.00    +0.000 A 
ATOM     15  C   UNL     1       2.866   4.440  20.637  0.00  0.00    +0.000 C 
ATOM     16  O   UNL     1       2.162   4.132  21.580  0.00  0.00    +0.000 OA
BRANCH  14  17
ATOM     17  C   UNL     1       4.915   4.650  16.264  0.00  0.00    +0.000 C 
ATOM     18  C   UNL     1       6.394   4.520  16.596  0.00  0.00    +0.000 C 
ATOM     19  F   UNL     1       4.734   4.182  14.994  0.00  0.00    +0.000 F 
ATOM     20  F   UNL     1       4.624   5.980  16.193  0.00  0.00    +0.000 F 
ENDBRANCH  14  17
ENDBRANCH   5   7
BRANCH   1  21
ATOM     21  C   UNL     1       0.360   9.489  20.983  0.00  0.00    +0.000 C 
ATOM     22  C   UNL     1       0.040   8.999  22.191  0.00  0.00    +0.000 C 
ATOM     23  F   UNL     1      -0.783   9.657  23.048  0.00  0.00    +0.000 F 
BRANCH  21  24
ATOM     24  C   UNL     1      -0.222  10.811  20.521  0.00  0.00    +0.000 C 
BRANCH  24  30
ATOM     25  C   UNL     1      -1.846  13.078  22.061  0.00  0.00    +0.000 C 
ATOM     26  N   UNL     1      -0.445  13.061  21.736  0.00  0.00    +0.000 N 
ATOM     27  C   UNL     1       0.408  14.105  21.955  0.00  0.00    +0.000 A 
ATOM     28  N   UNL     1       1.611  13.779  21.566  0.00  0.00    +0.000 NA
ATOM     29  N   UNL     1       1.551  12.504  21.047  0.00  0.00    +0.000 NA
ATOM     30  C   UNL     1       0.305  12.081  21.137  0.00  0.00    +0.000 A 
ENDBRANCH  24  30
ENDBRANCH  21  24
ENDBRANCH   1  21
TORSDOF 5
ENDMDL
MODEL 4
REMARK VINA RESULT:      -8.5      1.723      2.305
REMARK  Name = 
REMARK  7 active torsions:
REMARK  status: ('A' for Active; 'I' for Inactive)
REMARK    1  A    between atoms: C_1  and  N_2
REMARK    2  A    between atoms: C_6  and  C_7
REMARK    3  A    between atoms: C_7  and  C_8
REMARK    4  A    between atoms: C_8  and  C_11
REMARK    5  A    between atoms: C_15  and  N_16
REMARK    6  A    between atoms: C_23  and  C_24
REMARK    7  A    between atoms: C_24  and  C_25
REMARK                            x       y       z     vdW  Elec       q    Type
REMARK                         _______ _______ _______ _____ _____    ______ ____
ROOT
ATOM      1  C   UNL     1       1.298   8.882  19.599  0.00  0.00    +0.000 A 
ATOM      2  C   UNL     1       1.967   9.374  18.461  0.00  0.00    +0.000 A 
ATOM      3  C   UNL     1       2.697   8.530  17.623  0.00  0.00    +0.000 A 
ATOM      4  C   UNL     1       2.895   7.205  17.984  0.00  0.00    +0.000 A 
ATOM      5  C   UNL     1       2.484   6.783  19.261  0.00  0.00    +0.000 A 
ATOM      6  C   UNL     1       1.549   7.556  19.969  0.00  0.00    +0.000 A 
ENDROOT
BRANCH   5   7
ATOM      7  N   UNL     1       3.392   5.931  20.037  0.00  0.00    +0.000 N 
ATOM      8  C   UNL     1       4.567   5.565  19.206  0.00  0.00    +0.000 C 
ATOM      9  C   UNL     1       4.072   4.332  18.501  0.00  0.00    +0.000 A 
ATOM     10  C   UNL     1       3.154   3.720  19.361  0.00  0.00    +0.000 A 
ATOM     11  C   UNL     1       2.339   2.665  18.973  0.00  0.00    +0.000 A 
ATOM     12  C   UNL     1       2.436   2.248  17.651  0.00  0.00    +0.000 A 
ATOM     13  C   UNL     1       3.333   2.872  16.765  0.00  0.00    +0.000 A 
ATOM     14  C   UNL     1       4.179   3.925  17.173  0.00  0.00    +0.000 A 
ATOM     15  C   UNL     1       2.851   4.683  20.454  0.00  0.00    +0.000 C 
ATOM     16  O   UNL     1       2.101   4.447  21.381  0.00  0.00    +0.000 OA
BRANCH  14  17
ATOM     17  C   UNL     1       5.079   4.597  16.164  0.00  0.00    +0.000 C 
ATOM     18  C   UNL     1       6.539   4.400  16.541  0.00  0.00    +0.000 C 
ATOM     19  F   UNL     1       4.905   4.096  14.906  0.00  0.00    +0.000 F 
ATOM     20  F   UNL     1       4.862   5.938  16.041  0.00  0.00    +0.000 F 
ENDBRANCH  14  17
ENDBRANCH   5   7
BRANCH   1  21
ATOM     21  C   UNL     1       0.486   9.803  20.444  0.00  0.00    +0.000 C 
ATOM     22  C   UNL     1      -0.010   9.336  21.600  0.00  0.00    +0.000 C 
ATOM     23  F   UNL     1      -0.860  10.061  22.373  0.00  0.00    +0.000 F 
BRANCH  21  24
ATOM     24  C   UNL     1       0.083  11.178  19.946  0.00  0.00    +0.000 C 
BRANCH  24  30
ATOM     25  C   UNL     1      -2.566  12.797  20.659  0.00  0.00    +0.000 C 
ATOM     26  N   UNL     1      -2.321  11.964  19.512  0.00  0.00    +0.000 N 
ATOM     27  C   UNL     1      -3.264  11.647  18.576  0.00  0.00    +0.000 A 
ATOM     28  N   UNL     1      -2.734  10.888  17.657  0.00  0.00    +0.000 NA
ATOM     29  N   UNL     1      -1.418  10.667  18.005  0.00  0.00    +0.000 NA
ATOM     30  C   UNL     1      -1.178  11.306  19.133  0.00  0.00    +0.000 A 
ENDBRANCH  24  30
ENDBRANCH  21  24
ENDBRANCH   1  21
TORSDOF 5
ENDMDL
MODEL 5
REMARK VINA RESULT:      -8.5      1.061      1.374
REMARK  Name = 
REMARK  7 active torsions:
REMARK  status: ('A' for Active; 'I' for Inactive)
REMARK    1  A    between atoms: C_1  and  N_2
REMARK    2  A    between atoms: C_6  and  C_7
REMARK    3  A    between atoms: C_7  and  C_8
REMARK    4  A    between atoms: C_8  and  C_11
REMARK    5  A    between atoms: C_15  and  N_16
REMARK    6  A    between atoms: C_23  and  C_24
REMARK    7  A    between atoms: C_24  and  C_25
REMARK                            x       y       z     vdW  Elec       q    Type
REMARK                         _______ _______ _______ _____ _____    ______ ____
ROOT
ATOM      1  C   UNL     1       1.276   8.674  19.929  0.00  0.00    +0.000 A 
ATOM      2  C   UNL     1       1.874   9.202  18.769  0.00  0.00    +0.000 A 
ATOM      3  C   UNL     1       2.566   8.388  17.870  0.00  0.00    +0.000 A 
ATOM      4  C   UNL     1       2.798   7.057  18.185  0.00  0.00    +0.000 A 
ATOM      5  C   UNL     1       2.464   6.599  19.473  0.00  0.00    +0.000 A 
ATOM      6  C   UNL     1       1.562   7.342  20.251  0.00  0.00    +0.000 A 
ENDROOT
BRANCH   5   7
ATOM      7  N   UNL     1       3.424   5.739  20.175  0.00  0.00    +0.000 N 
ATOM      8  C   UNL     1       4.569   5.434  19.281  0.00  0.00    +0.000 C 
ATOM      9  C   UNL     1       4.073   4.219  18.549  0.00  0.00    +0.000 A 
ATOM     10  C   UNL     1       3.207   3.551  19.421  0.00  0.00    +0.000 A 
ATOM     11  C   UNL     1       2.400   2.493  19.026  0.00  0.00    +0.000 A 
ATOM     12  C   UNL     1       2.449   2.130  17.684  0.00  0.00    +0.000 A 
ATOM     13  C   UNL     1       3.294   2.811  16.788  0.00  0.00    +0.000 A 
ATOM     14  C   UNL     1       4.132   3.867  17.202  0.00  0.00    +0.000 A 
ATOM     15  C   UNL     1       2.929   4.463  20.564  0.00  0.00    +0.000 C 
ATOM     16  O   UNL     1       2.225   4.172  21.511  0.00  0.00    +0.000 OA
BRANCH  14  17
ATOM     17  C   UNL     1       4.973   4.600  16.185  0.00  0.00    +0.000 C 
ATOM     18  C   UNL     1       6.452   4.409  16.481  0.00  0.00    +0.000 C 
ATOM     19  F   UNL     1       4.745   4.156  14.914  0.00  0.00    +0.000 F 
ATOM     20  F   UNL     1       4.732   5.942  16.136  0.00  0.00    +0.000 F 
ENDBRANCH  14  17
ENDBRANCH   5   7
BRANCH   1  21
ATOM     21  C   UNL     1       0.503   9.564  20.842  0.00  0.00    +0.000 C 
ATOM     22  C   UNL     1       0.778   9.525  22.154  0.00  0.00    +0.000 C 
ATOM     23  F   UNL     1       0.044  10.206  23.073  0.00  0.00    +0.000 F 
BRANCH  21  24
ATOM     24  C   UNL     1      -0.677  10.372  20.337  0.00  0.00    +0.000 C 
BRANCH  24  30
ATOM     25  C   UNL     1      -2.015  11.683  17.761  0.00  0.00    +0.000 C 
ATOM     26  N   UNL     1      -0.971  12.226  18.587  0.00  0.00    +0.000 N 
ATOM     27  C   UNL     1      -0.299  13.385  18.317  0.00  0.00    +0.000 A 
ATOM     28  N   UNL     1       0.576  13.616  19.257  0.00  0.00    +0.000 NA
ATOM     29  N   UNL     1       0.508  12.572  20.156  0.00  0.00    +0.000 NA
ATOM     30  C   UNL     1      -0.415  11.729  19.739  0.00  0.00    +0.000 A 
ENDBRANCH  24  30
ENDBRANCH  21  24
ENDBRANCH   1  21
TORSDOF 5
ENDMDL
MODEL 6
REMARK VINA RESULT:      -8.4      2.840      8.010
REMARK  Name = 
REMARK  7 active torsions:
REMARK  status: ('A' for Active; 'I' for Inactive)
REMARK    1  A    between atoms: C_1  and  N_2
REMARK    2  A    between atoms: C_6  and  C_7
REMARK    3  A    between atoms: C_7  and  C_8
REMARK    4  A    between atoms: C_8  and  C_11
REMARK    5  A    between atoms: C_15  and  N_16
REMARK    6  A    between atoms: C_23  and  C_24
REMARK    7  A    between atoms: C_24  and  C_25
REMARK                            x       y       z     vdW  Elec       q    Type
REMARK                         _______ _______ _______ _____ _____    ______ ____
ROOT
ATOM      1  C   UNL     1       2.388   7.410  18.644  0.00  0.00    +0.000 A 
ATOM      2  C   UNL     1       2.298   8.376  17.623  0.00  0.00    +0.000 A 
ATOM      3  C   UNL     1       1.949   9.699  17.899  0.00  0.00    +0.000 A 
ATOM      4  C   UNL     1       1.542  10.050  19.179  0.00  0.00    +0.000 A 
ATOM      5  C   UNL     1       1.343   9.032  20.129  0.00  0.00    +0.000 A 
ATOM      6  C   UNL     1       1.929   7.773  19.916  0.00  0.00    +0.000 A 
ENDROOT
BRANCH   5   7
ATOM      7  N   UNL     1       0.145   9.093  20.974  0.00  0.00    +0.000 N 
ATOM      8  C   UNL     1      -1.068   8.939  20.132  0.00  0.00    +0.000 C 
ATOM      9  C   UNL     1      -1.335  10.358  19.715  0.00  0.00    +0.000 A 
ATOM     10  C   UNL     1      -0.863  11.175  20.748  0.00  0.00    +0.000 A 
ATOM     11  C   UNL     1      -0.755  12.554  20.634  0.00  0.00    +0.000 A 
ATOM     12  C   UNL     1      -1.103  13.115  19.410  0.00  0.00    +0.000 A 
ATOM     13  C   UNL     1      -1.552  12.303  18.352  0.00  0.00    +0.000 A 
ATOM     14  C   UNL     1      -1.686  10.905  18.483  0.00  0.00    +0.000 A 
ATOM     15  C   UNL     1      -0.056  10.322  21.661  0.00  0.00    +0.000 C 
ATOM     16  O   UNL     1       0.480  10.727  22.675  0.00  0.00    +0.000 OA
BRANCH  14  17
ATOM     17  C   UNL     1      -2.117  10.079  17.295  0.00  0.00    +0.000 C 
ATOM     18  C   UNL     1      -2.569  10.981  16.156  0.00  0.00    +0.000 C 
ATOM     19  F   UNL     1      -1.106   9.292  16.822  0.00  0.00    +0.000 F 
ATOM     20  F   UNL     1      -3.136   9.215  17.567  0.00  0.00    +0.000 F 
ENDBRANCH  14  17
ENDBRANCH   5   7
BRANCH   1  21
ATOM     21  C   UNL     1       2.812   6.018  18.320  0.00  0.00    +0.000 C 
ATOM     22  C   UNL     1       3.908   5.845  17.566  0.00  0.00    +0.000 C 
ATOM     23  F   UNL     1       4.298   4.623  17.119  0.00  0.00    +0.000 F 
BRANCH  21  24
ATOM     24  C   UNL     1       1.945   4.828  18.685  0.00  0.00    +0.000 C 
BRANCH  24  30
ATOM     25  C   UNL     1       3.479   2.050  18.971  0.00  0.00    +0.000 C 
ATOM     26  N   UNL     1       2.875   2.836  20.012  0.00  0.00    +0.000 N 
ATOM     27  C   UNL     1       2.773   2.440  21.315  0.00  0.00    +0.000 A 
ATOM     28  N   UNL     1       2.189   3.374  22.015  0.00  0.00    +0.000 NA
ATOM     29  N   UNL     1       1.864   4.400  21.153  0.00  0.00    +0.000 NA
ATOM     30  C   UNL     1       2.266   4.065  19.944  0.00  0.00    +0.000 A 
ENDBRANCH  24  30
ENDBRANCH  21  24
ENDBRANCH   1  21
TORSDOF 5
ENDMDL
MODEL 7
REMARK VINA RESULT:      -8.3      1.165      1.408
REMARK  Name = 
REMARK  7 active torsions:
REMARK  status: ('A' for Active; 'I' for Inactive)
REMARK    1  A    between atoms: C_1  and  N_2
REMARK    2  A    between atoms: C_6  and  C_7
REMARK    3  A    between atoms: C_7  and  C_8
REMARK    4  A    between atoms: C_8  and  C_11
REMARK    5  A    between atoms: C_15  and  N_16
REMARK    6  A    between atoms: C_23  and  C_24
REMARK    7  A    between atoms: C_24  and  C_25
REMARK                            x       y       z     vdW  Elec       q    Type
REMARK                         _______ _______ _______ _____ _____    ______ ____
ROOT
ATOM      1  C   UNL     1       1.235   8.535  20.239  0.00  0.00    +0.000 A 
ATOM      2  C   UNL     1       1.787   9.042  19.047  0.00  0.00    +0.000 A 
ATOM      3  C   UNL     1       2.407   8.206  18.117  0.00  0.00    +0.000 A 
ATOM      4  C   UNL     1       2.617   6.869  18.426  0.00  0.00    +0.000 A 
ATOM      5  C   UNL     1       2.338   6.425  19.731  0.00  0.00    +0.000 A 
ATOM      6  C   UNL     1       1.498   7.196  20.552  0.00  0.00    +0.000 A 
ENDROOT
BRANCH   5   7
ATOM      7  N   UNL     1       3.307   5.539  20.386  0.00  0.00    +0.000 N 
ATOM      8  C   UNL     1       4.456   5.296  19.478  0.00  0.00    +0.000 C 
ATOM      9  C   UNL     1       3.972   4.116  18.681  0.00  0.00    +0.000 A 
ATOM     10  C   UNL     1       3.115   3.393  19.517  0.00  0.00    +0.000 A 
ATOM     11  C   UNL     1       2.320   2.348  19.065  0.00  0.00    +0.000 A 
ATOM     12  C   UNL     1       2.372   2.058  17.706  0.00  0.00    +0.000 A 
ATOM     13  C   UNL     1       3.209   2.796  16.848  0.00  0.00    +0.000 A 
ATOM     14  C   UNL     1       4.035   3.838  17.318  0.00  0.00    +0.000 A 
ATOM     15  C   UNL     1       2.827   4.239  20.706  0.00  0.00    +0.000 C 
ATOM     16  O   UNL     1       2.127   3.891  21.637  0.00  0.00    +0.000 OA
BRANCH  14  17
ATOM     17  C   UNL     1       4.867   4.633  16.341  0.00  0.00    +0.000 C 
ATOM     18  C   UNL     1       6.344   4.525  16.689  0.00  0.00    +0.000 C 
ATOM     19  F   UNL     1       4.711   4.195  15.057  0.00  0.00    +0.000 F 
ATOM     20  F   UNL     1       4.549   5.959  16.300  0.00  0.00    +0.000 F 
ENDBRANCH  14  17
ENDBRANCH   5   7
BRANCH   1  21
ATOM     21  C   UNL     1       0.536   9.450  21.186  0.00  0.00    +0.000 C 
ATOM     22  C   UNL     1      -0.265   8.911  22.118  0.00  0.00    +0.000 C 
ATOM     23  F   UNL     1      -1.036   9.668  22.942  0.00  0.00    +0.000 F 
BRANCH  21  24
ATOM     24  C   UNL     1       0.587  10.955  21.008  0.00  0.00    +0.000 C 
BRANCH  24  30
ATOM     25  C   UNL     1       1.659  12.829  18.665  0.00  0.00    +0.000 C 
ATOM     26  N   UNL     1       0.303  12.425  18.923  0.00  0.00    +0.000 N 
ATOM     27  C   UNL     1      -0.782  12.891  18.237  0.00  0.00    +0.000 A 
ATOM     28  N   UNL     1      -1.867  12.329  18.695  0.00  0.00    +0.000 NA
ATOM     29  N   UNL     1      -1.501  11.497  19.731  0.00  0.00    +0.000 NA
ATOM     30  C   UNL     1      -0.193  11.570  19.875  0.00  0.00    +0.000 A 
ENDBRANCH  24  30
ENDBRANCH  21  24
ENDBRANCH   1  21
TORSDOF 5
ENDMDL
MODEL 8
REMARK VINA RESULT:      -8.2      2.820      7.579
REMARK  Name = 
REMARK  7 active torsions:
REMARK  status: ('A' for Active; 'I' for Inactive)
REMARK    1  A    between atoms: C_1  and  N_2
REMARK    2  A    between atoms: C_6  and  C_7
REMARK    3  A    between atoms: C_7  and  C_8
REMARK    4  A    between atoms: C_8  and  C_11
REMARK    5  A    between atoms: C_15  and  N_16
REMARK    6  A    between atoms: C_23  and  C_24
REMARK    7  A    between atoms: C_24  and  C_25
REMARK                            x       y       z     vdW  Elec       q    Type
REMARK                         _______ _______ _______ _____ _____    ______ ____
ROOT
ATOM      1  C   UNL     1       2.326   6.195  18.582  0.00  0.00    +0.000 A 
ATOM      2  C   UNL     1       2.188   7.129  17.537  0.00  0.00    +0.000 A 
ATOM      3  C   UNL     1       2.098   8.499  17.790  0.00  0.00    +0.000 A 
ATOM      4  C   UNL     1       1.996   8.952  19.098  0.00  0.00    +0.000 A 
ATOM      5  C   UNL     1       1.831   8.008  20.129  0.00  0.00    +0.000 A 
ATOM      6  C   UNL     1       2.174   6.667  19.891  0.00  0.00    +0.000 A 
ENDROOT
BRANCH   5   7
ATOM      7  N   UNL     1       0.836   8.284  21.171  0.00  0.00    +0.000 N 
ATOM      8  C   UNL     1      -0.484   8.544  20.545  0.00  0.00    +0.000 C 
ATOM      9  C   UNL     1      -0.411  10.022  20.277  0.00  0.00    +0.000 A 
ATOM     10  C   UNL     1       0.416  10.568  21.265  0.00  0.00    +0.000 A 
ATOM     11  C   UNL     1       0.880  11.875  21.226  0.00  0.00    +0.000 A 
ATOM     12  C   UNL     1       0.520  12.640  20.122  0.00  0.00    +0.000 A 
ATOM     13  C   UNL     1      -0.288  12.096  19.106  0.00  0.00    +0.000 A 
ATOM     14  C   UNL     1      -0.779  10.775  19.165  0.00  0.00    +0.000 A 
ATOM     15  C   UNL     1       1.086   9.439  21.964  0.00  0.00    +0.000 C 
ATOM     16  O   UNL     1       1.857   9.575  22.894  0.00  0.00    +0.000 OA
BRANCH  14  17
ATOM     17  C   UNL     1      -1.592  10.226  18.017  0.00  0.00    +0.000 C 
ATOM     18  C   UNL     1      -2.162  11.361  17.179  0.00  0.00    +0.000 C 
ATOM     19  F   UNL     1      -0.847   9.436  17.191  0.00  0.00    +0.000 F 
ATOM     20  F   UNL     1      -2.635   9.439  18.409  0.00  0.00    +0.000 F 
ENDBRANCH  14  17
ENDBRANCH   5   7
BRANCH   1  21
ATOM     21  C   UNL     1       2.470   4.744  18.272  0.00  0.00    +0.000 C 
ATOM     22  C   UNL     1       1.453   3.924  18.575  0.00  0.00    +0.000 C 
ATOM     23  F   UNL     1       1.541   2.574  18.443  0.00  0.00    +0.000 F 
BRANCH  21  24
ATOM     24  C   UNL     1       3.787   4.172  17.783  0.00  0.00    +0.000 C 
BRANCH  24  30
ATOM     25  C   UNL     1       5.569   6.392  16.354  0.00  0.00    +0.000 C 
ATOM     26  N   UNL     1       5.835   5.707  17.590  0.00  0.00    +0.000 N 
ATOM     27  C   UNL     1       6.990   5.836  18.308  0.00  0.00    +0.000 A 
ATOM     28  N   UNL     1       6.924   5.100  19.384  0.00  0.00    +0.000 NA
ATOM     29  N   UNL     1       5.713   4.441  19.365  0.00  0.00    +0.000 NA
ATOM     30  C   UNL     1       5.067   4.798  18.273  0.00  0.00    +0.000 A 
ENDBRANCH  24  30
ENDBRANCH  21  24
ENDBRANCH   1  21
TORSDOF 5
ENDMDL
MODEL 9
REMARK VINA RESULT:      -8.2      3.377      4.541
REMARK  Name = 
REMARK  7 active torsions:
REMARK  status: ('A' for Active; 'I' for Inactive)
REMARK    1  A    between atoms: C_1  and  N_2
REMARK    2  A    between atoms: C_6  and  C_7
REMARK    3  A    between atoms: C_7  and  C_8
REMARK    4  A    between atoms: C_8  and  C_11
REMARK    5  A    between atoms: C_15  and  N_16
REMARK    6  A    between atoms: C_23  and  C_24
REMARK    7  A    between atoms: C_24  and  C_25
REMARK                            x       y       z     vdW  Elec       q    Type
REMARK                         _______ _______ _______ _____ _____    ______ ____
ROOT
ATOM      1  C   UNL     1       1.158   9.130  19.429  0.00  0.00    +0.000 A 
ATOM      2  C   UNL     1       0.951   8.399  20.614  0.00  0.00    +0.000 A 
ATOM      3  C   UNL     1       1.701   7.259  20.909  0.00  0.00    +0.000 A 
ATOM      4  C   UNL     1       2.571   6.743  19.958  0.00  0.00    +0.000 A 
ATOM      5  C   UNL     1       2.562   7.294  18.664  0.00  0.00    +0.000 A 
ATOM      6  C   UNL     1       2.004   8.568  18.466  0.00  0.00    +0.000 A 
ENDROOT
BRANCH   5   7
ATOM      7  N   UNL     1       2.595   6.378  17.518  0.00  0.00    +0.000 N 
ATOM      8  C   UNL     1       1.712   5.214  17.783  0.00  0.00    +0.000 C 
ATOM      9  C   UNL     1       2.643   4.282  18.507  0.00  0.00    +0.000 A 
ATOM     10  C   UNL     1       3.929   4.544  18.023  0.00  0.00    +0.000 A 
ATOM     11  C   UNL     1       5.077   4.018  18.600  0.00  0.00    +0.000 A 
ATOM     12  C   UNL     1       4.910   3.231  19.733  0.00  0.00    +0.000 A 
ATOM     13  C   UNL     1       3.625   2.981  20.249  0.00  0.00    +0.000 A 
ATOM     14  C   UNL     1       2.460   3.495  19.643  0.00  0.00    +0.000 A 
ATOM     15  C   UNL     1       3.864   5.802  17.233  0.00  0.00    +0.000 C 
ATOM     16  O   UNL     1       4.814   6.295  16.657  0.00  0.00    +0.000 OA
BRANCH  14  17
ATOM     17  C   UNL     1       1.112   3.244  20.275  0.00  0.00    +0.000 C 
ATOM     18  C   UNL     1       1.276   2.546  21.616  0.00  0.00    +0.000 C 
ATOM     19  F   UNL     1       0.423   4.402  20.493  0.00  0.00    +0.000 F 
ATOM     20  F   UNL     1       0.281   2.479  19.511  0.00  0.00    +0.000 F 
ENDBRANCH  14  17
ENDBRANCH   5   7
BRANCH   1  21
ATOM     21  C   UNL     1       0.374  10.371  19.170  0.00  0.00    +0.000 C 
ATOM     22  C   UNL     1       1.042  11.520  18.988  0.00  0.00    +0.000 C 
ATOM     23  F   UNL     1       0.411  12.718  18.869  0.00  0.00    +0.000 F 
BRANCH  21  24
ATOM     24  C   UNL     1      -1.139  10.381  19.275  0.00  0.00    +0.000 C 
BRANCH  24  30
ATOM     25  C   UNL     1      -3.884  11.916  18.766  0.00  0.00    +0.000 C 
ATOM     26  N   UNL     1      -3.159  11.076  17.851  0.00  0.00    +0.000 N 
ATOM     27  C   UNL     1      -3.613  10.712  16.615  0.00  0.00    +0.000 A 
ATOM     28  N   UNL     1      -2.726   9.960  16.024  0.00  0.00    +0.000 NA
ATOM     29  N   UNL     1      -1.673   9.790  16.898  0.00  0.00    +0.000 NA
ATOM     30  C   UNL     1      -1.946  10.453  18.004  0.00  0.00    +0.000 A 
ENDBRANCH  24  30
ENDBRANCH  21  24
ENDBRANCH   1  21
TORSDOF 5
ENDMDL
