MODEL 1
REMARK VINA RESULT:      -8.5      0.000      0.000
REMARK  Name = 
REMARK  5 active torsions:
REMARK  status: ('A' for Active; 'I' for Inactive)
REMARK    1  A    between atoms: C_1  and  C_2
REMARK    2  A    between atoms: C_3  and  C_4
REMARK    3  A    between atoms: C_4  and  C_5
REMARK    4  A    between atoms: C_4  and  N_6
REMARK    5  A    between atoms: C_7  and  C_9
REMARK                            x       y       z     vdW  Elec       q    Type
REMARK                         _______ _______ _______ _____ _____    ______ ____
ROOT
ATOM      1  N   UNL     1       5.185   6.057  18.377  0.00  0.00    +0.000 N 
ATOM      2  C   UNL     1       4.050   5.684  19.046  0.00  0.00    +0.000 C 
ATOM      3  O   UNL     1       3.779   4.562  19.449  0.00  0.00    +0.000 OA
ATOM      4  H   UNL     1       5.313   7.046  18.182  0.00  0.00    +0.000 HD
ENDROOT
BRANCH   2   5
ATOM      5  C   UNL     1       3.037   6.809  19.229  0.00  0.00    +0.000 A 
ATOM      6  N   UNL     1       2.374   6.937  20.336  0.00  0.00    +0.000 NA
ATOM      7  C   UNL     1       1.468   8.012  20.413  0.00  0.00    +0.000 A 
ATOM      8  C   UNL     1       0.690   8.157  21.564  0.00  0.00    +0.000 A 
ATOM      9  C   UNL     1      -0.221   9.213  21.679  0.00  0.00    +0.000 A 
ATOM     10  C   UNL     1      -0.359  10.139  20.645  0.00  0.00    +0.000 A 
ATOM     11  C   UNL     1       0.409  10.008  19.488  0.00  0.00    +0.000 A 
ATOM     12  C   UNL     1       1.309   8.945  19.379  0.00  0.00    +0.000 A 
ATOM     13  C   UNL     1       2.117   8.759  18.161  0.00  0.00    +0.000 A 
ATOM     14  O   UNL     1       2.074   9.546  17.222  0.00  0.00    +0.000 OA
ATOM     15  N   UNL     1       2.925   7.654  18.155  0.00  0.00    +0.000 N 
ATOM     16  H   UNL     1       3.480   7.475  17.328  0.00  0.00    +0.000 HD
ENDBRANCH   2   5
BRANCH   1  17
ATOM     17  C   UNL     1       6.292   5.155  18.130  0.00  0.00    +0.000 C 
ATOM     18  C   UNL     1       7.619   5.809  18.510  0.00  0.00    +0.000 C 
BRANCH  17  21
ATOM     19  C   UNL     1       4.218   3.230  16.304  0.00  0.00    +0.000 C 
ATOM     20  C   UNL     1       5.422   3.998  15.898  0.00  0.00    +0.000 A 
ATOM     21  C   UNL     1       6.260   4.782  16.680  0.00  0.00    +0.000 A 
ATOM     22  O   UNL     1       7.248   5.330  15.906  0.00  0.00    +0.000 OA
ATOM     23  C   UNL     1       7.058   4.894  14.633  0.00  0.00    +0.000 A 
ATOM     24  C   UNL     1       7.854   5.222  13.539  0.00  0.00    +0.000 A 
ATOM     25  C   UNL     1       7.482   4.670  12.308  0.00  0.00    +0.000 A 
ATOM     26  C   UNL     1       6.367   3.836  12.198  0.00  0.00    +0.000 A 
ATOM     27  C   UNL     1       5.586   3.525  13.321  0.00  0.00    +0.000 A 
ATOM     28  C   UNL     1       5.945   4.070  14.570  0.00  0.00    +0.000 A 
ENDBRANCH  17  21
ENDBRANCH   1  17
TORSDOF 3
ENDMDL
MODEL 2
REMARK VINA RESULT:      -8.0      2.882      8.352
REMARK  Name = 
REMARK  5 active torsions:
REMARK  status: ('A' for Active; 'I' for Inactive)
REMARK    1  A    between atoms: C_1  and  C_2
REMARK    2  A    between atoms: C_3  and  C_4
REMARK    3  A    between atoms: C_4  and  C_5
REMARK    4  A    between atoms: C_4  and  N_6
REMARK    5  A    between atoms: C_7  and  C_9
REMARK                            x       y       z     vdW  Elec       q    Type
REMARK                         _______ _______ _______ _____ _____    ______ ____
ROOT
ATOM      1  N   UNL     1       1.338   8.858  19.323  0.00  0.00    +0.000 N 
ATOM      2  C   UNL     1       2.227   8.647  18.304  0.00  0.00    +0.000 C 
ATOM      3  O   UNL     1       2.676   9.494  17.543  0.00  0.00    +0.000 OA
ATOM      4  H   UNL     1       1.123   8.072  19.930  0.00  0.00    +0.000 HD
ENDROOT
BRANCH   2   5
ATOM      5  C   UNL     1       2.619   7.186  18.111  0.00  0.00    +0.000 A 
ATOM      6  N   UNL     1       1.826   6.228  18.478  0.00  0.00    +0.000 NA
ATOM      7  C   UNL     1       2.272   4.912  18.250  0.00  0.00    +0.000 A 
ATOM      8  C   UNL     1       1.477   3.847  18.681  0.00  0.00    +0.000 A 
ATOM      9  C   UNL     1       1.885   2.525  18.472  0.00  0.00    +0.000 A 
ATOM     10  C   UNL     1       3.091   2.254  17.825  0.00  0.00    +0.000 A 
ATOM     11  C   UNL     1       3.897   3.306  17.390  0.00  0.00    +0.000 A 
ATOM     12  C   UNL     1       3.485   4.623  17.612  0.00  0.00    +0.000 A 
ATOM     13  C   UNL     1       4.324   5.759  17.191  0.00  0.00    +0.000 A 
ATOM     14  O   UNL     1       5.381   5.604  16.592  0.00  0.00    +0.000 OA
ATOM     15  N   UNL     1       3.835   6.998  17.507  0.00  0.00    +0.000 N 
ATOM     16  H   UNL     1       4.391   7.806  17.258  0.00  0.00    +0.000 HD
ENDBRANCH   2   5
BRANCH   1  17
ATOM     17  C   UNL     1       0.865  10.174  19.703  0.00  0.00    +0.000 C 
ATOM     18  C   UNL     1       0.670  10.263  21.215  0.00  0.00    +0.000 C 
BRANCH  17  21
ATOM     19  C   UNL     1      -1.786  12.153  20.331  0.00  0.00    +0.000 C 
ATOM     20  C   UNL     1      -1.522  11.234  19.197  0.00  0.00    +0.000 A 
ATOM     21  C   UNL     1      -0.416  10.426  18.969  0.00  0.00    +0.000 A 
ATOM     22  O   UNL     1      -0.567   9.745  17.790  0.00  0.00    +0.000 OA
ATOM     23  C   UNL     1      -1.767  10.099  17.264  0.00  0.00    +0.000 A 
ATOM     24  C   UNL     1      -2.299   9.624  16.069  0.00  0.00    +0.000 A 
ATOM     25  C   UNL     1      -3.554  10.122  15.701  0.00  0.00    +0.000 A 
ATOM     26  C   UNL     1      -4.226  11.048  16.502  0.00  0.00    +0.000 A 
ATOM     27  C   UNL     1      -3.663  11.507  17.702  0.00  0.00    +0.000 A 
ATOM     28  C   UNL     1      -2.400  11.016  18.090  0.00  0.00    +0.000 A 
ENDBRANCH  17  21
ENDBRANCH   1  17
TORSDOF 3
ENDMDL
MODEL 3
REMARK VINA RESULT:      -8.0      1.567      8.261
REMARK  Name = 
REMARK  5 active torsions:
REMARK  status: ('A' for Active; 'I' for Inactive)
REMARK    1  A    between atoms: C_1  and  C_2
REMARK    2  A    between atoms: C_3  and  C_4
REMARK    3  A    between atoms: C_4  and  C_5
REMARK    4  A    between atoms: C_4  and  N_6
REMARK    5  A    between atoms: C_7  and  C_9
REMARK                            x       y       z     vdW  Elec       q    Type
REMARK                         _______ _______ _______ _____ _____    ______ ____
ROOT
ATOM      1  N   UNL     1       3.392   5.502  18.896  0.00  0.00    +0.000 N 
ATOM      2  C   UNL     1       4.326   4.520  18.705  0.00  0.00    +0.000 C 
ATOM      3  O   UNL     1       4.582   3.601  19.471  0.00  0.00    +0.000 OA
ATOM      4  H   UNL     1       3.227   6.150  18.131  0.00  0.00    +0.000 HD
ENDROOT
BRANCH   2   5
ATOM      5  C   UNL     1       5.132   4.669  17.420  0.00  0.00    +0.000 A 
ATOM      6  N   UNL     1       4.827   3.991  16.357  0.00  0.00    +0.000 NA
ATOM      7  C   UNL     1       5.625   4.204  15.217  0.00  0.00    +0.000 A 
ATOM      8  C   UNL     1       5.369   3.455  14.066  0.00  0.00    +0.000 A 
ATOM      9  C   UNL     1       6.139   3.637  12.912  0.00  0.00    +0.000 A 
ATOM     10  C   UNL     1       7.171   4.577  12.896  0.00  0.00    +0.000 A 
ATOM     11  C   UNL     1       7.440   5.331  14.037  0.00  0.00    +0.000 A 
ATOM     12  C   UNL     1       6.672   5.135  15.187  0.00  0.00    +0.000 A 
ATOM     13  C   UNL     1       6.945   5.895  16.420  0.00  0.00    +0.000 A 
ATOM     14  O   UNL     1       7.814   6.757  16.476  0.00  0.00    +0.000 OA
ATOM     15  N   UNL     1       6.156   5.578  17.492  0.00  0.00    +0.000 N 
ATOM     16  H   UNL     1       6.326   6.059  18.366  0.00  0.00    +0.000 HD
ENDBRANCH   2   5
BRANCH   1  17
ATOM     17  C   UNL     1       2.492   5.530  20.032  0.00  0.00    +0.000 C 
ATOM     18  C   UNL     1       1.382   4.494  19.868  0.00  0.00    +0.000 C 
BRANCH  17  21
ATOM     19  C   UNL     1       2.484   8.164  17.933  0.00  0.00    +0.000 C 
ATOM     20  C   UNL     1       1.912   8.020  19.295  0.00  0.00    +0.000 A 
ATOM     21  C   UNL     1       1.936   6.917  20.138  0.00  0.00    +0.000 A 
ATOM     22  O   UNL     1       1.276   7.202  21.304  0.00  0.00    +0.000 OA
ATOM     23  C   UNL     1       0.837   8.485  21.221  0.00  0.00    +0.000 A 
ATOM     24  C   UNL     1       0.122   9.160  22.206  0.00  0.00    +0.000 A 
ATOM     25  C   UNL     1      -0.242  10.481  21.919  0.00  0.00    +0.000 A 
ATOM     26  C   UNL     1       0.102  11.077  20.704  0.00  0.00    +0.000 A 
ATOM     27  C   UNL     1       0.825  10.369  19.733  0.00  0.00    +0.000 A 
ATOM     28  C   UNL     1       1.201   9.038  20.003  0.00  0.00    +0.000 A 
ENDBRANCH  17  21
ENDBRANCH   1  17
TORSDOF 3
ENDMDL
MODEL 4
REMARK VINA RESULT:      -7.9      1.041      1.704
REMARK  Name = 
REMARK  5 active torsions:
REMARK  status: ('A' for Active; 'I' for Inactive)
REMARK    1  A    between atoms: C_1  and  C_2
REMARK    2  A    between atoms: C_3  and  C_4
REMARK    3  A    between atoms: C_4  and  C_5
REMARK    4  A    between atoms: C_4  and  N_6
REMARK    5  A    between atoms: C_7  and  C_9
REMARK                            x       y       z     vdW  Elec       q    Type
REMARK                         _______ _______ _______ _____ _____    ______ ____
ROOT
ATOM      1  N   UNL     1       3.992   5.542  18.347  0.00  0.00    +0.000 N 
ATOM      2  C   UNL     1       2.986   5.570  19.274  0.00  0.00    +0.000 C 
ATOM      3  O   UNL     1       2.575   4.624  19.931  0.00  0.00    +0.000 OA
ATOM      4  H   UNL     1       4.286   6.427  17.943  0.00  0.00    +0.000 HD
ENDROOT
BRANCH   2   5
ATOM      5  C   UNL     1       2.311   6.929  19.419  0.00  0.00    +0.000 A 
ATOM      6  N   UNL     1       1.741   7.277  20.531  0.00  0.00    +0.000 NA
ATOM      7  C   UNL     1       1.152   8.556  20.570  0.00  0.00    +0.000 A 
ATOM      8  C   UNL     1       0.477   8.951  21.727  0.00  0.00    +0.000 A 
ATOM      9  C   UNL     1      -0.120  10.214  21.806  0.00  0.00    +0.000 A 
ATOM     10  C   UNL     1      -0.043  11.098  20.729  0.00  0.00    +0.000 A 
ATOM     11  C   UNL     1       0.626  10.718  19.566  0.00  0.00    +0.000 A 
ATOM     12  C   UNL     1       1.211   9.450  19.493  0.00  0.00    +0.000 A 
ATOM     13  C   UNL     1       1.902   9.005  18.271  0.00  0.00    +0.000 A 
ATOM     14  O   UNL     1       2.037   9.732  17.294  0.00  0.00    +0.000 OA
ATOM     15  N   UNL     1       2.390   7.726  18.306  0.00  0.00    +0.000 N 
ATOM     16  H   UNL     1       2.852   7.371  17.478  0.00  0.00    +0.000 HD
ENDBRANCH   2   5
BRANCH   1  17
ATOM     17  C   UNL     1       4.790   4.362  18.079  0.00  0.00    +0.000 C 
ATOM     18  C   UNL     1       5.780   4.109  19.215  0.00  0.00    +0.000 C 
BRANCH  17  21
ATOM     19  C   UNL     1       7.268   6.433  17.124  0.00  0.00    +0.000 C 
ATOM     20  C   UNL     1       6.517   5.413  16.350  0.00  0.00    +0.000 A 
ATOM     21  C   UNL     1       5.495   4.575  16.775  0.00  0.00    +0.000 A 
ATOM     22  O   UNL     1       5.087   3.771  15.744  0.00  0.00    +0.000 OA
ATOM     23  C   UNL     1       5.833   4.093  14.655  0.00  0.00    +0.000 A 
ATOM     24  C   UNL     1       5.725   3.506  13.398  0.00  0.00    +0.000 A 
ATOM     25  C   UNL     1       6.594   3.981  12.410  0.00  0.00    +0.000 A 
ATOM     26  C   UNL     1       7.517   4.992  12.685  0.00  0.00    +0.000 A 
ATOM     27  C   UNL     1       7.599   5.565  13.963  0.00  0.00    +0.000 A 
ATOM     28  C   UNL     1       6.732   5.101  14.971  0.00  0.00    +0.000 A 
ENDBRANCH  17  21
ENDBRANCH   1  17
TORSDOF 3
ENDMDL
MODEL 5
REMARK VINA RESULT:      -7.8      2.722      8.654
REMARK  Name = 
REMARK  5 active torsions:
REMARK  status: ('A' for Active; 'I' for Inactive)
REMARK    1  A    between atoms: C_1  and  C_2
REMARK    2  A    between atoms: C_3  and  C_4
REMARK    3  A    between atoms: C_4  and  C_5
REMARK    4  A    between atoms: C_4  and  N_6
REMARK    5  A    between atoms: C_7  and  C_9
REMARK                            x       y       z     vdW  Elec       q    Type
REMARK                         _______ _______ _______ _____ _____    ______ ____
ROOT
ATOM      1  N   UNL     1       1.189   9.166  19.294  0.00  0.00    +0.000 N 
ATOM      2  C   UNL     1       2.131   9.210  18.301  0.00  0.00    +0.000 C 
ATOM      3  O   UNL     1       2.483  10.200  17.676  0.00  0.00    +0.000 OA
ATOM      4  H   UNL     1       1.064   8.286  19.786  0.00  0.00    +0.000 HD
ENDROOT
BRANCH   2   5
ATOM      5  C   UNL     1       2.725   7.851  17.947  0.00  0.00    +0.000 A 
ATOM      6  N   UNL     1       3.768   7.757  17.182  0.00  0.00    +0.000 NA
ATOM      7  C   UNL     1       4.248   6.460  16.919  0.00  0.00    +0.000 A 
ATOM      8  C   UNL     1       5.334   6.305  16.055  0.00  0.00    +0.000 A 
ATOM      9  C   UNL     1       5.842   5.033  15.769  0.00  0.00    +0.000 A 
ATOM     10  C   UNL     1       5.270   3.901  16.351  0.00  0.00    +0.000 A 
ATOM     11  C   UNL     1       4.184   4.037  17.214  0.00  0.00    +0.000 A 
ATOM     12  C   UNL     1       3.678   5.312  17.486  0.00  0.00    +0.000 A 
ATOM     13  C   UNL     1       2.515   5.492  18.372  0.00  0.00    +0.000 A 
ATOM     14  O   UNL     1       1.976   4.551  18.942  0.00  0.00    +0.000 OA
ATOM     15  N   UNL     1       2.085   6.783  18.520  0.00  0.00    +0.000 N 
ATOM     16  H   UNL     1       1.273   6.949  19.101  0.00  0.00    +0.000 HD
ENDBRANCH   2   5
BRANCH   1  17
ATOM     17  C   UNL     1       0.528  10.348  19.811  0.00  0.00    +0.000 C 
ATOM     18  C   UNL     1       0.180  10.171  21.288  0.00  0.00    +0.000 C 
BRANCH  17  21
ATOM     19  C   UNL     1      -2.154  12.348  20.201  0.00  0.00    +0.000 C 
ATOM     20  C   UNL     1      -1.815  11.397  19.113  0.00  0.00    +0.000 A 
ATOM     21  C   UNL     1      -0.698  10.582  18.983  0.00  0.00    +0.000 A 
ATOM     22  O   UNL     1      -0.770   9.869  17.816  0.00  0.00    +0.000 OA
ATOM     23  C   UNL     1      -1.930  10.211  17.199  0.00  0.00    +0.000 A 
ATOM     24  C   UNL     1      -2.380   9.704  15.983  0.00  0.00    +0.000 A 
ATOM     25  C   UNL     1      -3.604  10.195  15.516  0.00  0.00    +0.000 A 
ATOM     26  C   UNL     1      -4.326  11.143  16.243  0.00  0.00    +0.000 A 
ATOM     27  C   UNL     1      -3.846  11.634  17.466  0.00  0.00    +0.000 A 
ATOM     28  C   UNL     1      -2.615  11.152  17.953  0.00  0.00    +0.000 A 
ENDBRANCH  17  21
ENDBRANCH   1  17
TORSDOF 3
ENDMDL
MODEL 6
REMARK VINA RESULT:      -7.8      3.692      8.541
REMARK  Name = 
REMARK  5 active torsions:
REMARK  status: ('A' for Active; 'I' for Inactive)
REMARK    1  A    between atoms: C_1  and  C_2
REMARK    2  A    between atoms: C_3  and  C_4
REMARK    3  A    between atoms: C_4  and  C_5
REMARK    4  A    between atoms: C_4  and  N_6
REMARK    5  A    between atoms: C_7  and  C_9
REMARK                            x       y       z     vdW  Elec       q    Type
REMARK                         _______ _______ _______ _____ _____    ______ ____
ROOT
ATOM      1  N   UNL     1       1.165   8.815  19.564  0.00  0.00    +0.000 N 
ATOM      2  C   UNL     1       2.138   8.217  18.809  0.00  0.00    +0.000 C 
ATOM      3  O   UNL     1       2.878   8.768  18.006  0.00  0.00    +0.000 OA
ATOM      4  H   UNL     1       0.688   8.244  20.256  0.00  0.00    +0.000 HD
ENDROOT
BRANCH   2   5
ATOM      5  C   UNL     1       2.225   6.706  18.990  0.00  0.00    +0.000 A 
ATOM      6  N   UNL     1       2.392   5.919  17.972  0.00  0.00    +0.000 NA
ATOM      7  C   UNL     1       2.469   4.539  18.241  0.00  0.00    +0.000 A 
ATOM      8  C   UNL     1       2.592   3.650  17.171  0.00  0.00    +0.000 A 
ATOM      9  C   UNL     1       2.672   2.271  17.397  0.00  0.00    +0.000 A 
ATOM     10  C   UNL     1       2.636   1.768  18.698  0.00  0.00    +0.000 A 
ATOM     11  C   UNL     1       2.512   2.642  19.777  0.00  0.00    +0.000 A 
ATOM     12  C   UNL     1       2.423   4.017  19.541  0.00  0.00    +0.000 A 
ATOM     13  C   UNL     1       2.264   4.968  20.655  0.00  0.00    +0.000 A 
ATOM     14  O   UNL     1       2.253   4.607  21.825  0.00  0.00    +0.000 OA
ATOM     15  N   UNL     1       2.139   6.282  20.291  0.00  0.00    +0.000 N 
ATOM     16  H   UNL     1       2.003   6.967  21.024  0.00  0.00    +0.000 HD
ENDBRANCH   2   5
BRANCH   1  17
ATOM     17  C   UNL     1       0.938  10.247  19.573  0.00  0.00    +0.000 C 
ATOM     18  C   UNL     1       0.995  10.794  20.998  0.00  0.00    +0.000 C 
BRANCH  17  21
ATOM     19  C   UNL     1      -1.755  12.023  20.539  0.00  0.00    +0.000 C 
ATOM     20  C   UNL     1      -1.521  11.226  19.309  0.00  0.00    +0.000 A 
ATOM     21  C   UNL     1      -0.396  10.500  18.942  0.00  0.00    +0.000 A 
ATOM     22  O   UNL     1      -0.589   9.923  17.715  0.00  0.00    +0.000 OA
ATOM     23  C   UNL     1      -1.835  10.263  17.295  0.00  0.00    +0.000 A 
ATOM     24  C   UNL     1      -2.418   9.873  16.093  0.00  0.00    +0.000 A 
ATOM     25  C   UNL     1      -3.714  10.339  15.847  0.00  0.00    +0.000 A 
ATOM     26  C   UNL     1      -4.376  11.152  16.769  0.00  0.00    +0.000 A 
ATOM     27  C   UNL     1      -3.761  11.527  17.972  0.00  0.00    +0.000 A 
ATOM     28  C   UNL     1      -2.456  11.067  18.238  0.00  0.00    +0.000 A 
ENDBRANCH  17  21
ENDBRANCH   1  17
TORSDOF 3
ENDMDL
MODEL 7
REMARK VINA RESULT:      -7.8      2.504      4.104
REMARK  Name = 
REMARK  5 active torsions:
REMARK  status: ('A' for Active; 'I' for Inactive)
REMARK    1  A    between atoms: C_1  and  C_2
REMARK    2  A    between atoms: C_3  and  C_4
REMARK    3  A    between atoms: C_4  and  C_5
REMARK    4  A    between atoms: C_4  and  N_6
REMARK    5  A    between atoms: C_7  and  C_9
REMARK                            x       y       z     vdW  Elec       q    Type
REMARK                         _______ _______ _______ _____ _____    ______ ____
ROOT
ATOM      1  N   UNL     1       1.899   5.992  20.521  0.00  0.00    +0.000 N 
ATOM      2  C   UNL     1       1.905   6.963  19.555  0.00  0.00    +0.000 C 
ATOM      3  O   UNL     1       2.241   6.825  18.387  0.00  0.00    +0.000 OA
ATOM      4  H   UNL     1       1.509   6.233  21.428  0.00  0.00    +0.000 HD
ENDROOT
BRANCH   2   5
ATOM      5  C   UNL     1       1.496   8.343  20.057  0.00  0.00    +0.000 A 
ATOM      6  N   UNL     1       1.230   9.304  19.228  0.00  0.00    +0.000 NA
ATOM      7  C   UNL     1       0.852  10.540  19.787  0.00  0.00    +0.000 A 
ATOM      8  C   UNL     1       0.612  11.620  18.935  0.00  0.00    +0.000 A 
ATOM      9  C   UNL     1       0.233  12.864  19.451  0.00  0.00    +0.000 A 
ATOM     10  C   UNL     1       0.086  13.039  20.828  0.00  0.00    +0.000 A 
ATOM     11  C   UNL     1       0.324  11.971  21.692  0.00  0.00    +0.000 A 
ATOM     12  C   UNL     1       0.711  10.735  21.167  0.00  0.00    +0.000 A 
ATOM     13  C   UNL     1       0.997   9.593  22.052  0.00  0.00    +0.000 A 
ATOM     14  O   UNL     1       0.863   9.659  23.268  0.00  0.00    +0.000 OA
ATOM     15  N   UNL     1       1.414   8.452  21.421  0.00  0.00    +0.000 N 
ATOM     16  H   UNL     1       1.644   7.649  21.994  0.00  0.00    +0.000 HD
ENDBRANCH   2   5
BRANCH   1  17
ATOM     17  C   UNL     1       2.217   4.604  20.251  0.00  0.00    +0.000 C 
ATOM     18  C   UNL     1       2.386   3.825  21.554  0.00  0.00    +0.000 C 
BRANCH  17  21
ATOM     19  C   UNL     1       2.922   3.382  17.193  0.00  0.00    +0.000 C 
ATOM     20  C   UNL     1       3.790   4.086  18.170  0.00  0.00    +0.000 A 
ATOM     21  C   UNL     1       3.468   4.575  19.429  0.00  0.00    +0.000 A 
ATOM     22  O   UNL     1       4.562   5.173  19.995  0.00  0.00    +0.000 OA
ATOM     23  C   UNL     1       5.590   5.061  19.115  0.00  0.00    +0.000 A 
ATOM     24  C   UNL     1       6.882   5.538  19.314  0.00  0.00    +0.000 A 
ATOM     25  C   UNL     1       7.795   5.325  18.275  0.00  0.00    +0.000 A 
ATOM     26  C   UNL     1       7.415   4.664  17.105  0.00  0.00    +0.000 A 
ATOM     27  C   UNL     1       6.105   4.194  16.935  0.00  0.00    +0.000 A 
ATOM     28  C   UNL     1       5.171   4.399  17.970  0.00  0.00    +0.000 A 
ENDBRANCH  17  21
ENDBRANCH   1  17
TORSDOF 3
ENDMDL
MODEL 8
REMARK VINA RESULT:      -7.8      3.335      8.351
REMARK  Name = 
REMARK  5 active torsions:
REMARK  status: ('A' for Active; 'I' for Inactive)
REMARK    1  A    between atoms: C_1  and  C_2
REMARK    2  A    between atoms: C_3  and  C_4
REMARK    3  A    between atoms: C_4  and  C_5
REMARK    4  A    between atoms: C_4  and  N_6
REMARK    5  A    between atoms: C_7  and  C_9
REMARK                            x       y       z     vdW  Elec       q    Type
REMARK                         _______ _______ _______ _____ _____    ______ ____
ROOT
ATOM      1  N   UNL     1       1.244   9.154  19.463  0.00  0.00    +0.000 N 
ATOM      2  C   UNL     1       2.112   8.630  18.544  0.00  0.00    +0.000 C 
ATOM      3  O   UNL     1       2.643   9.231  17.619  0.00  0.00    +0.000 OA
ATOM      4  H   UNL     1       0.952   8.555  20.230  0.00  0.00    +0.000 HD
ENDROOT
BRANCH   2   5
ATOM      5  C   UNL     1       2.363   7.135  18.705  0.00  0.00    +0.000 A 
ATOM      6  N   UNL     1       1.767   6.454  19.634  0.00  0.00    +0.000 NA
ATOM      7  C   UNL     1       2.056   5.078  19.698  0.00  0.00    +0.000 A 
ATOM      8  C   UNL     1       1.482   4.315  20.717  0.00  0.00    +0.000 A 
ATOM      9  C   UNL     1       1.744   2.943  20.814  0.00  0.00    +0.000 A 
ATOM     10  C   UNL     1       2.579   2.320  19.886  0.00  0.00    +0.000 A 
ATOM     11  C   UNL     1       3.161   3.067  18.863  0.00  0.00    +0.000 A 
ATOM     12  C   UNL     1       2.901   4.438  18.781  0.00  0.00    +0.000 A 
ATOM     13  C   UNL     1       3.520   5.264  17.730  0.00  0.00    +0.000 A 
ATOM     14  O   UNL     1       4.241   4.785  16.863  0.00  0.00    +0.000 OA
ATOM     15  N   UNL     1       3.226   6.600  17.785  0.00  0.00    +0.000 N 
ATOM     16  H   UNL     1       3.650   7.208  17.095  0.00  0.00    +0.000 HD
ENDBRANCH   2   5
BRANCH   1  17
ATOM     17  C   UNL     1       0.898  10.561  19.514  0.00  0.00    +0.000 C 
ATOM     18  C   UNL     1       0.903  11.067  20.956  0.00  0.00    +0.000 C 
BRANCH  17  21
ATOM     19  C   UNL     1      -1.885  12.217  20.438  0.00  0.00    +0.000 C 
ATOM     20  C   UNL     1      -1.612  11.396  19.232  0.00  0.00    +0.000 A 
ATOM     21  C   UNL     1      -0.450  10.721  18.882  0.00  0.00    +0.000 A 
ATOM     22  O   UNL     1      -0.616  10.095  17.675  0.00  0.00    +0.000 OA
ATOM     23  C   UNL     1      -1.880  10.354  17.251  0.00  0.00    +0.000 A 
ATOM     24  C   UNL     1      -2.445   9.894  16.065  0.00  0.00    +0.000 A 
ATOM     25  C   UNL     1      -3.766  10.281  15.811  0.00  0.00    +0.000 A 
ATOM     26  C   UNL     1      -4.468  11.086  16.711  0.00  0.00    +0.000 A 
ATOM     27  C   UNL     1      -3.870  11.532  17.899  0.00  0.00    +0.000 A 
ATOM     28  C   UNL     1      -2.541  11.152  18.172  0.00  0.00    +0.000 A 
ENDBRANCH  17  21
ENDBRANCH   1  17
TORSDOF 3
ENDMDL
MODEL 9
REMARK VINA RESULT:      -7.7      1.143      1.859
REMARK  Name = 
REMARK  5 active torsions:
REMARK  status: ('A' for Active; 'I' for Inactive)
REMARK    1  A    between atoms: C_1  and  C_2
REMARK    2  A    between atoms: C_3  and  C_4
REMARK    3  A    between atoms: C_4  and  C_5
REMARK    4  A    between atoms: C_4  and  N_6
REMARK    5  A    between atoms: C_7  and  C_9
REMARK                            x       y       z     vdW  Elec       q    Type
REMARK                         _______ _______ _______ _____ _____    ______ ____
ROOT
ATOM      1  N   UNL     1       5.245   6.006  18.427  0.00  0.00    +0.000 N 
ATOM      2  C   UNL     1       4.089   5.629  19.056  0.00  0.00    +0.000 C 
ATOM      3  O   UNL     1       3.784   4.495  19.400  0.00  0.00    +0.000 OA
ATOM      4  H   UNL     1       5.400   6.999  18.282  0.00  0.00    +0.000 HD
ENDROOT
BRANCH   2   5
ATOM      5  C   UNL     1       3.098   6.767  19.272  0.00  0.00    +0.000 A 
ATOM      6  N   UNL     1       2.897   7.661  18.354  0.00  0.00    +0.000 NA
ATOM      7  C   UNL     1       1.956   8.668  18.644  0.00  0.00    +0.000 A 
ATOM      8  C   UNL     1       1.747   9.685  17.709  0.00  0.00    +0.000 A 
ATOM      9  C   UNL     1       0.821  10.703  17.959  0.00  0.00    +0.000 A 
ATOM     10  C   UNL     1       0.088  10.711  19.147  0.00  0.00    +0.000 A 
ATOM     11  C   UNL     1       0.285   9.705  20.091  0.00  0.00    +0.000 A 
ATOM     12  C   UNL     1       1.220   8.697  19.836  0.00  0.00    +0.000 A 
ATOM     13  C   UNL     1       1.475   7.633  20.823  0.00  0.00    +0.000 A 
ATOM     14  O   UNL     1       0.852   7.556  21.875  0.00  0.00    +0.000 OA
ATOM     15  N   UNL     1       2.447   6.734  20.478  0.00  0.00    +0.000 N 
ATOM     16  H   UNL     1       2.671   6.000  21.138  0.00  0.00    +0.000 HD
ENDBRANCH   2   5
BRANCH   1  17
ATOM     17  C   UNL     1       6.336   5.090  18.159  0.00  0.00    +0.000 C 
ATOM     18  C   UNL     1       7.676   5.719  18.537  0.00  0.00    +0.000 C 
BRANCH  17  21
ATOM     19  C   UNL     1       4.246   3.183  16.332  0.00  0.00    +0.000 C 
ATOM     20  C   UNL     1       5.442   3.961  15.922  0.00  0.00    +0.000 A 
ATOM     21  C   UNL     1       6.287   4.737  16.704  0.00  0.00    +0.000 A 
ATOM     22  O   UNL     1       7.263   5.300  15.926  0.00  0.00    +0.000 OA
ATOM     23  C   UNL     1       7.058   4.882  14.649  0.00  0.00    +0.000 A 
ATOM     24  C   UNL     1       7.839   5.228  13.550  0.00  0.00    +0.000 A 
ATOM     25  C   UNL     1       7.453   4.693  12.316  0.00  0.00    +0.000 A 
ATOM     26  C   UNL     1       6.340   3.856  12.209  0.00  0.00    +0.000 A 
ATOM     27  C   UNL     1       5.575   3.525  13.337  0.00  0.00    +0.000 A 
ATOM     28  C   UNL     1       5.948   4.054  14.588  0.00  0.00    +0.000 A 
ENDBRANCH  17  21
ENDBRANCH   1  17
TORSDOF 3
ENDMDL
