MODEL 1
REMARK VINA RESULT:      -7.5      0.000      0.000
REMARK  Name = 
REMARK  7 active torsions:
REMARK  status: ('A' for Active; 'I' for Inactive)
REMARK    1  A    between atoms: C_1  and  C_2
REMARK    2  A    between atoms: C_6  and  C_7
REMARK    3  A    between atoms: N_16  and  C_17
REMARK    4  A    between atoms: C_17  and  C_18
REMARK    5  A    between atoms: C_17  and  C_19
REMARK    6  A    between atoms: C_20  and  N_21
REMARK    7  A    between atoms: C_22  and  C_24
REMARK                            x       y       z     vdW  Elec       q    Type
REMARK                         _______ _______ _______ _____ _____    ______ ____
ROOT
ATOM      1  C   UNL     1       1.729   3.976  21.452  0.00  0.00    +0.000 C 
ATOM      2  C   UNL     1       2.188   4.966  20.415  0.00  0.00    +0.000 A 
ATOM      3  C   UNL     1       1.761   6.293  20.583  0.00  0.00    +0.000 A 
ATOM      4  C   UNL     1       2.247   7.298  19.770  0.00  0.00    +0.000 A 
ATOM      5  C   UNL     1       3.157   6.990  18.760  0.00  0.00    +0.000 A 
ATOM      6  C   UNL     1       3.562   5.677  18.487  0.00  0.00    +0.000 A 
ATOM      7  C   UNL     1       3.080   4.652  19.354  0.00  0.00    +0.000 A 
ENDROOT
BRANCH   6   8
ATOM      8  C   UNL     1       4.469   5.358  17.339  0.00  0.00    +0.000 A 
ATOM      9  N   UNL     1       4.050   4.683  16.274  0.00  0.00    +0.000 NA
ATOM     10  C   UNL     1       5.109   4.572  15.417  0.00  0.00    +0.000 A 
ATOM     11  C   UNL     1       5.174   3.928  14.174  0.00  0.00    +0.000 A 
ATOM     12  C   UNL     1       6.374   3.961  13.473  0.00  0.00    +0.000 A 
ATOM     13  F   UNL     1       6.454   3.357  12.279  0.00  0.00    +0.000 F 
ATOM     14  C   UNL     1       7.494   4.607  13.978  0.00  0.00    +0.000 A 
ATOM     15  C   UNL     1       7.449   5.237  15.227  0.00  0.00    +0.000 A 
ATOM     16  C   UNL     1       6.234   5.218  15.933  0.00  0.00    +0.000 A 
ATOM     17  N   UNL     1       5.810   5.733  17.151  0.00  0.00    +0.000 N 
BRANCH  17  18
ATOM     18  C   UNL     1       6.630   6.514  18.081  0.00  0.00    +0.000 C 
ATOM     19  C   UNL     1       7.592   5.610  18.861  0.00  0.00    +0.000 C 
ATOM     20  C   UNL     1       7.405   7.700  17.495  0.00  0.00    +0.000 C 
ENDBRANCH  17  18
ENDBRANCH   6   8
BRANCH   7  21
ATOM     21  N   UNL     1       3.619   3.350  19.204  0.00  0.00    +0.000 N 
ATOM     22  C   UNL     1       2.923   2.268  18.684  0.00  0.00    +0.000 C 
ATOM     23  O   UNL     1       1.734   2.276  18.370  0.00  0.00    +0.000 OA
ATOM     24  H   UNL     1       4.618   3.339  18.961  0.00  0.00    +0.000 HD
BRANCH  22  25
ATOM     25  C   UNL     1       3.805   1.035  18.468  0.00  0.00    +0.000 C 
ATOM     26  F   UNL     1       4.504   1.081  17.295  0.00  0.00    +0.000 F 
ATOM     27  F   UNL     1       4.734   0.880  19.452  0.00  0.00    +0.000 F 
ENDBRANCH  22  25
ENDBRANCH   7  21
TORSDOF 4
ENDMDL
MODEL 2
REMARK VINA RESULT:      -7.0      3.137      6.801
REMARK  Name = 
REMARK  7 active torsions:
REMARK  status: ('A' for Active; 'I' for Inactive)
REMARK    1  A    between atoms: C_1  and  C_2
REMARK    2  A    between atoms: C_6  and  C_7
REMARK    3  A    between atoms: N_16  and  C_17
REMARK    4  A    between atoms: C_17  and  C_18
REMARK    5  A    between atoms: C_17  and  C_19
REMARK    6  A    between atoms: C_20  and  N_21
REMARK    7  A    between atoms: C_22  and  C_24
REMARK                            x       y       z     vdW  Elec       q    Type
REMARK                         _______ _______ _______ _____ _____    ______ ____
ROOT
ATOM      1  C   UNL     1       8.156   5.753  13.978  0.00  0.00    +0.000 C 
ATOM      2  C   UNL     1       6.863   5.107  14.397  0.00  0.00    +0.000 A 
ATOM      3  C   UNL     1       6.438   4.004  13.640  0.00  0.00    +0.000 A 
ATOM      4  C   UNL     1       5.345   3.257  14.034  0.00  0.00    +0.000 A 
ATOM      5  C   UNL     1       4.644   3.613  15.186  0.00  0.00    +0.000 A 
ATOM      6  C   UNL     1       4.966   4.748  15.941  0.00  0.00    +0.000 A 
ATOM      7  C   UNL     1       6.116   5.492  15.545  0.00  0.00    +0.000 A 
ENDROOT
BRANCH   6   8
ATOM      8  C   UNL     1       4.143   5.163  17.122  0.00  0.00    +0.000 A 
ATOM      9  N   UNL     1       3.782   6.426  17.323  0.00  0.00    +0.000 NA
ATOM     10  C   UNL     1       3.039   6.462  18.470  0.00  0.00    +0.000 A 
ATOM     11  C   UNL     1       2.455   7.564  19.107  0.00  0.00    +0.000 A 
ATOM     12  C   UNL     1       1.727   7.347  20.271  0.00  0.00    +0.000 A 
ATOM     13  F   UNL     1       1.154   8.388  20.892  0.00  0.00    +0.000 F 
ATOM     14  C   UNL     1       1.576   6.076  20.808  0.00  0.00    +0.000 A 
ATOM     15  C   UNL     1       2.171   4.969  20.192  0.00  0.00    +0.000 A 
ATOM     16  C   UNL     1       2.896   5.182  19.008  0.00  0.00    +0.000 A 
ATOM     17  N   UNL     1       3.588   4.357  18.131  0.00  0.00    +0.000 N 
BRANCH  17  18
ATOM     18  C   UNL     1       3.727   2.903  18.252  0.00  0.00    +0.000 C 
ATOM     19  C   UNL     1       4.415   2.523  19.569  0.00  0.00    +0.000 C 
ATOM     20  C   UNL     1       2.451   2.069  18.083  0.00  0.00    +0.000 C 
ENDBRANCH  17  18
ENDBRANCH   6   8
BRANCH   7  21
ATOM     21  N   UNL     1       6.559   6.533  16.398  0.00  0.00    +0.000 N 
ATOM     22  C   UNL     1       7.425   6.357  17.467  0.00  0.00    +0.000 C 
ATOM     23  O   UNL     1       7.850   5.273  17.863  0.00  0.00    +0.000 OA
ATOM     24  H   UNL     1       6.688   7.435  15.920  0.00  0.00    +0.000 HD
BRANCH  22  25
ATOM     25  C   UNL     1       7.875   7.678  18.098  0.00  0.00    +0.000 C 
ATOM     26  F   UNL     1       8.889   7.516  19.000  0.00  0.00    +0.000 F 
ATOM     27  F   UNL     1       8.333   8.568  17.175  0.00  0.00    +0.000 F 
ENDBRANCH  22  25
ENDBRANCH   7  21
TORSDOF 4
ENDMDL
MODEL 3
REMARK VINA RESULT:      -6.4      7.133      9.726
REMARK  Name = 
REMARK  7 active torsions:
REMARK  status: ('A' for Active; 'I' for Inactive)
REMARK    1  A    between atoms: C_1  and  C_2
REMARK    2  A    between atoms: C_6  and  C_7
REMARK    3  A    between atoms: N_16  and  C_17
REMARK    4  A    between atoms: C_17  and  C_18
REMARK    5  A    between atoms: C_17  and  C_19
REMARK    6  A    between atoms: C_20  and  N_21
REMARK    7  A    between atoms: C_22  and  C_24
REMARK                            x       y       z     vdW  Elec       q    Type
REMARK                         _______ _______ _______ _____ _____    ______ ____
ROOT
ATOM      1  C   UNL     1       2.032   6.309  20.430  0.00  0.00    +0.000 C 
ATOM      2  C   UNL     1       1.964   7.568  19.607  0.00  0.00    +0.000 A 
ATOM      3  C   UNL     1       2.636   7.549  18.376  0.00  0.00    +0.000 A 
ATOM      4  C   UNL     1       2.510   8.599  17.487  0.00  0.00    +0.000 A 
ATOM      5  C   UNL     1       1.723   9.699  17.825  0.00  0.00    +0.000 A 
ATOM      6  C   UNL     1       1.091   9.817  19.069  0.00  0.00    +0.000 A 
ATOM      7  C   UNL     1       1.200   8.712  19.965  0.00  0.00    +0.000 A 
ENDROOT
BRANCH   6   8
ATOM      8  C   UNL     1       0.324  11.048  19.446  0.00  0.00    +0.000 A 
ATOM      9  N   UNL     1      -0.972  11.012  19.737  0.00  0.00    +0.000 NA
ATOM     10  C   UNL     1      -1.358  12.286  20.044  0.00  0.00    +0.000 A 
ATOM     11  C   UNL     1      -2.629  12.762  20.393  0.00  0.00    +0.000 A 
ATOM     12  C   UNL     1      -2.775  14.115  20.678  0.00  0.00    +0.000 A 
ATOM     13  F   UNL     1      -3.981  14.589  21.020  0.00  0.00    +0.000 F 
ATOM     14  C   UNL     1      -1.699  14.990  20.617  0.00  0.00    +0.000 A 
ATOM     15  C   UNL     1      -0.429  14.532  20.251  0.00  0.00    +0.000 A 
ATOM     16  C   UNL     1      -0.274  13.162  19.976  0.00  0.00    +0.000 A 
ATOM     17  N   UNL     1       0.799  12.360  19.612  0.00  0.00    +0.000 N 
BRANCH  17  18
ATOM     18  C   UNL     1       2.179  12.813  19.418  0.00  0.00    +0.000 C 
ATOM     19  C   UNL     1       2.329  13.574  18.095  0.00  0.00    +0.000 C 
ATOM     20  C   UNL     1       2.806  13.632  20.552  0.00  0.00    +0.000 C 
ENDBRANCH  17  18
ENDBRANCH   6   8
BRANCH   7  21
ATOM     21  N   UNL     1       0.422   8.740  21.149  0.00  0.00    +0.000 N 
ATOM     22  C   UNL     1       0.868   9.229  22.369  0.00  0.00    +0.000 C 
ATOM     23  O   UNL     1       2.011   9.619  22.601  0.00  0.00    +0.000 OA
ATOM     24  H   UNL     1      -0.577   8.918  20.986  0.00  0.00    +0.000 HD
BRANCH  22  25
ATOM     25  C   UNL     1      -0.239   9.305  23.425  0.00  0.00    +0.000 C 
ATOM     26  F   UNL     1       0.241   9.232  24.702  0.00  0.00    +0.000 F 
ATOM     27  F   UNL     1      -0.946  10.467  23.356  0.00  0.00    +0.000 F 
ENDBRANCH  22  25
ENDBRANCH   7  21
TORSDOF 4
ENDMDL
MODEL 4
REMARK VINA RESULT:      -6.4      0.921      1.110
REMARK  Name = 
REMARK  7 active torsions:
REMARK  status: ('A' for Active; 'I' for Inactive)
REMARK    1  A    between atoms: C_1  and  C_2
REMARK    2  A    between atoms: C_6  and  C_7
REMARK    3  A    between atoms: N_16  and  C_17
REMARK    4  A    between atoms: C_17  and  C_18
REMARK    5  A    between atoms: C_17  and  C_19
REMARK    6  A    between atoms: C_20  and  N_21
REMARK    7  A    between atoms: C_22  and  C_24
REMARK                            x       y       z     vdW  Elec       q    Type
REMARK                         _______ _______ _______ _____ _____    ______ ____
ROOT
ATOM      1  C   UNL     1       1.414   5.562  21.026  0.00  0.00    +0.000 C 
ATOM      2  C   UNL     1       2.003   6.321  19.866  0.00  0.00    +0.000 A 
ATOM      3  C   UNL     1       1.656   7.677  19.764  0.00  0.00    +0.000 A 
ATOM      4  C   UNL     1       2.259   8.490  18.824  0.00  0.00    +0.000 A 
ATOM      5  C   UNL     1       3.207   7.954  17.954  0.00  0.00    +0.000 A 
ATOM      6  C   UNL     1       3.539   6.593  17.949  0.00  0.00    +0.000 A 
ATOM      7  C   UNL     1       2.937   5.771  18.947  0.00  0.00    +0.000 A 
ENDROOT
BRANCH   6   8
ATOM      8  C   UNL     1       4.494   6.022  16.945  0.00  0.00    +0.000 A 
ATOM      9  N   UNL     1       4.077   5.357  15.873  0.00  0.00    +0.000 NA
ATOM     10  C   UNL     1       5.185   4.983  15.167  0.00  0.00    +0.000 A 
ATOM     11  C   UNL     1       5.266   4.244  13.979  0.00  0.00    +0.000 A 
ATOM     12  C   UNL     1       6.522   3.997  13.437  0.00  0.00    +0.000 A 
ATOM     13  F   UNL     1       6.620   3.298  12.297  0.00  0.00    +0.000 F 
ATOM     14  C   UNL     1       7.680   4.458  14.047  0.00  0.00    +0.000 A 
ATOM     15  C   UNL     1       7.616   5.180  15.244  0.00  0.00    +0.000 A 
ATOM     16  C   UNL     1       6.347   5.444  15.788  0.00  0.00    +0.000 A 
ATOM     17  N   UNL     1       5.894   6.122  16.912  0.00  0.00    +0.000 N 
BRANCH  17  18
ATOM     18  C   UNL     1       6.738   6.804  17.897  0.00  0.00    +0.000 C 
ATOM     19  C   UNL     1       7.655   5.811  18.621  0.00  0.00    +0.000 C 
ATOM     20  C   UNL     1       7.567   7.993  17.396  0.00  0.00    +0.000 C 
ENDBRANCH  17  18
ENDBRANCH   6   8
BRANCH   7  21
ATOM     21  N   UNL     1       3.395   4.435  19.070  0.00  0.00    +0.000 N 
ATOM     22  C   UNL     1       2.852   3.354  18.392  0.00  0.00    +0.000 C 
ATOM     23  O   UNL     1       1.858   3.397  17.669  0.00  0.00    +0.000 OA
ATOM     24  H   UNL     1       4.411   4.356  19.205  0.00  0.00    +0.000 HD
BRANCH  22  25
ATOM     25  C   UNL     1       3.659   2.064  18.574  0.00  0.00    +0.000 C 
ATOM     26  F   UNL     1       4.565   2.146  19.593  0.00  0.00    +0.000 F 
ATOM     27  F   UNL     1       2.870   0.992  18.859  0.00  0.00    +0.000 F 
ENDBRANCH  22  25
ENDBRANCH   7  21
TORSDOF 4
ENDMDL
MODEL 5
REMARK VINA RESULT:      -6.4      8.479     10.624
REMARK  Name = 
REMARK  7 active torsions:
REMARK  status: ('A' for Active; 'I' for Inactive)
REMARK    1  A    between atoms: C_1  and  C_2
REMARK    2  A    between atoms: C_6  and  C_7
REMARK    3  A    between atoms: N_16  and  C_17
REMARK    4  A    between atoms: C_17  and  C_18
REMARK    5  A    between atoms: C_17  and  C_19
REMARK    6  A    between atoms: C_20  and  N_21
REMARK    7  A    between atoms: C_22  and  C_24
REMARK                            x       y       z     vdW  Elec       q    Type
REMARK                         _______ _______ _______ _____ _____    ______ ____
ROOT
ATOM      1  C   UNL     1      -6.393  11.529  18.436  0.00  0.00    +0.000 C 
ATOM      2  C   UNL     1      -5.318  12.041  19.357  0.00  0.00    +0.000 A 
ATOM      3  C   UNL     1      -5.683  12.243  20.697  0.00  0.00    +0.000 A 
ATOM      4  C   UNL     1      -4.734  12.568  21.646  0.00  0.00    +0.000 A 
ATOM      5  C   UNL     1      -3.401  12.718  21.266  0.00  0.00    +0.000 A 
ATOM      6  C   UNL     1      -2.982  12.611  19.934  0.00  0.00    +0.000 A 
ATOM      7  C   UNL     1      -3.965  12.240  18.968  0.00  0.00    +0.000 A 
ENDROOT
BRANCH   6   8
ATOM      8  C   UNL     1      -1.561  12.865  19.535  0.00  0.00    +0.000 A 
ATOM      9  N   UNL     1      -1.086  14.094  19.359  0.00  0.00    +0.000 NA
ATOM     10  C   UNL     1       0.231  13.978  19.013  0.00  0.00    +0.000 A 
ATOM     11  C   UNL     1       1.154  14.986  18.703  0.00  0.00    +0.000 A 
ATOM     12  C   UNL     1       2.457  14.618  18.389  0.00  0.00    +0.000 A 
ATOM     13  F   UNL     1       3.356  15.568  18.096  0.00  0.00    +0.000 F 
ATOM     14  C   UNL     1       2.852  13.287  18.372  0.00  0.00    +0.000 A 
ATOM     15  C   UNL     1       1.937  12.269  18.661  0.00  0.00    +0.000 A 
ATOM     16  C   UNL     1       0.621  12.638  18.992  0.00  0.00    +0.000 A 
ATOM     17  N   UNL     1      -0.524  11.937  19.345  0.00  0.00    +0.000 N 
BRANCH  17  18
ATOM     18  C   UNL     1      -0.630  10.481  19.476  0.00  0.00    +0.000 C 
ATOM     19  C   UNL     1      -0.063   9.773  18.240  0.00  0.00    +0.000 C 
ATOM     20  C   UNL     1      -0.035   9.854  20.743  0.00  0.00    +0.000 C 
ENDBRANCH  17  18
ENDBRANCH   6   8
BRANCH   7  21
ATOM     21  N   UNL     1      -3.526  11.952  17.652  0.00  0.00    +0.000 N 
ATOM     22  C   UNL     1      -3.395  10.674  17.130  0.00  0.00    +0.000 C 
ATOM     23  O   UNL     1      -3.558   9.631  17.762  0.00  0.00    +0.000 OA
ATOM     24  H   UNL     1      -3.830  12.643  16.953  0.00  0.00    +0.000 HD
BRANCH  22  25
ATOM     25  C   UNL     1      -3.080  10.667  15.631  0.00  0.00    +0.000 C 
ATOM     26  F   UNL     1      -2.166   9.712  15.286  0.00  0.00    +0.000 F 
ATOM     27  F   UNL     1      -4.181  10.425  14.868  0.00  0.00    +0.000 F 
ENDBRANCH  22  25
ENDBRANCH   7  21
TORSDOF 4
ENDMDL
MODEL 6
REMARK VINA RESULT:      -6.4      3.709      6.994
REMARK  Name = 
REMARK  7 active torsions:
REMARK  status: ('A' for Active; 'I' for Inactive)
REMARK    1  A    between atoms: C_1  and  C_2
REMARK    2  A    between atoms: C_6  and  C_7
REMARK    3  A    between atoms: N_16  and  C_17
REMARK    4  A    between atoms: C_17  and  C_18
REMARK    5  A    between atoms: C_17  and  C_19
REMARK    6  A    between atoms: C_20  and  N_21
REMARK    7  A    between atoms: C_22  and  C_24
REMARK                            x       y       z     vdW  Elec       q    Type
REMARK                         _______ _______ _______ _____ _____    ______ ____
ROOT
ATOM      1  C   UNL     1       3.825   3.236  17.146  0.00  0.00    +0.000 C 
ATOM      2  C   UNL     1       3.905   4.726  17.345  0.00  0.00    +0.000 A 
ATOM      3  C   UNL     1       4.800   5.422  16.518  0.00  0.00    +0.000 A 
ATOM      4  C   UNL     1       4.837   6.803  16.524  0.00  0.00    +0.000 A 
ATOM      5  C   UNL     1       3.991   7.513  17.375  0.00  0.00    +0.000 A 
ATOM      6  C   UNL     1       3.132   6.879  18.282  0.00  0.00    +0.000 A 
ATOM      7  C   UNL     1       3.077   5.454  18.242  0.00  0.00    +0.000 A 
ENDROOT
BRANCH   6   8
ATOM      8  C   UNL     1       2.298   7.661  19.250  0.00  0.00    +0.000 A 
ATOM      9  N   UNL     1       2.206   7.327  20.533  0.00  0.00    +0.000 NA
ATOM     10  C   UNL     1       1.385   8.239  21.135  0.00  0.00    +0.000 A 
ATOM     11  C   UNL     1       0.963   8.299  22.470  0.00  0.00    +0.000 A 
ATOM     12  C   UNL     1       0.127   9.341  22.854  0.00  0.00    +0.000 A 
ATOM     13  F   UNL     1      -0.283   9.420  24.128  0.00  0.00    +0.000 F 
ATOM     14  C   UNL     1      -0.296  10.305  21.949  0.00  0.00    +0.000 A 
ATOM     15  C   UNL     1       0.102  10.246  20.609  0.00  0.00    +0.000 A 
ATOM     16  C   UNL     1       0.958   9.202  20.219  0.00  0.00    +0.000 A 
ATOM     17  N   UNL     1       1.562   8.835  19.024  0.00  0.00    +0.000 N 
BRANCH  17  18
ATOM     18  C   UNL     1       1.433   9.544  17.747  0.00  0.00    +0.000 C 
ATOM     19  C   UNL     1      -0.038   9.668  17.331  0.00  0.00    +0.000 C 
ATOM     20  C   UNL     1       2.109  10.917  17.645  0.00  0.00    +0.000 C 
ENDBRANCH  17  18
ENDBRANCH   6   8
BRANCH   7  21
ATOM     21  N   UNL     1       2.088   4.807  19.024  0.00  0.00    +0.000 N 
ATOM     22  C   UNL     1       2.358   3.988  20.111  0.00  0.00    +0.000 C 
ATOM     23  O   UNL     1       3.482   3.651  20.482  0.00  0.00    +0.000 OA
ATOM     24  H   UNL     1       1.225   5.355  19.138  0.00  0.00    +0.000 HD
BRANCH  22  25
ATOM     25  C   UNL     1       1.099   3.574  20.878  0.00  0.00    +0.000 C 
ATOM     26  F   UNL     1       0.181   2.942  20.088  0.00  0.00    +0.000 F 
ATOM     27  F   UNL     1       1.370   2.714  21.899  0.00  0.00    +0.000 F 
ENDBRANCH  22  25
ENDBRANCH   7  21
TORSDOF 4
ENDMDL
MODEL 7
REMARK VINA RESULT:      -6.4      3.799      6.817
REMARK  Name = 
REMARK  7 active torsions:
REMARK  status: ('A' for Active; 'I' for Inactive)
REMARK    1  A    between atoms: C_1  and  C_2
REMARK    2  A    between atoms: C_6  and  C_7
REMARK    3  A    between atoms: N_16  and  C_17
REMARK    4  A    between atoms: C_17  and  C_18
REMARK    5  A    between atoms: C_17  and  C_19
REMARK    6  A    between atoms: C_20  and  N_21
REMARK    7  A    between atoms: C_22  and  C_24
REMARK                            x       y       z     vdW  Elec       q    Type
REMARK                         _______ _______ _______ _____ _____    ______ ____
ROOT
ATOM      1  C   UNL     1       7.920   5.141  14.945  0.00  0.00    +0.000 C 
ATOM      2  C   UNL     1       6.520   4.886  15.438  0.00  0.00    +0.000 A 
ATOM      3  C   UNL     1       5.971   3.628  15.146  0.00  0.00    +0.000 A 
ATOM      4  C   UNL     1       4.756   3.247  15.680  0.00  0.00    +0.000 A 
ATOM      5  C   UNL     1       4.056   4.130  16.501  0.00  0.00    +0.000 A 
ATOM      6  C   UNL     1       4.507   5.429  16.767  0.00  0.00    +0.000 A 
ATOM      7  C   UNL     1       5.780   5.798  16.239  0.00  0.00    +0.000 A 
ENDROOT
BRANCH   6   8
ATOM      8  C   UNL     1       3.695   6.391  17.578  0.00  0.00    +0.000 A 
ATOM      9  N   UNL     1       3.245   7.535  17.074  0.00  0.00    +0.000 NA
ATOM     10  C   UNL     1       2.540   8.168  18.059  0.00  0.00    +0.000 A 
ATOM     11  C   UNL     1       1.894   9.411  18.023  0.00  0.00    +0.000 A 
ATOM     12  C   UNL     1       1.224   9.843  19.161  0.00  0.00    +0.000 A 
ATOM     13  F   UNL     1       0.594  11.026  19.144  0.00  0.00    +0.000 F 
ATOM     14  C   UNL     1       1.190   9.078  20.319  0.00  0.00    +0.000 A 
ATOM     15  C   UNL     1       1.847   7.844  20.376  0.00  0.00    +0.000 A 
ATOM     16  C   UNL     1       2.514   7.397  19.222  0.00  0.00    +0.000 A 
ATOM     17  N   UNL     1       3.238   6.256  18.899  0.00  0.00    +0.000 N 
BRANCH  17  18
ATOM     18  C   UNL     1       3.492   5.123  19.792  0.00  0.00    +0.000 C 
ATOM     19  C   UNL     1       2.414   4.044  19.635  0.00  0.00    +0.000 C 
ATOM     20  C   UNL     1       4.879   4.474  19.711  0.00  0.00    +0.000 C 
ENDBRANCH  17  18
ENDBRANCH   6   8
BRANCH   7  21
ATOM     21  N   UNL     1       6.331   7.039  16.645  0.00  0.00    +0.000 N 
ATOM     22  C   UNL     1       7.333   7.180  17.595  0.00  0.00    +0.000 C 
ATOM     23  O   UNL     1       7.808   6.264  18.264  0.00  0.00    +0.000 OA
ATOM     24  H   UNL     1       6.395   7.732  15.888  0.00  0.00    +0.000 HD
BRANCH  22  25
ATOM     25  C   UNL     1       7.862   8.613  17.701  0.00  0.00    +0.000 C 
ATOM     26  F   UNL     1       6.864   9.545  17.741  0.00  0.00    +0.000 F 
ATOM     27  F   UNL     1       8.606   8.812  18.824  0.00  0.00    +0.000 F 
ENDBRANCH  22  25
ENDBRANCH   7  21
TORSDOF 4
ENDMDL
MODEL 8
REMARK VINA RESULT:      -6.3      2.637      3.469
REMARK  Name = 
REMARK  7 active torsions:
REMARK  status: ('A' for Active; 'I' for Inactive)
REMARK    1  A    between atoms: C_1  and  C_2
REMARK    2  A    between atoms: C_6  and  C_7
REMARK    3  A    between atoms: N_16  and  C_17
REMARK    4  A    between atoms: C_17  and  C_18
REMARK    5  A    between atoms: C_17  and  C_19
REMARK    6  A    between atoms: C_20  and  N_21
REMARK    7  A    between atoms: C_22  and  C_24
REMARK                            x       y       z     vdW  Elec       q    Type
REMARK                         _______ _______ _______ _____ _____    ______ ____
ROOT
ATOM      1  C   UNL     1       1.102   4.736  20.789  0.00  0.00    +0.000 C 
ATOM      2  C   UNL     1       2.346   4.028  20.323  0.00  0.00    +0.000 A 
ATOM      3  C   UNL     1       2.771   2.933  21.092  0.00  0.00    +0.000 A 
ATOM      4  C   UNL     1       3.812   2.132  20.665  0.00  0.00    +0.000 A 
ATOM      5  C   UNL     1       4.462   2.426  19.467  0.00  0.00    +0.000 A 
ATOM      6  C   UNL     1       4.142   3.548  18.693  0.00  0.00    +0.000 A 
ATOM      7  C   UNL     1       3.043   4.348  19.125  0.00  0.00    +0.000 A 
ENDROOT
BRANCH   6   8
ATOM      8  C   UNL     1       4.914   3.895  17.457  0.00  0.00    +0.000 A 
ATOM      9  N   UNL     1       4.695   3.290  16.294  0.00  0.00    +0.000 NA
ATOM     10  C   UNL     1       5.549   3.839  15.379  0.00  0.00    +0.000 A 
ATOM     11  C   UNL     1       5.714   3.520  14.025  0.00  0.00    +0.000 A 
ATOM     12  C   UNL     1       6.649   4.235  13.285  0.00  0.00    +0.000 A 
ATOM     13  F   UNL     1       6.817   3.950  11.986  0.00  0.00    +0.000 F 
ATOM     14  C   UNL     1       7.414   5.241  13.859  0.00  0.00    +0.000 A 
ATOM     15  C   UNL     1       7.274   5.556  15.215  0.00  0.00    +0.000 A 
ATOM     16  C   UNL     1       6.320   4.845  15.963  0.00  0.00    +0.000 A 
ATOM     17  N   UNL     1       5.895   4.887  17.284  0.00  0.00    +0.000 N 
BRANCH  17  18
ATOM     18  C   UNL     1       6.398   5.795  18.318  0.00  0.00    +0.000 C 
ATOM     19  C   UNL     1       7.747   5.313  18.867  0.00  0.00    +0.000 C 
ATOM     20  C   UNL     1       6.499   7.280  17.946  0.00  0.00    +0.000 C 
ENDBRANCH  17  18
ENDBRANCH   6   8
BRANCH   7  21
ATOM     21  N   UNL     1       2.594   5.379  18.263  0.00  0.00    +0.000 N 
ATOM     22  C   UNL     1       2.619   6.731  18.576  0.00  0.00    +0.000 C 
ATOM     23  O   UNL     1       2.950   7.199  19.665  0.00  0.00    +0.000 OA
ATOM     24  H   UNL     1       2.771   5.194  17.267  0.00  0.00    +0.000 HD
BRANCH  22  25
ATOM     25  C   UNL     1       2.246   7.628  17.393  0.00  0.00    +0.000 C 
ATOM     26  F   UNL     1       1.461   8.685  17.756  0.00  0.00    +0.000 F 
ATOM     27  F   UNL     1       3.338   8.164  16.781  0.00  0.00    +0.000 F 
ENDBRANCH  22  25
ENDBRANCH   7  21
TORSDOF 4
ENDMDL
MODEL 9
REMARK VINA RESULT:      -6.2      3.663      6.716
REMARK  Name = 
REMARK  7 active torsions:
REMARK  status: ('A' for Active; 'I' for Inactive)
REMARK    1  A    between atoms: C_1  and  C_2
REMARK    2  A    between atoms: C_6  and  C_7
REMARK    3  A    between atoms: N_16  and  C_17
REMARK    4  A    between atoms: C_17  and  C_18
REMARK    5  A    between atoms: C_17  and  C_19
REMARK    6  A    between atoms: C_20  and  N_21
REMARK    7  A    between atoms: C_22  and  C_24
REMARK                            x       y       z     vdW  Elec       q    Type
REMARK                         _______ _______ _______ _____ _____    ______ ____
ROOT
ATOM      1  C   UNL     1       6.462   3.959  15.757  0.00  0.00    +0.000 C 
ATOM      2  C   UNL     1       5.063   4.059  16.305  0.00  0.00    +0.000 A 
ATOM      3  C   UNL     1       4.253   2.922  16.168  0.00  0.00    +0.000 A 
ATOM      4  C   UNL     1       3.009   2.865  16.766  0.00  0.00    +0.000 A 
ATOM      5  C   UNL     1       2.545   3.957  17.498  0.00  0.00    +0.000 A 
ATOM      6  C   UNL     1       3.268   5.151  17.607  0.00  0.00    +0.000 A 
ATOM      7  C   UNL     1       4.565   5.186  17.014  0.00  0.00    +0.000 A 
ENDROOT
BRANCH   6   8
ATOM      8  C   UNL     1       2.710   6.344  18.322  0.00  0.00    +0.000 A 
ATOM      9  N   UNL     1       2.534   7.513  17.715  0.00  0.00    +0.000 NA
ATOM     10  C   UNL     1       2.006   8.376  18.634  0.00  0.00    +0.000 A 
ATOM     11  C   UNL     1       1.667   9.727  18.482  0.00  0.00    +0.000 A 
ATOM     12  C   UNL     1       1.127  10.401  19.571  0.00  0.00    +0.000 A 
ATOM     13  F   UNL     1       0.790  11.692  19.444  0.00  0.00    +0.000 F 
ATOM     14  C   UNL     1       0.927   9.768  20.791  0.00  0.00    +0.000 A 
ATOM     15  C   UNL     1       1.279   8.425  20.962  0.00  0.00    +0.000 A 
ATOM     16  C   UNL     1       1.812   7.736  19.860  0.00  0.00    +0.000 A 
ATOM     17  N   UNL     1       2.247   6.435  19.645  0.00  0.00    +0.000 N 
BRANCH  17  18
ATOM     18  C   UNL     1       2.238   5.355  20.636  0.00  0.00    +0.000 C 
ATOM     19  C   UNL     1       0.979   4.491  20.500  0.00  0.00    +0.000 C 
ATOM     20  C   UNL     1       3.476   4.451  20.686  0.00  0.00    +0.000 C 
ENDBRANCH  17  18
ENDBRANCH   6   8
BRANCH   7  21
ATOM     21  N   UNL     1       5.380   6.318  17.267  0.00  0.00    +0.000 N 
ATOM     22  C   UNL     1       6.437   6.339  18.164  0.00  0.00    +0.000 C 
ATOM     23  O   UNL     1       6.749   5.415  18.914  0.00  0.00    +0.000 OA
ATOM     24  H   UNL     1       5.544   6.904  16.438  0.00  0.00    +0.000 HD
BRANCH  22  25
ATOM     25  C   UNL     1       7.254   7.634  18.099  0.00  0.00    +0.000 C 
ATOM     26  F   UNL     1       8.495   7.506  18.655  0.00  0.00    +0.000 F 
ATOM     27  F   UNL     1       7.457   8.058  16.821  0.00  0.00    +0.000 F 
ENDBRANCH  22  25
ENDBRANCH   7  21
TORSDOF 4
ENDMDL
