MODEL 1
REMARK VINA RESULT:      -8.4      0.000      0.000
REMARK  Name = 
REMARK  7 active torsions:
REMARK  status: ('A' for Active; 'I' for Inactive)
REMARK    1  A    between atoms: C_1  and  C_2
REMARK    2  A    between atoms: C_2  and  C_3
REMARK    3  A    between atoms: C_2  and  C_10
REMARK    4  A    between atoms: C_3  and  C_4
REMARK    5  A    between atoms: N_8  and  C_9
REMARK    6  A    between atoms: C_12  and  N_13
REMARK    7  A    between atoms: C_24  and  C_25
REMARK                            x       y       z     vdW  Elec       q    Type
REMARK                         _______ _______ _______ _____ _____    ______ ____
ROOT
ATOM      1  C   UNL     1       5.374   5.917  16.625  0.00  0.00    +0.000 A 
ATOM      2  C   UNL     1       4.966   4.578  16.614  0.00  0.00    +0.000 A 
ATOM      3  C   UNL     1       3.782   4.212  17.228  0.00  0.00    +0.000 A 
ATOM      4  C   UNL     1       2.893   5.200  17.697  0.00  0.00    +0.000 A 
ATOM      5  C   UNL     1       3.237   6.553  17.642  0.00  0.00    +0.000 A 
ATOM      6  C   UNL     1       4.485   6.900  17.099  0.00  0.00    +0.000 A 
ENDROOT
BRANCH   3   7
ATOM      7  N   UNL     1       3.724   2.867  17.725  0.00  0.00    +0.000 N 
ATOM      8  C   UNL     1       2.410   2.231  17.732  0.00  0.00    +0.000 C 
ATOM      9  C   UNL     1       1.983   2.358  19.153  0.00  0.00    +0.000 A 
ATOM     10  C   UNL     1       0.715   2.444  19.682  0.00  0.00    +0.000 A 
ATOM     11  C   UNL     1       0.594   2.879  21.003  0.00  0.00    +0.000 A 
ATOM     12  C   UNL     1       1.731   3.189  21.779  0.00  0.00    +0.000 A 
ATOM     13  C   UNL     1       3.010   3.045  21.252  0.00  0.00    +0.000 A 
ATOM     14  C   UNL     1       3.104   2.618  19.942  0.00  0.00    +0.000 A 
ATOM     15  C   UNL     1       4.251   2.798  19.038  0.00  0.00    +0.000 C 
ATOM     16  O   UNL     1       5.384   3.062  19.419  0.00  0.00    +0.000 OA
ENDBRANCH   3   7
BRANCH   5  17
ATOM     17  C   UNL     1       2.374   7.606  18.298  0.00  0.00    +0.000 C 
ATOM     18  F   UNL     1       1.186   7.815  17.665  0.00  0.00    +0.000 F 
ATOM     19  F   UNL     1       2.054   7.283  19.584  0.00  0.00    +0.000 F 
ATOM     20  F   UNL     1       2.984   8.820  18.361  0.00  0.00    +0.000 F 
ENDBRANCH   5  17
BRANCH   1  22
ATOM     21  C   UNL     1       7.586   6.647  17.614  0.00  0.00    +0.000 C 
ATOM     22  C   UNL     1       6.855   6.174  16.355  0.00  0.00    +0.000 C 
BRANCH  22  23
ATOM     23  C   UNL     1       7.552   4.997  15.651  0.00  0.00    +0.000 C 
BRANCH  23  24
ATOM     24  C   UNL     1       7.660   5.167  14.183  0.00  0.00    +0.000 A 
ATOM     25  N   UNL     1       8.531   5.933  13.556  0.00  0.00    +0.000 NA
ATOM     26  N   UNL     1       8.351   5.774  12.204  0.00  0.00    +0.000 NA
ATOM     27  C   UNL     1       7.374   4.914  12.035  0.00  0.00    +0.000 A 
ATOM     28  N   UNL     1       6.894   4.519  13.243  0.00  0.00    +0.000 N 
ATOM     29  C   UNL     1       5.808   3.605  13.463  0.00  0.00    +0.000 C 
ENDBRANCH  23  24
ENDBRANCH  22  23
ENDBRANCH   1  22
TORSDOF 5
ENDMDL
MODEL 2
REMARK VINA RESULT:      -8.3      4.017      7.329
REMARK  Name = 
REMARK  7 active torsions:
REMARK  status: ('A' for Active; 'I' for Inactive)
REMARK    1  A    between atoms: C_1  and  C_2
REMARK    2  A    between atoms: C_2  and  C_3
REMARK    3  A    between atoms: C_2  and  C_10
REMARK    4  A    between atoms: C_3  and  C_4
REMARK    5  A    between atoms: N_8  and  C_9
REMARK    6  A    between atoms: C_12  and  N_13
REMARK    7  A    between atoms: C_24  and  C_25
REMARK                            x       y       z     vdW  Elec       q    Type
REMARK                         _______ _______ _______ _____ _____    ______ ____
ROOT
ATOM      1  C   UNL     1       2.258   6.515  19.148  0.00  0.00    +0.000 A 
ATOM      2  C   UNL     1       2.794   6.210  17.893  0.00  0.00    +0.000 A 
ATOM      3  C   UNL     1       3.330   4.956  17.657  0.00  0.00    +0.000 A 
ATOM      4  C   UNL     1       3.168   3.927  18.606  0.00  0.00    +0.000 A 
ATOM      5  C   UNL     1       2.558   4.183  19.837  0.00  0.00    +0.000 A 
ATOM      6  C   UNL     1       2.104   5.486  20.097  0.00  0.00    +0.000 A 
ENDROOT
BRANCH   3   7
ATOM      7  N   UNL     1       4.366   4.894  16.667  0.00  0.00    +0.000 N 
ATOM      8  C   UNL     1       5.473   3.981  16.937  0.00  0.00    +0.000 C 
ATOM      9  C   UNL     1       6.543   4.888  17.436  0.00  0.00    +0.000 A 
ATOM     10  C   UNL     1       7.575   4.627  18.309  0.00  0.00    +0.000 A 
ATOM     11  C   UNL     1       8.244   5.720  18.863  0.00  0.00    +0.000 A 
ATOM     12  C   UNL     1       7.898   7.043  18.517  0.00  0.00    +0.000 A 
ATOM     13  C   UNL     1       6.891   7.293  17.591  0.00  0.00    +0.000 A 
ATOM     14  C   UNL     1       6.240   6.196  17.060  0.00  0.00    +0.000 A 
ATOM     15  C   UNL     1       4.909   6.182  16.433  0.00  0.00    +0.000 C 
ATOM     16  O   UNL     1       4.343   7.182  16.013  0.00  0.00    +0.000 OA
ENDBRANCH   3   7
BRANCH   5  17
ATOM     17  C   UNL     1       2.536   3.139  20.930  0.00  0.00    +0.000 C 
ATOM     18  F   UNL     1       2.345   3.654  22.177  0.00  0.00    +0.000 F 
ATOM     19  F   UNL     1       1.539   2.226  20.752  0.00  0.00    +0.000 F 
ATOM     20  F   UNL     1       3.690   2.422  20.994  0.00  0.00    +0.000 F 
ENDBRANCH   5  17
BRANCH   1  22
ATOM     21  C   UNL     1       2.146   8.867  18.218  0.00  0.00    +0.000 C 
ATOM     22  C   UNL     1       2.118   7.999  19.480  0.00  0.00    +0.000 C 
BRANCH  22  23
ATOM     23  C   UNL     1       0.922   8.301  20.399  0.00  0.00    +0.000 C 
BRANCH  23  24
ATOM     24  C   UNL     1       0.736   9.747  20.669  0.00  0.00    +0.000 A 
ATOM     25  N   UNL     1       1.409  10.460  21.552  0.00  0.00    +0.000 NA
ATOM     26  N   UNL     1       0.990  11.764  21.460  0.00  0.00    +0.000 NA
ATOM     27  C   UNL     1       0.071  11.820  20.525  0.00  0.00    +0.000 A 
ATOM     28  N   UNL     1      -0.138  10.579  20.012  0.00  0.00    +0.000 N 
ATOM     29  C   UNL     1      -1.087  10.237  18.988  0.00  0.00    +0.000 C 
ENDBRANCH  23  24
ENDBRANCH  22  23
ENDBRANCH   1  22
TORSDOF 5
ENDMDL
MODEL 3
REMARK VINA RESULT:      -8.2      3.502      5.590
REMARK  Name = 
REMARK  7 active torsions:
REMARK  status: ('A' for Active; 'I' for Inactive)
REMARK    1  A    between atoms: C_1  and  C_2
REMARK    2  A    between atoms: C_2  and  C_3
REMARK    3  A    between atoms: C_2  and  C_10
REMARK    4  A    between atoms: C_3  and  C_4
REMARK    5  A    between atoms: N_8  and  C_9
REMARK    6  A    between atoms: C_12  and  N_13
REMARK    7  A    between atoms: C_24  and  C_25
REMARK                            x       y       z     vdW  Elec       q    Type
REMARK                         _______ _______ _______ _____ _____    ______ ____
ROOT
ATOM      1  C   UNL     1       4.617   5.579  17.372  0.00  0.00    +0.000 A 
ATOM      2  C   UNL     1       4.437   4.385  18.079  0.00  0.00    +0.000 A 
ATOM      3  C   UNL     1       4.663   3.172  17.454  0.00  0.00    +0.000 A 
ATOM      4  C   UNL     1       5.254   3.133  16.175  0.00  0.00    +0.000 A 
ATOM      5  C   UNL     1       5.525   4.315  15.480  0.00  0.00    +0.000 A 
ATOM      6  C   UNL     1       5.202   5.536  16.092  0.00  0.00    +0.000 A 
ENDROOT
BRANCH   3   7
ATOM      7  N   UNL     1       3.908   2.059  17.955  0.00  0.00    +0.000 N 
ATOM      8  C   UNL     1       2.473   2.070  17.685  0.00  0.00    +0.000 C 
ATOM      9  C   UNL     1       1.892   2.543  18.972  0.00  0.00    +0.000 A 
ATOM     10  C   UNL     1       0.728   3.240  19.204  0.00  0.00    +0.000 A 
ATOM     11  C   UNL     1       0.572   3.840  20.455  0.00  0.00    +0.000 A 
ATOM     12  C   UNL     1       1.556   3.711  21.457  0.00  0.00    +0.000 A 
ATOM     13  C   UNL     1       2.703   2.958  21.230  0.00  0.00    +0.000 A 
ATOM     14  C   UNL     1       2.838   2.377  19.984  0.00  0.00    +0.000 A 
ATOM     15  C   UNL     1       4.088   1.925  19.354  0.00  0.00    +0.000 C 
ATOM     16  O   UNL     1       5.123   1.710  19.971  0.00  0.00    +0.000 OA
ENDBRANCH   3   7
BRANCH   5  17
ATOM     17  C   UNL     1       5.992   4.285  14.043  0.00  0.00    +0.000 C 
ATOM     18  F   UNL     1       6.852   5.293  13.724  0.00  0.00    +0.000 F 
ATOM     19  F   UNL     1       6.650   3.130  13.737  0.00  0.00    +0.000 F 
ATOM     20  F   UNL     1       4.966   4.375  13.155  0.00  0.00    +0.000 F 
ENDBRANCH   5  17
BRANCH   1  22
ATOM     21  C   UNL     1       4.176   8.055  17.084  0.00  0.00    +0.000 C 
ATOM     22  C   UNL     1       3.927   6.814  17.947  0.00  0.00    +0.000 C 
BRANCH  22  23
ATOM     23  C   UNL     1       2.440   6.582  18.263  0.00  0.00    +0.000 C 
BRANCH  23  24
ATOM     24  C   UNL     1       1.922   7.456  19.342  0.00  0.00    +0.000 A 
ATOM     25  N   UNL     1       1.919   7.173  20.630  0.00  0.00    +0.000 NA
ATOM     26  N   UNL     1       1.416   8.256  21.308  0.00  0.00    +0.000 NA
ATOM     27  C   UNL     1       1.122   9.176  20.420  0.00  0.00    +0.000 A 
ATOM     28  N   UNL     1       1.403   8.717  19.172  0.00  0.00    +0.000 N 
ATOM     29  C   UNL     1       1.191   9.430  17.942  0.00  0.00    +0.000 C 
ENDBRANCH  23  24
ENDBRANCH  22  23
ENDBRANCH   1  22
TORSDOF 5
ENDMDL
MODEL 4
REMARK VINA RESULT:      -8.2      4.270      6.761
REMARK  Name = 
REMARK  7 active torsions:
REMARK  status: ('A' for Active; 'I' for Inactive)
REMARK    1  A    between atoms: C_1  and  C_2
REMARK    2  A    between atoms: C_2  and  C_3
REMARK    3  A    between atoms: C_2  and  C_10
REMARK    4  A    between atoms: C_3  and  C_4
REMARK    5  A    between atoms: N_8  and  C_9
REMARK    6  A    between atoms: C_12  and  N_13
REMARK    7  A    between atoms: C_24  and  C_25
REMARK                            x       y       z     vdW  Elec       q    Type
REMARK                         _______ _______ _______ _____ _____    ______ ____
ROOT
ATOM      1  C   UNL     1       2.420   8.391  18.458  0.00  0.00    +0.000 A 
ATOM      2  C   UNL     1       2.066   7.361  19.337  0.00  0.00    +0.000 A 
ATOM      3  C   UNL     1       2.572   6.088  19.147  0.00  0.00    +0.000 A 
ATOM      4  C   UNL     1       3.586   5.863  18.195  0.00  0.00    +0.000 A 
ATOM      5  C   UNL     1       4.022   6.896  17.361  0.00  0.00    +0.000 A 
ATOM      6  C   UNL     1       3.430   8.161  17.504  0.00  0.00    +0.000 A 
ENDROOT
BRANCH   3   7
ATOM      7  N   UNL     1       1.752   5.012  19.625  0.00  0.00    +0.000 N 
ATOM      8  C   UNL     1       2.242   4.288  20.795  0.00  0.00    +0.000 C 
ATOM      9  C   UNL     1       2.834   3.056  20.205  0.00  0.00    +0.000 A 
ATOM     10  C   UNL     1       3.865   2.271  20.669  0.00  0.00    +0.000 A 
ATOM     11  C   UNL     1       4.440   1.365  19.776  0.00  0.00    +0.000 A 
ATOM     12  C   UNL     1       3.961   1.234  18.456  0.00  0.00    +0.000 A 
ATOM     13  C   UNL     1       2.883   1.993  18.015  0.00  0.00    +0.000 A 
ATOM     14  C   UNL     1       2.333   2.886  18.914  0.00  0.00    +0.000 A 
ATOM     15  C   UNL     1       1.518   4.068  18.594  0.00  0.00    +0.000 C 
ATOM     16  O   UNL     1       0.955   4.237  17.521  0.00  0.00    +0.000 OA
ENDBRANCH   3   7
BRANCH   5  17
ATOM     17  C   UNL     1       4.977   6.629  16.221  0.00  0.00    +0.000 C 
ATOM     18  F   UNL     1       4.674   7.308  15.079  0.00  0.00    +0.000 F 
ATOM     19  F   UNL     1       6.259   6.980  16.528  0.00  0.00    +0.000 F 
ATOM     20  F   UNL     1       5.025   5.315  15.873  0.00  0.00    +0.000 F 
ENDBRANCH   5  17
BRANCH   1  22
ATOM     21  C   UNL     1       2.210  10.847  17.882  0.00  0.00    +0.000 C 
ATOM     22  C   UNL     1       1.500   9.610  18.440  0.00  0.00    +0.000 C 
BRANCH  22  23
ATOM     23  C   UNL     1       0.145   9.331  17.768  0.00  0.00    +0.000 C 
BRANCH  23  24
ATOM     24  C   UNL     1      -0.931  10.252  18.205  0.00  0.00    +0.000 A 
ATOM     25  N   UNL     1      -0.975  10.898  19.354  0.00  0.00    +0.000 NA
ATOM     26  N   UNL     1      -2.093  11.695  19.358  0.00  0.00    +0.000 NA
ATOM     27  C   UNL     1      -2.708  11.519  18.212  0.00  0.00    +0.000 A 
ATOM     28  N   UNL     1      -2.031  10.610  17.462  0.00  0.00    +0.000 N 
ATOM     29  C   UNL     1      -2.411  10.140  16.158  0.00  0.00    +0.000 C 
ENDBRANCH  23  24
ENDBRANCH  22  23
ENDBRANCH   1  22
TORSDOF 5
ENDMDL
MODEL 5
REMARK VINA RESULT:      -8.1      3.619      6.846
REMARK  Name = 
REMARK  7 active torsions:
REMARK  status: ('A' for Active; 'I' for Inactive)
REMARK    1  A    between atoms: C_1  and  C_2
REMARK    2  A    between atoms: C_2  and  C_3
REMARK    3  A    between atoms: C_2  and  C_10
REMARK    4  A    between atoms: C_3  and  C_4
REMARK    5  A    between atoms: N_8  and  C_9
REMARK    6  A    between atoms: C_12  and  N_13
REMARK    7  A    between atoms: C_24  and  C_25
REMARK                            x       y       z     vdW  Elec       q    Type
REMARK                         _______ _______ _______ _____ _____    ______ ____
ROOT
ATOM      1  C   UNL     1       2.700   6.228  18.035  0.00  0.00    +0.000 A 
ATOM      2  C   UNL     1       3.706   5.670  17.238  0.00  0.00    +0.000 A 
ATOM      3  C   UNL     1       3.964   4.312  17.301  0.00  0.00    +0.000 A 
ATOM      4  C   UNL     1       3.099   3.460  18.016  0.00  0.00    +0.000 A 
ATOM      5  C   UNL     1       2.032   3.982  18.753  0.00  0.00    +0.000 A 
ATOM      6  C   UNL     1       1.842   5.374  18.753  0.00  0.00    +0.000 A 
ENDROOT
BRANCH   3   7
ATOM      7  N   UNL     1       5.308   3.916  16.994  0.00  0.00    +0.000 N 
ATOM      8  C   UNL     1       6.235   3.826  18.119  0.00  0.00    +0.000 C 
ATOM      9  C   UNL     1       7.004   5.097  18.023  0.00  0.00    +0.000 A 
ATOM     10  C   UNL     1       7.612   5.830  19.018  0.00  0.00    +0.000 A 
ATOM     11  C   UNL     1       7.987   7.141  18.717  0.00  0.00    +0.000 A 
ATOM     12  C   UNL     1       7.781   7.685  17.432  0.00  0.00    +0.000 A 
ATOM     13  C   UNL     1       7.217   6.917  16.419  0.00  0.00    +0.000 A 
ATOM     14  C   UNL     1       6.850   5.625  16.741  0.00  0.00    +0.000 A 
ATOM     15  C   UNL     1       5.875   4.784  16.029  0.00  0.00    +0.000 C 
ATOM     16  O   UNL     1       5.503   4.995  14.882  0.00  0.00    +0.000 OA
ENDBRANCH   3   7
BRANCH   5  17
ATOM     17  C   UNL     1       1.207   3.102  19.663  0.00  0.00    +0.000 C 
ATOM     18  F   UNL     1       1.915   2.090  20.237  0.00  0.00    +0.000 F 
ATOM     19  F   UNL     1       0.657   3.801  20.698  0.00  0.00    +0.000 F 
ATOM     20  F   UNL     1       0.165   2.511  19.018  0.00  0.00    +0.000 F 
ENDBRANCH   5  17
BRANCH   1  22
ATOM     21  C   UNL     1       3.919   8.372  17.462  0.00  0.00    +0.000 C 
ATOM     22  C   UNL     1       2.777   7.736  18.261  0.00  0.00    +0.000 C 
BRANCH  22  23
ATOM     23  C   UNL     1       1.426   8.445  18.063  0.00  0.00    +0.000 C 
BRANCH  23  24
ATOM     24  C   UNL     1       1.224   9.596  18.975  0.00  0.00    +0.000 A 
ATOM     25  N   UNL     1       1.227  10.868  18.626  0.00  0.00    +0.000 NA
ATOM     26  N   UNL     1       0.945  11.620  19.739  0.00  0.00    +0.000 NA
ATOM     27  C   UNL     1       0.776  10.793  20.743  0.00  0.00    +0.000 A 
ATOM     28  N   UNL     1       0.960   9.514  20.321  0.00  0.00    +0.000 N 
ATOM     29  C   UNL     1       0.883   8.335  21.139  0.00  0.00    +0.000 C 
ENDBRANCH  23  24
ENDBRANCH  22  23
ENDBRANCH   1  22
TORSDOF 5
ENDMDL
MODEL 6
REMARK VINA RESULT:      -8.1      3.551      7.029
REMARK  Name = 
REMARK  7 active torsions:
REMARK  status: ('A' for Active; 'I' for Inactive)
REMARK    1  A    between atoms: C_1  and  C_2
REMARK    2  A    between atoms: C_2  and  C_3
REMARK    3  A    between atoms: C_2  and  C_10
REMARK    4  A    between atoms: C_3  and  C_4
REMARK    5  A    between atoms: N_8  and  C_9
REMARK    6  A    between atoms: C_12  and  N_13
REMARK    7  A    between atoms: C_24  and  C_25
REMARK                            x       y       z     vdW  Elec       q    Type
REMARK                         _______ _______ _______ _____ _____    ______ ____
ROOT
ATOM      1  C   UNL     1       2.679   6.220  18.143  0.00  0.00    +0.000 A 
ATOM      2  C   UNL     1       3.661   5.715  17.283  0.00  0.00    +0.000 A 
ATOM      3  C   UNL     1       3.920   4.356  17.252  0.00  0.00    +0.000 A 
ATOM      4  C   UNL     1       3.075   3.460  17.935  0.00  0.00    +0.000 A 
ATOM      5  C   UNL     1       2.030   3.932  18.734  0.00  0.00    +0.000 A 
ATOM      6  C   UNL     1       1.841   5.321  18.828  0.00  0.00    +0.000 A 
ENDROOT
BRANCH   3   7
ATOM      7  N   UNL     1       5.254   3.982  16.882  0.00  0.00    +0.000 N 
ATOM      8  C   UNL     1       6.209   3.806  17.973  0.00  0.00    +0.000 C 
ATOM      9  C   UNL     1       6.979   5.080  17.953  0.00  0.00    +0.000 A 
ATOM     10  C   UNL     1       7.615   5.736  18.984  0.00  0.00    +0.000 A 
ATOM     11  C   UNL     1       7.988   7.064  18.772  0.00  0.00    +0.000 A 
ATOM     12  C   UNL     1       7.751   7.703  17.537  0.00  0.00    +0.000 A 
ATOM     13  C   UNL     1       7.159   7.014  16.484  0.00  0.00    +0.000 A 
ATOM     14  C   UNL     1       6.795   5.702  16.718  0.00  0.00    +0.000 A 
ATOM     15  C   UNL     1       5.800   4.918  15.970  0.00  0.00    +0.000 C 
ATOM     16  O   UNL     1       5.399   5.215  14.852  0.00  0.00    +0.000 OA
ENDBRANCH   3   7
BRANCH   5  17
ATOM     17  C   UNL     1       1.229   2.995  19.609  0.00  0.00    +0.000 C 
ATOM     18  F   UNL     1       0.642   3.607  20.676  0.00  0.00    +0.000 F 
ATOM     19  F   UNL     1       0.215   2.391  18.926  0.00  0.00    +0.000 F 
ATOM     20  F   UNL     1       1.983   1.987  20.124  0.00  0.00    +0.000 F 
ENDBRANCH   5  17
BRANCH   1  22
ATOM     21  C   UNL     1       3.702   8.445  17.501  0.00  0.00    +0.000 C 
ATOM     22  C   UNL     1       2.764   7.711  18.463  0.00  0.00    +0.000 C 
BRANCH  22  23
ATOM     23  C   UNL     1       1.384   8.378  18.596  0.00  0.00    +0.000 C 
BRANCH  23  24
ATOM     24  C   UNL     1       1.185   9.069  19.892  0.00  0.00    +0.000 A 
ATOM     25  N   UNL     1       1.471   8.577  21.081  0.00  0.00    +0.000 NA
ATOM     26  N   UNL     1       1.202   9.540  22.022  0.00  0.00    +0.000 NA
ATOM     27  C   UNL     1       0.758  10.599  21.387  0.00  0.00    +0.000 A 
ATOM     28  N   UNL     1       0.710  10.349  20.053  0.00  0.00    +0.000 N 
ATOM     29  C   UNL     1       0.253  11.258  19.039  0.00  0.00    +0.000 C 
ENDBRANCH  23  24
ENDBRANCH  22  23
ENDBRANCH   1  22
TORSDOF 5
ENDMDL
MODEL 7
REMARK VINA RESULT:      -8.1      3.748      7.145
REMARK  Name = 
REMARK  7 active torsions:
REMARK  status: ('A' for Active; 'I' for Inactive)
REMARK    1  A    between atoms: C_1  and  C_2
REMARK    2  A    between atoms: C_2  and  C_3
REMARK    3  A    between atoms: C_2  and  C_10
REMARK    4  A    between atoms: C_3  and  C_4
REMARK    5  A    between atoms: N_8  and  C_9
REMARK    6  A    between atoms: C_12  and  N_13
REMARK    7  A    between atoms: C_24  and  C_25
REMARK                            x       y       z     vdW  Elec       q    Type
REMARK                         _______ _______ _______ _____ _____    ______ ____
ROOT
ATOM      1  C   UNL     1       2.604   5.889  18.335  0.00  0.00    +0.000 A 
ATOM      2  C   UNL     1       3.420   5.846  17.200  0.00  0.00    +0.000 A 
ATOM      3  C   UNL     1       3.881   4.630  16.726  0.00  0.00    +0.000 A 
ATOM      4  C   UNL     1       3.381   3.427  17.261  0.00  0.00    +0.000 A 
ATOM      5  C   UNL     1       2.495   3.441  18.342  0.00  0.00    +0.000 A 
ATOM      6  C   UNL     1       2.111   4.683  18.871  0.00  0.00    +0.000 A 
ENDROOT
BRANCH   3   7
ATOM      7  N   UNL     1       5.131   4.666  16.022  0.00  0.00    +0.000 N 
ATOM      8  C   UNL     1       6.226   3.891  16.598  0.00  0.00    +0.000 C 
ATOM      9  C   UNL     1       7.037   4.925  17.298  0.00  0.00    +0.000 A 
ATOM     10  C   UNL     1       7.843   4.802  18.408  0.00  0.00    +0.000 A 
ATOM     11  C   UNL     1       8.235   5.976  19.054  0.00  0.00    +0.000 A 
ATOM     12  C   UNL     1       7.848   7.243  18.570  0.00  0.00    +0.000 A 
ATOM     13  C   UNL     1       7.081   7.356  17.416  0.00  0.00    +0.000 A 
ATOM     14  C   UNL     1       6.701   6.182  16.796  0.00  0.00    +0.000 A 
ATOM     15  C   UNL     1       5.576   6.002  15.865  0.00  0.00    +0.000 C 
ATOM     16  O   UNL     1       5.029   6.922  15.272  0.00  0.00    +0.000 OA
ENDBRANCH   3   7
BRANCH   5  17
ATOM     17  C   UNL     1       2.091   2.161  19.037  0.00  0.00    +0.000 C 
ATOM     18  F   UNL     1       2.916   1.109  18.773  0.00  0.00    +0.000 F 
ATOM     19  F   UNL     1       2.083   2.290  20.395  0.00  0.00    +0.000 F 
ATOM     20  F   UNL     1       0.840   1.750  18.695  0.00  0.00    +0.000 F 
ENDBRANCH   5  17
BRANCH   1  22
ATOM     21  C   UNL     1       2.766   8.404  18.101  0.00  0.00    +0.000 C 
ATOM     22  C   UNL     1       2.519   7.232  19.056  0.00  0.00    +0.000 C 
BRANCH  22  23
ATOM     23  C   UNL     1       1.237   7.388  19.892  0.00  0.00    +0.000 C 
BRANCH  23  24
ATOM     24  C   UNL     1       1.132   8.701  20.572  0.00  0.00    +0.000 A 
ATOM     25  N   UNL     1       1.634   9.001  21.754  0.00  0.00    +0.000 NA
ATOM     26  N   UNL     1       1.379  10.326  22.006  0.00  0.00    +0.000 NA
ATOM     27  C   UNL     1       0.728  10.807  20.974  0.00  0.00    +0.000 A 
ATOM     28  N   UNL     1       0.531   9.824  20.056  0.00  0.00    +0.000 N 
ATOM     29  C   UNL     1      -0.166   9.962  18.807  0.00  0.00    +0.000 C 
ENDBRANCH  23  24
ENDBRANCH  22  23
ENDBRANCH   1  22
TORSDOF 5
ENDMDL
MODEL 8
REMARK VINA RESULT:      -8.0      2.650      4.208
REMARK  Name = 
REMARK  7 active torsions:
REMARK  status: ('A' for Active; 'I' for Inactive)
REMARK    1  A    between atoms: C_1  and  C_2
REMARK    2  A    between atoms: C_2  and  C_3
REMARK    3  A    between atoms: C_2  and  C_10
REMARK    4  A    between atoms: C_3  and  C_4
REMARK    5  A    between atoms: N_8  and  C_9
REMARK    6  A    between atoms: C_12  and  N_13
REMARK    7  A    between atoms: C_24  and  C_25
REMARK                            x       y       z     vdW  Elec       q    Type
REMARK                         _______ _______ _______ _____ _____    ______ ____
ROOT
ATOM      1  C   UNL     1       2.533   6.390  18.569  0.00  0.00    +0.000 A 
ATOM      2  C   UNL     1       1.902   5.201  18.952  0.00  0.00    +0.000 A 
ATOM      3  C   UNL     1       1.170   5.156  20.125  0.00  0.00    +0.000 A 
ATOM      4  C   UNL     1       0.897   6.341  20.836  0.00  0.00    +0.000 A 
ATOM      5  C   UNL     1       1.444   7.560  20.426  0.00  0.00    +0.000 A 
ATOM      6  C   UNL     1       2.263   7.571  19.285  0.00  0.00    +0.000 A 
ENDROOT
BRANCH   3   7
ATOM      7  N   UNL     1       1.092   3.874  20.764  0.00  0.00    +0.000 N 
ATOM      8  C   UNL     1       2.231   3.487  21.593  0.00  0.00    +0.000 C 
ATOM      9  C   UNL     1       2.992   2.564  20.707  0.00  0.00    +0.000 A 
ATOM     10  C   UNL     1       4.342   2.295  20.677  0.00  0.00    +0.000 A 
ATOM     11  C   UNL     1       4.845   1.642  19.550  0.00  0.00    +0.000 A 
ATOM     12  C   UNL     1       3.998   1.243  18.495  0.00  0.00    +0.000 A 
ATOM     13  C   UNL     1       2.628   1.471  18.562  0.00  0.00    +0.000 A 
ATOM     14  C   UNL     1       2.154   2.122  19.684  0.00  0.00    +0.000 A 
ATOM     15  C   UNL     1       0.882   2.851  19.806  0.00  0.00    +0.000 C 
ATOM     16  O   UNL     1      -0.062   2.708  19.040  0.00  0.00    +0.000 OA
ENDBRANCH   3   7
BRANCH   5  17
ATOM     17  C   UNL     1       1.306   8.803  21.274  0.00  0.00    +0.000 C 
ATOM     18  F   UNL     1       1.423   9.964  20.571  0.00  0.00    +0.000 F 
ATOM     19  F   UNL     1       0.094   8.871  21.897  0.00  0.00    +0.000 F 
ATOM     20  F   UNL     1       2.237   8.870  22.264  0.00  0.00    +0.000 F 
ENDBRANCH   5  17
BRANCH   1  22
ATOM     21  C   UNL     1       4.574   7.489  17.553  0.00  0.00    +0.000 C 
ATOM     22  C   UNL     1       3.667   6.256  17.555  0.00  0.00    +0.000 C 
BRANCH  22  23
ATOM     23  C   UNL     1       4.439   4.932  17.685  0.00  0.00    +0.000 C 
BRANCH  23  24
ATOM     24  C   UNL     1       5.765   5.084  18.331  0.00  0.00    +0.000 A 
ATOM     25  N   UNL     1       5.981   5.249  19.621  0.00  0.00    +0.000 NA
ATOM     26  N   UNL     1       7.338   5.288  19.829  0.00  0.00    +0.000 NA
ATOM     27  C   UNL     1       7.921   5.146  18.662  0.00  0.00    +0.000 A 
ATOM     28  N   UNL     1       6.979   5.034  17.689  0.00  0.00    +0.000 N 
ATOM     29  C   UNL     1       7.232   4.891  16.281  0.00  0.00    +0.000 C 
ENDBRANCH  23  24
ENDBRANCH  22  23
ENDBRANCH   1  22
TORSDOF 5
ENDMDL
MODEL 9
REMARK VINA RESULT:      -7.9      4.378      7.032
REMARK  Name = 
REMARK  7 active torsions:
REMARK  status: ('A' for Active; 'I' for Inactive)
REMARK    1  A    between atoms: C_1  and  C_2
REMARK    2  A    between atoms: C_2  and  C_3
REMARK    3  A    between atoms: C_2  and  C_10
REMARK    4  A    between atoms: C_3  and  C_4
REMARK    5  A    between atoms: N_8  and  C_9
REMARK    6  A    between atoms: C_12  and  N_13
REMARK    7  A    between atoms: C_24  and  C_25
REMARK                            x       y       z     vdW  Elec       q    Type
REMARK                         _______ _______ _______ _____ _____    ______ ____
ROOT
ATOM      1  C   UNL     1       2.249   8.282  18.706  0.00  0.00    +0.000 A 
ATOM      2  C   UNL     1       1.948   7.218  19.564  0.00  0.00    +0.000 A 
ATOM      3  C   UNL     1       2.506   5.972  19.342  0.00  0.00    +0.000 A 
ATOM      4  C   UNL     1       3.519   5.812  18.376  0.00  0.00    +0.000 A 
ATOM      5  C   UNL     1       3.902   6.881  17.561  0.00  0.00    +0.000 A 
ATOM      6  C   UNL     1       3.258   8.116  17.738  0.00  0.00    +0.000 A 
ENDROOT
BRANCH   3   7
ATOM      7  N   UNL     1       1.738   4.851  19.802  0.00  0.00    +0.000 N 
ATOM      8  C   UNL     1       2.281   4.110  20.938  0.00  0.00    +0.000 C 
ATOM      9  C   UNL     1       2.905   2.921  20.295  0.00  0.00    +0.000 A 
ATOM     10  C   UNL     1       3.975   2.161  20.711  0.00  0.00    +0.000 A 
ATOM     11  C   UNL     1       4.561   1.305  19.776  0.00  0.00    +0.000 A 
ATOM     12  C   UNL     1       4.057   1.199  18.463  0.00  0.00    +0.000 A 
ATOM     13  C   UNL     1       2.941   1.929  18.071  0.00  0.00    +0.000 A 
ATOM     14  C   UNL     1       2.380   2.772  19.011  0.00  0.00    +0.000 A 
ATOM     15  C   UNL     1       1.515   3.932  18.747  0.00  0.00    +0.000 C 
ATOM     16  O   UNL     1       0.920   4.114  17.693  0.00  0.00    +0.000 OA
ENDBRANCH   3   7
BRANCH   5  17
ATOM     17  C   UNL     1       4.857   6.680  16.407  0.00  0.00    +0.000 C 
ATOM     18  F   UNL     1       4.502   7.356  15.277  0.00  0.00    +0.000 F 
ATOM     19  F   UNL     1       6.121   7.097  16.703  0.00  0.00    +0.000 F 
ATOM     20  F   UNL     1       4.972   5.375  16.041  0.00  0.00    +0.000 F 
ENDBRANCH   5  17
BRANCH   1  22
ATOM     21  C   UNL     1       0.324   9.424  17.525  0.00  0.00    +0.000 C 
ATOM     22  C   UNL     1       1.277   9.459  18.723  0.00  0.00    +0.000 C 
BRANCH  22  23
ATOM     23  C   UNL     1       0.555   9.626  20.071  0.00  0.00    +0.000 C 
BRANCH  23  24
ATOM     24  C   UNL     1       0.482  11.033  20.531  0.00  0.00    +0.000 A 
ATOM     25  N   UNL     1       1.391  11.657  21.255  0.00  0.00    +0.000 NA
ATOM     26  N   UNL     1       0.989  12.959  21.422  0.00  0.00    +0.000 NA
ATOM     27  C   UNL     1      -0.157  13.102  20.798  0.00  0.00    +0.000 A 
ATOM     28  N   UNL     1      -0.527  11.919  20.240  0.00  0.00    +0.000 N 
ATOM     29  C   UNL     1      -1.734  11.676  19.499  0.00  0.00    +0.000 C 
ENDBRANCH  23  24
ENDBRANCH  22  23
ENDBRANCH   1  22
TORSDOF 5
ENDMDL
