MODEL 1
REMARK VINA RESULT:      -7.8      0.000      0.000
REMARK  Name = 
REMARK  3 active torsions:
REMARK  status: ('A' for Active; 'I' for Inactive)
REMARK    1  A    between atoms: C_2  and  C_13
REMARK    2  A    between atoms: N_3  and  C_4
REMARK    3  A    between atoms: N_15  and  C_16
REMARK                            x       y       z     vdW  Elec       q    Type
REMARK                         _______ _______ _______ _____ _____    ______ ____
ROOT
ATOM      1  C   UNL     1       2.875   5.443  19.545  0.00  0.00    +0.000 C 
ATOM      2  O   UNL     1       2.738   4.227  19.542  0.00  0.00    +0.000 OA
ATOM      3  N   UNL     1       3.838   6.224  18.936  0.00  0.00    +0.000 N 
ATOM      4  H   UNL     1       3.809   7.209  19.187  0.00  0.00    +0.000 HD
ENDROOT
BRANCH   3   5
ATOM      5  C   UNL     1       4.885   5.790  18.101  0.00  0.00    +0.000 A 
ATOM      6  C   UNL     1       6.191   5.630  18.562  0.00  0.00    +0.000 A 
ATOM      7  C   UNL     1       7.226   5.236  17.708  0.00  0.00    +0.000 A 
ATOM      8  C   UNL     1       6.913   5.024  16.364  0.00  0.00    +0.000 A 
ATOM      9  N   UNL     1       7.726   4.677  15.309  0.00  0.00    +0.000 N 
ATOM     10  C   UNL     1       6.994   4.596  14.156  0.00  0.00    +0.000 A 
ATOM     11  C   UNL     1       5.682   4.871  14.471  0.00  0.00    +0.000 A 
ATOM     12  C   UNL     1       5.617   5.149  15.866  0.00  0.00    +0.000 A 
ATOM     13  C   UNL     1       4.582   5.514  16.756  0.00  0.00    +0.000 A 
ATOM     14  H   UNL     1       8.723   4.527  15.382  0.00  0.00    +0.000 HD
ENDBRANCH   3   5
BRANCH   1  16
ATOM     15  O   UNL     1       1.020   5.684  20.995  0.00  0.00    +0.000 OA
ATOM     16  C   UNL     1       1.894   6.283  20.383  0.00  0.00    +0.000 C 
ATOM     17  N   UNL     1       2.095   7.651  20.269  0.00  0.00    +0.000 N 
ATOM     18  H   UNL     1       2.794   7.933  19.587  0.00  0.00    +0.000 HD
BRANCH  17  19
ATOM     19  C   UNL     1       1.302   8.648  20.878  0.00  0.00    +0.000 A 
ATOM     20  C   UNL     1       1.162   8.733  22.274  0.00  0.00    +0.000 A 
ATOM     21  C   UNL     1       0.295   9.656  22.862  0.00  0.00    +0.000 A 
ATOM     22  C   UNL     1      -0.428  10.490  22.033  0.00  0.00    +0.000 A 
ATOM     23  C   UNL     1      -0.260  10.456  20.659  0.00  0.00    +0.000 A 
ATOM     24  C   UNL     1       0.617   9.557  20.061  0.00  0.00    +0.000 A 
ATOM     25  C   UNL     1      -1.167  11.456  20.039  0.00  0.00    +0.000 C 
ATOM     26  O   UNL     1      -1.903  12.046  21.138  0.00  0.00    +0.000 OA
ATOM     27  C   UNL     1      -1.464  11.485  22.394  0.00  0.00    +0.000 C 
ENDBRANCH  17  19
ENDBRANCH   1  16
TORSDOF 3
ENDMDL
MODEL 2
REMARK VINA RESULT:      -7.8      5.688      8.402
REMARK  Name = 
REMARK  3 active torsions:
REMARK  status: ('A' for Active; 'I' for Inactive)
REMARK    1  A    between atoms: C_2  and  C_13
REMARK    2  A    between atoms: N_3  and  C_4
REMARK    3  A    between atoms: N_15  and  C_16
REMARK                            x       y       z     vdW  Elec       q    Type
REMARK                         _______ _______ _______ _____ _____    ______ ____
ROOT
ATOM      1  C   UNL     1       7.987   8.552  18.072  0.00  0.00    +0.000 C 
ATOM      2  O   UNL     1       7.623   9.143  17.064  0.00  0.00    +0.000 OA
ATOM      3  N   UNL     1       8.843   8.964  19.076  0.00  0.00    +0.000 N 
ATOM      4  H   UNL     1       9.086   8.243  19.751  0.00  0.00    +0.000 HD
ENDROOT
BRANCH   3   5
ATOM      5  C   UNL     1       9.469  10.219  19.201  0.00  0.00    +0.000 A 
ATOM      6  C   UNL     1       9.571  10.884  20.423  0.00  0.00    +0.000 A 
ATOM      7  C   UNL     1      10.160  12.149  20.520  0.00  0.00    +0.000 A 
ATOM      8  C   UNL     1      10.632  12.738  19.345  0.00  0.00    +0.000 A 
ATOM      9  N   UNL     1      11.209  13.971  19.143  0.00  0.00    +0.000 N 
ATOM     10  C   UNL     1      11.501  14.143  17.817  0.00  0.00    +0.000 A 
ATOM     11  C   UNL     1      11.129  12.995  17.152  0.00  0.00    +0.000 A 
ATOM     12  C   UNL     1      10.571  12.098  18.108  0.00  0.00    +0.000 A 
ATOM     13  C   UNL     1      10.003  10.807  18.041  0.00  0.00    +0.000 A 
ATOM     14  H   UNL     1      11.370  14.653  19.871  0.00  0.00    +0.000 HD
ENDBRANCH   3   5
BRANCH   1  16
ATOM     15  O   UNL     1       8.266   6.334  18.848  0.00  0.00    +0.000 OA
ATOM     16  C   UNL     1       7.503   7.107  18.284  0.00  0.00    +0.000 C 
ATOM     17  N   UNL     1       6.259   6.849  17.727  0.00  0.00    +0.000 N 
ATOM     18  H   UNL     1       5.864   7.607  17.175  0.00  0.00    +0.000 HD
BRANCH  17  19
ATOM     19  C   UNL     1       5.610   5.596  17.720  0.00  0.00    +0.000 A 
ATOM     20  C   UNL     1       5.523   4.812  16.556  0.00  0.00    +0.000 A 
ATOM     21  C   UNL     1       4.790   3.625  16.533  0.00  0.00    +0.000 A 
ATOM     22  C   UNL     1       4.147   3.234  17.690  0.00  0.00    +0.000 A 
ATOM     23  C   UNL     1       4.267   3.965  18.859  0.00  0.00    +0.000 A 
ATOM     24  C   UNL     1       5.013   5.138  18.903  0.00  0.00    +0.000 A 
ATOM     25  C   UNL     1       3.467   3.306  19.924  0.00  0.00    +0.000 C 
ATOM     26  O   UNL     1       2.840   2.165  19.288  0.00  0.00    +0.000 OA
ATOM     27  C   UNL     1       3.248   2.076  17.905  0.00  0.00    +0.000 C 
ENDBRANCH  17  19
ENDBRANCH   1  16
TORSDOF 3
ENDMDL
MODEL 3
REMARK VINA RESULT:      -7.7      0.995      1.586
REMARK  Name = 
REMARK  3 active torsions:
REMARK  status: ('A' for Active; 'I' for Inactive)
REMARK    1  A    between atoms: C_2  and  C_13
REMARK    2  A    between atoms: N_3  and  C_4
REMARK    3  A    between atoms: N_15  and  C_16
REMARK                            x       y       z     vdW  Elec       q    Type
REMARK                         _______ _______ _______ _____ _____    ______ ____
ROOT
ATOM      1  C   UNL     1       3.301   5.688  19.099  0.00  0.00    +0.000 C 
ATOM      2  O   UNL     1       3.429   4.492  19.327  0.00  0.00    +0.000 OA
ATOM      3  N   UNL     1       3.998   6.500  18.225  0.00  0.00    +0.000 N 
ATOM      4  H   UNL     1       3.786   7.491  18.303  0.00  0.00    +0.000 HD
ENDROOT
BRANCH   3   5
ATOM      5  C   UNL     1       5.012   6.114  17.328  0.00  0.00    +0.000 A 
ATOM      6  C   UNL     1       6.341   6.506  17.489  0.00  0.00    +0.000 A 
ATOM      7  C   UNL     1       7.327   6.146  16.565  0.00  0.00    +0.000 A 
ATOM      8  C   UNL     1       6.935   5.390  15.458  0.00  0.00    +0.000 A 
ATOM      9  N   UNL     1       7.674   4.939  14.389  0.00  0.00    +0.000 N 
ATOM     10  C   UNL     1       6.872   4.249  13.520  0.00  0.00    +0.000 A 
ATOM     11  C   UNL     1       5.599   4.233  14.045  0.00  0.00    +0.000 A 
ATOM     12  C   UNL     1       5.624   4.958  15.271  0.00  0.00    +0.000 A 
ATOM     13  C   UNL     1       4.652   5.305  16.236  0.00  0.00    +0.000 A 
ATOM     14  H   UNL     1       8.661   5.114  14.261  0.00  0.00    +0.000 HD
ENDBRANCH   3   5
BRANCH   1  16
ATOM     15  O   UNL     1       1.625   5.861  20.762  0.00  0.00    +0.000 OA
ATOM     16  C   UNL     1       2.264   6.477  19.918  0.00  0.00    +0.000 C 
ATOM     17  N   UNL     1       2.138   7.802  19.529  0.00  0.00    +0.000 N 
ATOM     18  H   UNL     1       2.670   8.065  18.703  0.00  0.00    +0.000 HD
BRANCH  17  19
ATOM     19  C   UNL     1       1.220   8.730  20.067  0.00  0.00    +0.000 A 
ATOM     20  C   UNL     1       0.664   9.759  19.289  0.00  0.00    +0.000 A 
ATOM     21  C   UNL     1      -0.161  10.733  19.855  0.00  0.00    +0.000 A 
ATOM     22  C   UNL     1      -0.419  10.661  21.208  0.00  0.00    +0.000 A 
ATOM     23  C   UNL     1       0.076   9.623  21.979  0.00  0.00    +0.000 A 
ATOM     24  C   UNL     1       0.880   8.633  21.424  0.00  0.00    +0.000 A 
ATOM     25  C   UNL     1      -0.362   9.816  23.385  0.00  0.00    +0.000 C 
ATOM     26  O   UNL     1      -1.111  11.055  23.391  0.00  0.00    +0.000 OA
ATOM     27  C   UNL     1      -1.183  11.604  22.057  0.00  0.00    +0.000 C 
ENDBRANCH  17  19
ENDBRANCH   1  16
TORSDOF 3
ENDMDL
MODEL 4
REMARK VINA RESULT:      -7.7      5.676      8.020
REMARK  Name = 
REMARK  3 active torsions:
REMARK  status: ('A' for Active; 'I' for Inactive)
REMARK    1  A    between atoms: C_2  and  C_13
REMARK    2  A    between atoms: N_3  and  C_4
REMARK    3  A    between atoms: N_15  and  C_16
REMARK                            x       y       z     vdW  Elec       q    Type
REMARK                         _______ _______ _______ _____ _____    ______ ____
ROOT
ATOM      1  C   UNL     1       6.698   7.076  17.611  0.00  0.00    +0.000 C 
ATOM      2  O   UNL     1       6.484   7.224  16.416  0.00  0.00    +0.000 OA
ATOM      3  N   UNL     1       5.967   6.389  18.562  0.00  0.00    +0.000 N 
ATOM      4  H   UNL     1       6.288   6.513  19.518  0.00  0.00    +0.000 HD
ENDROOT
BRANCH   3   5
ATOM      5  C   UNL     1       4.798   5.632  18.354  0.00  0.00    +0.000 A 
ATOM      6  C   UNL     1       3.551   6.223  18.156  0.00  0.00    +0.000 A 
ATOM      7  C   UNL     1       2.394   5.453  17.992  0.00  0.00    +0.000 A 
ATOM      8  C   UNL     1       2.525   4.064  18.049  0.00  0.00    +0.000 A 
ATOM      9  N   UNL     1       1.566   3.081  17.963  0.00  0.00    +0.000 N 
ATOM     10  C   UNL     1       2.144   1.846  18.092  0.00  0.00    +0.000 A 
ATOM     11  C   UNL     1       3.501   2.031  18.241  0.00  0.00    +0.000 A 
ATOM     12  C   UNL     1       3.755   3.432  18.221  0.00  0.00    +0.000 A 
ATOM     13  C   UNL     1       4.914   4.230  18.350  0.00  0.00    +0.000 A 
ATOM     14  H   UNL     1       0.578   3.254  17.843  0.00  0.00    +0.000 HD
ENDBRANCH   3   5
BRANCH   1  16
ATOM     15  O   UNL     1       8.674   7.112  18.914  0.00  0.00    +0.000 OA
ATOM     16  C   UNL     1       7.919   7.786  18.225  0.00  0.00    +0.000 C 
ATOM     17  N   UNL     1       7.961   9.147  17.964  0.00  0.00    +0.000 N 
ATOM     18  H   UNL     1       7.147   9.524  17.486  0.00  0.00    +0.000 HD
BRANCH  17  19
ATOM     19  C   UNL     1       8.933  10.044  18.457  0.00  0.00    +0.000 A 
ATOM     20  C   UNL     1       9.141  10.230  19.835  0.00  0.00    +0.000 A 
ATOM     21  C   UNL     1      10.030  11.194  20.312  0.00  0.00    +0.000 A 
ATOM     22  C   UNL     1      10.707  11.968  19.391  0.00  0.00    +0.000 A 
ATOM     23  C   UNL     1      10.555  11.761  18.031  0.00  0.00    +0.000 A 
ATOM     24  C   UNL     1       9.690  10.789  17.541  0.00  0.00    +0.000 A 
ATOM     25  C   UNL     1      11.399  12.740  17.298  0.00  0.00    +0.000 C 
ATOM     26  O   UNL     1      12.022  13.557  18.320  0.00  0.00    +0.000 OA
ATOM     27  C   UNL     1      11.630  13.101  19.633  0.00  0.00    +0.000 C 
ENDBRANCH  17  19
ENDBRANCH   1  16
TORSDOF 3
ENDMDL
MODEL 5
REMARK VINA RESULT:      -7.6      5.964      7.996
REMARK  Name = 
REMARK  3 active torsions:
REMARK  status: ('A' for Active; 'I' for Inactive)
REMARK    1  A    between atoms: C_2  and  C_13
REMARK    2  A    between atoms: N_3  and  C_4
REMARK    3  A    between atoms: N_15  and  C_16
REMARK                            x       y       z     vdW  Elec       q    Type
REMARK                         _______ _______ _______ _____ _____    ______ ____
ROOT
ATOM      1  C   UNL     1       7.491   7.235  18.151  0.00  0.00    +0.000 C 
ATOM      2  O   UNL     1       8.094   6.377  18.783  0.00  0.00    +0.000 OA
ATOM      3  N   UNL     1       6.298   7.147  17.460  0.00  0.00    +0.000 N 
ATOM      4  H   UNL     1       6.062   7.969  16.911  0.00  0.00    +0.000 HD
ENDROOT
BRANCH   3   5
ATOM      5  C   UNL     1       5.448   6.028  17.367  0.00  0.00    +0.000 A 
ATOM      6  C   UNL     1       5.760   4.916  16.586  0.00  0.00    +0.000 A 
ATOM      7  C   UNL     1       4.884   3.831  16.474  0.00  0.00    +0.000 A 
ATOM      8  C   UNL     1       3.669   3.904  17.158  0.00  0.00    +0.000 A 
ATOM      9  N   UNL     1       2.618   3.017  17.193  0.00  0.00    +0.000 N 
ATOM     10  C   UNL     1       1.613   3.507  17.983  0.00  0.00    +0.000 A 
ATOM     11  C   UNL     1       2.028   4.720  18.487  0.00  0.00    +0.000 A 
ATOM     12  C   UNL     1       3.328   4.986  17.967  0.00  0.00    +0.000 A 
ATOM     13  C   UNL     1       4.244   6.054  18.093  0.00  0.00    +0.000 A 
ATOM     14  H   UNL     1       2.592   2.142  16.688  0.00  0.00    +0.000 HD
ENDBRANCH   3   5
BRANCH   1  16
ATOM     15  O   UNL     1       8.107   9.156  16.915  0.00  0.00    +0.000 OA
ATOM     16  C   UNL     1       8.134   8.627  18.019  0.00  0.00    +0.000 C 
ATOM     17  N   UNL     1       8.737   9.076  19.184  0.00  0.00    +0.000 N 
ATOM     18  H   UNL     1       8.762   8.404  19.947  0.00  0.00    +0.000 HD
BRANCH  17  19
ATOM     19  C   UNL     1       9.450  10.286  19.323  0.00  0.00    +0.000 A 
ATOM     20  C   UNL     1       9.676  10.874  20.579  0.00  0.00    +0.000 A 
ATOM     21  C   UNL     1      10.291  12.121  20.697  0.00  0.00    +0.000 A 
ATOM     22  C   UNL     1      10.676  12.770  19.542  0.00  0.00    +0.000 A 
ATOM     23  C   UNL     1      10.511  12.181  18.300  0.00  0.00    +0.000 A 
ATOM     24  C   UNL     1       9.920  10.928  18.168  0.00  0.00    +0.000 A 
ATOM     25  C   UNL     1      11.010  13.112  17.255  0.00  0.00    +0.000 C 
ATOM     26  O   UNL     1      11.441  14.298  17.967  0.00  0.00    +0.000 OA
ATOM     27  C   UNL     1      11.263  14.121  19.389  0.00  0.00    +0.000 C 
ENDBRANCH  17  19
ENDBRANCH   1  16
TORSDOF 3
ENDMDL
MODEL 6
REMARK VINA RESULT:      -7.6      5.758      8.042
REMARK  Name = 
REMARK  3 active torsions:
REMARK  status: ('A' for Active; 'I' for Inactive)
REMARK    1  A    between atoms: C_2  and  C_13
REMARK    2  A    between atoms: N_3  and  C_4
REMARK    3  A    between atoms: N_15  and  C_16
REMARK                            x       y       z     vdW  Elec       q    Type
REMARK                         _______ _______ _______ _____ _____    ______ ____
ROOT
ATOM      1  C   UNL     1       6.978   7.056  17.678  0.00  0.00    +0.000 C 
ATOM      2  O   UNL     1       6.532   7.487  16.623  0.00  0.00    +0.000 OA
ATOM      3  N   UNL     1       6.582   5.962  18.424  0.00  0.00    +0.000 N 
ATOM      4  H   UNL     1       7.033   5.878  19.331  0.00  0.00    +0.000 HD
ENDROOT
BRANCH   3   5
ATOM      5  C   UNL     1       5.576   5.031  18.102  0.00  0.00    +0.000 A 
ATOM      6  C   UNL     1       5.333   4.617  16.793  0.00  0.00    +0.000 A 
ATOM      7  C   UNL     1       4.302   3.721  16.488  0.00  0.00    +0.000 A 
ATOM      8  C   UNL     1       3.506   3.265  17.541  0.00  0.00    +0.000 A 
ATOM      9  N   UNL     1       2.415   2.426  17.526  0.00  0.00    +0.000 N 
ATOM     10  C   UNL     1       1.927   2.265  18.795  0.00  0.00    +0.000 A 
ATOM     11  C   UNL     1       2.728   2.992  19.648  0.00  0.00    +0.000 A 
ATOM     12  C   UNL     1       3.729   3.635  18.866  0.00  0.00    +0.000 A 
ATOM     13  C   UNL     1       4.798   4.513  19.153  0.00  0.00    +0.000 A 
ATOM     14  H   UNL     1       2.024   2.011  16.691  0.00  0.00    +0.000 HD
ENDBRANCH   3   5
BRANCH   1  16
ATOM     15  O   UNL     1       8.813   7.231  19.163  0.00  0.00    +0.000 OA
ATOM     16  C   UNL     1       8.115   7.837  18.360  0.00  0.00    +0.000 C 
ATOM     17  N   UNL     1       8.152   9.180  18.017  0.00  0.00    +0.000 N 
ATOM     18  H   UNL     1       7.381   9.503  17.438  0.00  0.00    +0.000 HD
BRANCH  17  19
ATOM     19  C   UNL     1       9.050  10.135  18.542  0.00  0.00    +0.000 A 
ATOM     20  C   UNL     1       9.141  10.387  19.922  0.00  0.00    +0.000 A 
ATOM     21  C   UNL     1       9.955  11.404  20.423  0.00  0.00    +0.000 A 
ATOM     22  C   UNL     1      10.675  12.163  19.524  0.00  0.00    +0.000 A 
ATOM     23  C   UNL     1      10.640  11.894  18.167  0.00  0.00    +0.000 A 
ATOM     24  C   UNL     1       9.851  10.868  17.656  0.00  0.00    +0.000 A 
ATOM     25  C   UNL     1      11.504  12.872  17.458  0.00  0.00    +0.000 C 
ATOM     26  O   UNL     1      12.015  13.755  18.488  0.00  0.00    +0.000 OA
ATOM     27  C   UNL     1      11.535  13.341  19.786  0.00  0.00    +0.000 C 
ENDBRANCH  17  19
ENDBRANCH   1  16
TORSDOF 3
ENDMDL
MODEL 7
REMARK VINA RESULT:      -7.5      3.380      9.397
REMARK  Name = 
REMARK  3 active torsions:
REMARK  status: ('A' for Active; 'I' for Inactive)
REMARK    1  A    between atoms: C_2  and  C_13
REMARK    2  A    between atoms: N_3  and  C_4
REMARK    3  A    between atoms: N_15  and  C_16
REMARK                            x       y       z     vdW  Elec       q    Type
REMARK                         _______ _______ _______ _____ _____    ______ ____
ROOT
ATOM      1  C   UNL     1       0.865   9.399  18.780  0.00  0.00    +0.000 C 
ATOM      2  O   UNL     1       0.798   9.278  19.996  0.00  0.00    +0.000 OA
ATOM      3  N   UNL     1      -0.002  10.026  17.905  0.00  0.00    +0.000 N 
ATOM      4  H   UNL     1       0.211   9.887  16.921  0.00  0.00    +0.000 HD
ENDROOT
BRANCH   3   5
ATOM      5  C   UNL     1      -1.172  10.739  18.230  0.00  0.00    +0.000 A 
ATOM      6  C   UNL     1      -1.261  11.552  19.359  0.00  0.00    +0.000 A 
ATOM      7  C   UNL     1      -2.445  12.221  19.687  0.00  0.00    +0.000 A 
ATOM      8  C   UNL     1      -3.549  12.034  18.853  0.00  0.00    +0.000 A 
ATOM      9  N   UNL     1      -4.830  12.527  18.956  0.00  0.00    +0.000 N 
ATOM     10  C   UNL     1      -5.597  12.067  17.920  0.00  0.00    +0.000 A 
ATOM     11  C   UNL     1      -4.795  11.283  17.119  0.00  0.00    +0.000 A 
ATOM     12  C   UNL     1      -3.496  11.249  17.702  0.00  0.00    +0.000 A 
ATOM     13  C   UNL     1      -2.279  10.612  17.373  0.00  0.00    +0.000 A 
ATOM     14  H   UNL     1      -5.155  13.123  19.704  0.00  0.00    +0.000 HD
ENDBRANCH   3   5
BRANCH   1  16
ATOM     15  O   UNL     1       2.557   9.343  17.125  0.00  0.00    +0.000 OA
ATOM     16  C   UNL     1       2.038   8.725  18.045  0.00  0.00    +0.000 C 
ATOM     17  N   UNL     1       2.310   7.440  18.492  0.00  0.00    +0.000 N 
ATOM     18  H   UNL     1       1.654   7.069  19.175  0.00  0.00    +0.000 HD
BRANCH  17  19
ATOM     19  C   UNL     1       3.287   6.576  17.952  0.00  0.00    +0.000 A 
ATOM     20  C   UNL     1       3.025   5.215  17.716  0.00  0.00    +0.000 A 
ATOM     21  C   UNL     1       4.028   4.348  17.281  0.00  0.00    +0.000 A 
ATOM     22  C   UNL     1       5.294   4.861  17.087  0.00  0.00    +0.000 A 
ATOM     23  C   UNL     1       5.556   6.209  17.261  0.00  0.00    +0.000 A 
ATOM     24  C   UNL     1       4.561   7.090  17.673  0.00  0.00    +0.000 A 
ATOM     25  C   UNL     1       6.994   6.459  16.986  0.00  0.00    +0.000 C 
ATOM     26  O   UNL     1       7.562   5.163  16.677  0.00  0.00    +0.000 OA
ATOM     27  C   UNL     1       6.537   4.146  16.715  0.00  0.00    +0.000 C 
ENDBRANCH  17  19
ENDBRANCH   1  16
TORSDOF 3
ENDMDL
MODEL 8
REMARK VINA RESULT:      -7.5      3.301      9.794
REMARK  Name = 
REMARK  3 active torsions:
REMARK  status: ('A' for Active; 'I' for Inactive)
REMARK    1  A    between atoms: C_2  and  C_13
REMARK    2  A    between atoms: N_3  and  C_4
REMARK    3  A    between atoms: N_15  and  C_16
REMARK                            x       y       z     vdW  Elec       q    Type
REMARK                         _______ _______ _______ _____ _____    ______ ____
ROOT
ATOM      1  C   UNL     1       0.845   9.809  21.562  0.00  0.00    +0.000 C 
ATOM      2  O   UNL     1       1.302   9.656  22.688  0.00  0.00    +0.000 OA
ATOM      3  N   UNL     1      -0.043  10.758  21.091  0.00  0.00    +0.000 N 
ATOM      4  H   UNL     1      -0.366  10.603  20.139  0.00  0.00    +0.000 HD
ENDROOT
BRANCH   3   5
ATOM      5  C   UNL     1      -0.601  11.833  21.808  0.00  0.00    +0.000 A 
ATOM      6  C   UNL     1       0.013  13.083  21.877  0.00  0.00    +0.000 A 
ATOM      7  C   UNL     1      -0.536  14.128  22.627  0.00  0.00    +0.000 A 
ATOM      8  C   UNL     1      -1.719  13.874  23.325  0.00  0.00    +0.000 A 
ATOM      9  N   UNL     1      -2.445  14.690  24.161  0.00  0.00    +0.000 N 
ATOM     10  C   UNL     1      -3.534  14.017  24.648  0.00  0.00    +0.000 A 
ATOM     11  C   UNL     1      -3.525  12.753  24.101  0.00  0.00    +0.000 A 
ATOM     12  C   UNL     1      -2.377  12.647  23.265  0.00  0.00    +0.000 A 
ATOM     13  C   UNL     1      -1.821  11.618  22.472  0.00  0.00    +0.000 A 
ATOM     14  H   UNL     1      -2.193  15.641  24.394  0.00  0.00    +0.000 HD
ENDBRANCH   3   5
BRANCH   1  16
ATOM     15  O   UNL     1       1.077   9.125  19.309  0.00  0.00    +0.000 OA
ATOM     16  C   UNL     1       1.232   8.790  20.476  0.00  0.00    +0.000 C 
ATOM     17  N   UNL     1       1.649   7.568  20.981  0.00  0.00    +0.000 N 
ATOM     18  H   UNL     1       1.562   7.461  21.989  0.00  0.00    +0.000 HD
BRANCH  17  19
ATOM     19  C   UNL     1       2.000   6.440  20.209  0.00  0.00    +0.000 A 
ATOM     20  C   UNL     1       2.896   6.530  19.129  0.00  0.00    +0.000 A 
ATOM     21  C   UNL     1       3.157   5.432  18.309  0.00  0.00    +0.000 A 
ATOM     22  C   UNL     1       2.509   4.245  18.583  0.00  0.00    +0.000 A 
ATOM     23  C   UNL     1       1.666   4.124  19.674  0.00  0.00    +0.000 A 
ATOM     24  C   UNL     1       1.414   5.203  20.515  0.00  0.00    +0.000 A 
ATOM     25  C   UNL     1       1.117   2.744  19.708  0.00  0.00    +0.000 C 
ATOM     26  O   UNL     1       1.664   2.080  18.542  0.00  0.00    +0.000 OA
ATOM     27  C   UNL     1       2.545   2.973  17.825  0.00  0.00    +0.000 C 
ENDBRANCH  17  19
ENDBRANCH   1  16
TORSDOF 3
ENDMDL
MODEL 9
REMARK VINA RESULT:      -7.5      2.411      3.285
REMARK  Name = 
REMARK  3 active torsions:
REMARK  status: ('A' for Active; 'I' for Inactive)
REMARK    1  A    between atoms: C_2  and  C_13
REMARK    2  A    between atoms: N_3  and  C_4
REMARK    3  A    between atoms: N_15  and  C_16
REMARK                            x       y       z     vdW  Elec       q    Type
REMARK                         _______ _______ _______ _____ _____    ______ ____
ROOT
ATOM      1  C   UNL     1       2.121   8.575  18.054  0.00  0.00    +0.000 C 
ATOM      2  O   UNL     1       2.550   9.124  17.047  0.00  0.00    +0.000 OA
ATOM      3  N   UNL     1       2.338   7.292  18.521  0.00  0.00    +0.000 N 
ATOM      4  H   UNL     1       1.771   7.030  19.323  0.00  0.00    +0.000 HD
ENDROOT
BRANCH   3   5
ATOM      5  C   UNL     1       3.171   6.309  17.955  0.00  0.00    +0.000 A 
ATOM      6  C   UNL     1       2.777   4.977  17.832  0.00  0.00    +0.000 A 
ATOM      7  C   UNL     1       3.635   4.005  17.304  0.00  0.00    +0.000 A 
ATOM      8  C   UNL     1       4.914   4.411  16.917  0.00  0.00    +0.000 A 
ATOM      9  N   UNL     1       5.961   3.673  16.413  0.00  0.00    +0.000 N 
ATOM     10  C   UNL     1       7.043   4.482  16.190  0.00  0.00    +0.000 A 
ATOM     11  C   UNL     1       6.684   5.767  16.533  0.00  0.00    +0.000 A 
ATOM     12  C   UNL     1       5.339   5.735  17.000  0.00  0.00    +0.000 A 
ATOM     13  C   UNL     1       4.443   6.704  17.504  0.00  0.00    +0.000 A 
ATOM     14  H   UNL     1       5.933   2.675  16.254  0.00  0.00    +0.000 HD
ENDBRANCH   3   5
BRANCH   1  16
ATOM     15  O   UNL     1       0.998   8.968  20.100  0.00  0.00    +0.000 OA
ATOM     16  C   UNL     1       1.142   9.357  18.947  0.00  0.00    +0.000 C 
ATOM     17  N   UNL     1       0.482  10.382  18.287  0.00  0.00    +0.000 N 
ATOM     18  H   UNL     1       0.653  10.435  17.286  0.00  0.00    +0.000 HD
BRANCH  17  19
ATOM     19  C   UNL     1      -0.511  11.213  18.850  0.00  0.00    +0.000 A 
ATOM     20  C   UNL     1      -0.221  12.119  19.884  0.00  0.00    +0.000 A 
ATOM     21  C   UNL     1      -1.228  12.860  20.504  0.00  0.00    +0.000 A 
ATOM     22  C   UNL     1      -2.527  12.680  20.075  0.00  0.00    +0.000 A 
ATOM     23  C   UNL     1      -2.823  11.833  19.021  0.00  0.00    +0.000 A 
ATOM     24  C   UNL     1      -1.827  11.105  18.379  0.00  0.00    +0.000 A 
ATOM     25  C   UNL     1      -4.291  11.842  18.793  0.00  0.00    +0.000 C 
ATOM     26  O   UNL     1      -4.836  12.721  19.809  0.00  0.00    +0.000 OA
ATOM     27  C   UNL     1      -3.772  13.273  20.616  0.00  0.00    +0.000 C 
ENDBRANCH  17  19
ENDBRANCH   1  16
TORSDOF 3
ENDMDL
