MODEL 1
REMARK VINA RESULT:      -7.7      0.000      0.000
REMARK  Name = 
REMARK  7 active torsions:
REMARK  status: ('A' for Active; 'I' for Inactive)
REMARK    1  A    between atoms: C_2  and  C_11
REMARK    2  A    between atoms: N_3  and  C_4
REMARK    3  A    between atoms: C_6  and  C_7
REMARK    4  A    between atoms: C_7  and  O_9
REMARK    5  A    between atoms: C_15  and  S_16
REMARK    6  A    between atoms: S_16  and  C_19
REMARK    7  A    between atoms: C_19  and  C_20
REMARK                            x       y       z     vdW  Elec       q    Type
REMARK                         _______ _______ _______ _____ _____    ______ ____
ROOT
ATOM      1  C   UNL     1       2.646   5.469  19.028  0.00  0.00    +0.000 A 
ATOM      2  C   UNL     1       2.169   4.227  18.581  0.00  0.00    +0.000 A 
ATOM      3  C   UNL     1       2.785   3.567  17.520  0.00  0.00    +0.000 A 
ATOM      4  C   UNL     1       3.879   4.145  16.876  0.00  0.00    +0.000 A 
ATOM      5  C   UNL     1       4.344   5.393  17.300  0.00  0.00    +0.000 A 
ATOM      6  C   UNL     1       3.738   6.058  18.379  0.00  0.00    +0.000 A 
ENDROOT
BRANCH   1   8
ATOM      7  O   UNL     1       1.285   5.413  20.948  0.00  0.00    +0.000 OA
ATOM      8  C   UNL     1       1.918   6.110  20.160  0.00  0.00    +0.000 C 
ATOM      9  N   UNL     1       2.010   7.481  20.286  0.00  0.00    +0.000 N 
ATOM     10  H   UNL     1       2.501   8.009  19.566  0.00  0.00    +0.000 HD
BRANCH   9  11
ATOM     11  C   UNL     1       1.265   8.210  21.337  0.00  0.00    +0.000 C 
ATOM     12  C   UNL     1       1.574   9.724  21.399  0.00  0.00    +0.000 C 
ATOM     13  C   UNL     1       0.400   9.952  20.406  0.00  0.00    +0.000 C 
ATOM     14  C   UNL     1      -0.170   8.599  20.910  0.00  0.00    +0.000 C 
BRANCH  13  15
ATOM     15  C   UNL     1       0.782  10.045  18.896  0.00  0.00    +0.000 C 
ATOM     16  O   UNL     1       1.070   9.094  18.173  0.00  0.00    +0.000 OA
BRANCH  15  17
ATOM     17  O   UNL     1       0.798  11.313  18.406  0.00  0.00    +0.000 OA
ATOM     18  H   UNL     1       1.158  11.969  19.031  0.00  0.00    +0.000 HD
ENDBRANCH  15  17
ENDBRANCH  13  15
ENDBRANCH   9  11
ENDBRANCH   1   8
BRANCH   5  19
ATOM     19  S   UNL     1       5.692   6.231  16.475  0.00  0.00    +0.000 S 
ATOM     20  O   UNL     1       5.121   6.741  15.241  0.00  0.00    +0.000 OA
ATOM     21  O   UNL     1       6.262   7.112  17.479  0.00  0.00    +0.000 OA
BRANCH  19  22
ATOM     22  C   UNL     1       6.891   4.973  16.069  0.00  0.00    +0.000 C 
BRANCH  22  23
ATOM     23  C   UNL     1       6.871   4.683  14.591  0.00  0.00    +0.000 A 
ATOM     24  C   UNL     1       7.724   5.373  13.717  0.00  0.00    +0.000 A 
ATOM     25  C   UNL     1       7.733   5.073  12.353  0.00  0.00    +0.000 A 
ATOM     26  C   UNL     1       6.889   4.086  11.849  0.00  0.00    +0.000 A 
ATOM     27  C   UNL     1       6.026   3.406  12.705  0.00  0.00    +0.000 A 
ATOM     28  C   UNL     1       6.014   3.703  14.069  0.00  0.00    +0.000 A 
ENDBRANCH  22  23
ENDBRANCH  19  22
ENDBRANCH   5  19
TORSDOF 7
ENDMDL
MODEL 2
REMARK VINA RESULT:      -7.6      3.150      9.321
REMARK  Name = 
REMARK  7 active torsions:
REMARK  status: ('A' for Active; 'I' for Inactive)
REMARK    1  A    between atoms: C_2  and  C_11
REMARK    2  A    between atoms: N_3  and  C_4
REMARK    3  A    between atoms: C_6  and  C_7
REMARK    4  A    between atoms: C_7  and  O_9
REMARK    5  A    between atoms: C_15  and  S_16
REMARK    6  A    between atoms: S_16  and  C_19
REMARK    7  A    between atoms: C_19  and  C_20
REMARK                            x       y       z     vdW  Elec       q    Type
REMARK                         _______ _______ _______ _____ _____    ______ ____
ROOT
ATOM      1  C   UNL     1       2.425   7.240  19.105  0.00  0.00    +0.000 A 
ATOM      2  C   UNL     1       2.336   7.917  17.879  0.00  0.00    +0.000 A 
ATOM      3  C   UNL     1       1.719   9.163  17.795  0.00  0.00    +0.000 A 
ATOM      4  C   UNL     1       1.165   9.748  18.934  0.00  0.00    +0.000 A 
ATOM      5  C   UNL     1       1.228   9.069  20.154  0.00  0.00    +0.000 A 
ATOM      6  C   UNL     1       1.862   7.818  20.249  0.00  0.00    +0.000 A 
ENDROOT
BRANCH   1   8
ATOM      7  O   UNL     1       3.093   5.223  20.118  0.00  0.00    +0.000 OA
ATOM      8  C   UNL     1       3.089   5.906  19.098  0.00  0.00    +0.000 C 
ATOM      9  N   UNL     1       3.661   5.482  17.916  0.00  0.00    +0.000 N 
ATOM     10  H   UNL     1       3.678   6.119  17.122  0.00  0.00    +0.000 HD
BRANCH   9  11
ATOM     11  C   UNL     1       4.402   4.202  17.834  0.00  0.00    +0.000 C 
ATOM     12  C   UNL     1       4.915   3.856  16.417  0.00  0.00    +0.000 C 
ATOM     13  C   UNL     1       6.234   4.601  16.768  0.00  0.00    +0.000 C 
ATOM     14  C   UNL     1       5.885   4.328  18.256  0.00  0.00    +0.000 C 
BRANCH  13  15
ATOM     15  C   UNL     1       6.325   6.093  16.320  0.00  0.00    +0.000 C 
ATOM     16  O   UNL     1       5.403   6.753  15.848  0.00  0.00    +0.000 OA
BRANCH  15  17
ATOM     17  O   UNL     1       7.558   6.642  16.473  0.00  0.00    +0.000 OA
ATOM     18  H   UNL     1       8.014   6.359  17.287  0.00  0.00    +0.000 HD
ENDBRANCH  15  17
ENDBRANCH  13  15
ENDBRANCH   9  11
ENDBRANCH   1   8
BRANCH   5  19
ATOM     19  S   UNL     1       0.474   9.718  21.640  0.00  0.00    +0.000 S 
ATOM     20  O   UNL     1      -0.847   9.118  21.686  0.00  0.00    +0.000 OA
ATOM     21  O   UNL     1       1.454   9.502  22.689  0.00  0.00    +0.000 OA
BRANCH  19  22
ATOM     22  C   UNL     1       0.290  11.476  21.381  0.00  0.00    +0.000 C 
BRANCH  22  23
ATOM     23  C   UNL     1      -1.111  11.914  21.719  0.00  0.00    +0.000 A 
ATOM     24  C   UNL     1      -1.996  12.315  20.708  0.00  0.00    +0.000 A 
ATOM     25  C   UNL     1      -3.307  12.682  21.020  0.00  0.00    +0.000 A 
ATOM     26  C   UNL     1      -3.745  12.655  22.342  0.00  0.00    +0.000 A 
ATOM     27  C   UNL     1      -2.870  12.273  23.356  0.00  0.00    +0.000 A 
ATOM     28  C   UNL     1      -1.559  11.907  23.048  0.00  0.00    +0.000 A 
ENDBRANCH  22  23
ENDBRANCH  19  22
ENDBRANCH   5  19
TORSDOF 7
ENDMDL
MODEL 3
REMARK VINA RESULT:      -7.6      1.775      2.749
REMARK  Name = 
REMARK  7 active torsions:
REMARK  status: ('A' for Active; 'I' for Inactive)
REMARK    1  A    between atoms: C_2  and  C_11
REMARK    2  A    between atoms: N_3  and  C_4
REMARK    3  A    between atoms: C_6  and  C_7
REMARK    4  A    between atoms: C_7  and  O_9
REMARK    5  A    between atoms: C_15  and  S_16
REMARK    6  A    between atoms: S_16  and  C_19
REMARK    7  A    between atoms: C_19  and  C_20
REMARK                            x       y       z     vdW  Elec       q    Type
REMARK                         _______ _______ _______ _____ _____    ______ ____
ROOT
ATOM      1  C   UNL     1       2.705   7.603  18.550  0.00  0.00    +0.000 A 
ATOM      2  C   UNL     1       2.292   6.719  19.559  0.00  0.00    +0.000 A 
ATOM      3  C   UNL     1       2.958   5.512  19.765  0.00  0.00    +0.000 A 
ATOM      4  C   UNL     1       4.039   5.161  18.957  0.00  0.00    +0.000 A 
ATOM      5  C   UNL     1       4.441   6.026  17.935  0.00  0.00    +0.000 A 
ATOM      6  C   UNL     1       3.783   7.251  17.730  0.00  0.00    +0.000 A 
ENDROOT
BRANCH   1   8
ATOM      7  O   UNL     1       1.881   9.416  17.296  0.00  0.00    +0.000 OA
ATOM      8  C   UNL     1       1.926   8.864  18.391  0.00  0.00    +0.000 C 
ATOM      9  N   UNL     1       1.261   9.349  19.498  0.00  0.00    +0.000 N 
ATOM     10  H   UNL     1       1.386   8.878  20.393  0.00  0.00    +0.000 HD
BRANCH   9  11
ATOM     11  C   UNL     1       0.519  10.630  19.452  0.00  0.00    +0.000 C 
ATOM     12  C   UNL     1      -0.959  10.523  19.894  0.00  0.00    +0.000 C 
ATOM     13  C   UNL     1      -0.495  10.841  21.343  0.00  0.00    +0.000 C 
ATOM     14  C   UNL     1       0.749  11.513  20.701  0.00  0.00    +0.000 C 
BRANCH  13  15
ATOM     15  C   UNL     1      -0.240   9.613  22.272  0.00  0.00    +0.000 C 
ATOM     16  O   UNL     1      -0.408   8.437  21.960  0.00  0.00    +0.000 OA
BRANCH  15  17
ATOM     17  O   UNL     1       0.181   9.942  23.521  0.00  0.00    +0.000 OA
ATOM     18  H   UNL     1       0.243   9.180  24.126  0.00  0.00    +0.000 HD
ENDBRANCH  15  17
ENDBRANCH  13  15
ENDBRANCH   9  11
ENDBRANCH   1   8
BRANCH   5  19
ATOM     19  S   UNL     1       5.767   5.611  16.810  0.00  0.00    +0.000 S 
ATOM     20  O   UNL     1       5.922   6.779  15.961  0.00  0.00    +0.000 OA
ATOM     21  O   UNL     1       6.844   5.126  17.654  0.00  0.00    +0.000 OA
BRANCH  19  22
ATOM     22  C   UNL     1       5.170   4.258  15.809  0.00  0.00    +0.000 C 
BRANCH  22  23
ATOM     23  C   UNL     1       5.882   4.230  14.482  0.00  0.00    +0.000 A 
ATOM     24  C   UNL     1       5.306   3.585  13.378  0.00  0.00    +0.000 A 
ATOM     25  C   UNL     1       5.949   3.596  12.138  0.00  0.00    +0.000 A 
ATOM     26  C   UNL     1       7.172   4.247  11.990  0.00  0.00    +0.000 A 
ATOM     27  C   UNL     1       7.761   4.877  13.084  0.00  0.00    +0.000 A 
ATOM     28  C   UNL     1       7.121   4.868  14.325  0.00  0.00    +0.000 A 
ENDBRANCH  22  23
ENDBRANCH  19  22
ENDBRANCH   5  19
TORSDOF 7
ENDMDL
MODEL 4
REMARK VINA RESULT:      -7.6      4.334      8.213
REMARK  Name = 
REMARK  7 active torsions:
REMARK  status: ('A' for Active; 'I' for Inactive)
REMARK    1  A    between atoms: C_2  and  C_11
REMARK    2  A    between atoms: N_3  and  C_4
REMARK    3  A    between atoms: C_6  and  C_7
REMARK    4  A    between atoms: C_7  and  O_9
REMARK    5  A    between atoms: C_15  and  S_16
REMARK    6  A    between atoms: S_16  and  C_19
REMARK    7  A    between atoms: C_19  and  C_20
REMARK                            x       y       z     vdW  Elec       q    Type
REMARK                         _______ _______ _______ _____ _____    ______ ____
ROOT
ATOM      1  C   UNL     1       2.469   6.900  19.446  0.00  0.00    +0.000 A 
ATOM      2  C   UNL     1       2.924   7.182  18.148  0.00  0.00    +0.000 A 
ATOM      3  C   UNL     1       2.652   8.410  17.549  0.00  0.00    +0.000 A 
ATOM      4  C   UNL     1       1.907   9.372  18.230  0.00  0.00    +0.000 A 
ATOM      5  C   UNL     1       1.430   9.089  19.513  0.00  0.00    +0.000 A 
ATOM      6  C   UNL     1       1.713   7.858  20.130  0.00  0.00    +0.000 A 
ENDROOT
BRANCH   1   8
ATOM      7  O   UNL     1       2.397   5.250  21.123  0.00  0.00    +0.000 OA
ATOM      8  C   UNL     1       2.794   5.556  20.003  0.00  0.00    +0.000 C 
ATOM      9  N   UNL     1       3.520   4.693  19.208  0.00  0.00    +0.000 N 
ATOM     10  H   UNL     1       3.871   5.027  18.312  0.00  0.00    +0.000 HD
BRANCH   9  11
ATOM     11  C   UNL     1       3.948   3.364  19.704  0.00  0.00    +0.000 C 
ATOM     12  C   UNL     1       2.893   2.644  20.576  0.00  0.00    +0.000 C 
ATOM     13  C   UNL     1       2.345   1.986  19.279  0.00  0.00    +0.000 C 
ATOM     14  C   UNL     1       3.750   2.234  18.667  0.00  0.00    +0.000 C 
BRANCH  13  15
ATOM     15  C   UNL     1       1.136   2.703  18.600  0.00  0.00    +0.000 C 
ATOM     16  O   UNL     1       1.206   3.456  17.631  0.00  0.00    +0.000 OA
BRANCH  15  17
ATOM     17  O   UNL     1      -0.061   2.446  19.188  0.00  0.00    +0.000 OA
ATOM     18  H   UNL     1      -0.232   2.989  19.980  0.00  0.00    +0.000 HD
ENDBRANCH  15  17
ENDBRANCH  13  15
ENDBRANCH   9  11
ENDBRANCH   1   8
BRANCH   5  19
ATOM     19  S   UNL     1       0.404  10.241  20.418  0.00  0.00    +0.000 S 
ATOM     20  O   UNL     1      -0.768   9.478  20.807  0.00  0.00    +0.000 OA
ATOM     21  O   UNL     1       1.287  10.847  21.398  0.00  0.00    +0.000 OA
BRANCH  19  22
ATOM     22  C   UNL     1      -0.097  11.493  19.247  0.00  0.00    +0.000 C 
BRANCH  22  23
ATOM     23  C   UNL     1      -1.449  11.164  18.670  0.00  0.00    +0.000 A 
ATOM     24  C   UNL     1      -2.587  11.881  19.068  0.00  0.00    +0.000 A 
ATOM     25  C   UNL     1      -3.832  11.602  18.502  0.00  0.00    +0.000 A 
ATOM     26  C   UNL     1      -3.954  10.604  17.537  0.00  0.00    +0.000 A 
ATOM     27  C   UNL     1      -2.834   9.876  17.146  0.00  0.00    +0.000 A 
ATOM     28  C   UNL     1      -1.587  10.151  17.710  0.00  0.00    +0.000 A 
ENDBRANCH  22  23
ENDBRANCH  19  22
ENDBRANCH   5  19
TORSDOF 7
ENDMDL
MODEL 5
REMARK VINA RESULT:      -7.5      2.709      4.502
REMARK  Name = 
REMARK  7 active torsions:
REMARK  status: ('A' for Active; 'I' for Inactive)
REMARK    1  A    between atoms: C_2  and  C_11
REMARK    2  A    between atoms: N_3  and  C_4
REMARK    3  A    between atoms: C_6  and  C_7
REMARK    4  A    between atoms: C_7  and  O_9
REMARK    5  A    between atoms: C_15  and  S_16
REMARK    6  A    between atoms: S_16  and  C_19
REMARK    7  A    between atoms: C_19  and  C_20
REMARK                            x       y       z     vdW  Elec       q    Type
REMARK                         _______ _______ _______ _____ _____    ______ ____
ROOT
ATOM      1  C   UNL     1       2.499   7.718  18.785  0.00  0.00    +0.000 A 
ATOM      2  C   UNL     1       2.064   7.170  20.002  0.00  0.00    +0.000 A 
ATOM      3  C   UNL     1       2.646   6.011  20.510  0.00  0.00    +0.000 A 
ATOM      4  C   UNL     1       3.662   5.369  19.802  0.00  0.00    +0.000 A 
ATOM      5  C   UNL     1       4.084   5.895  18.578  0.00  0.00    +0.000 A 
ATOM      6  C   UNL     1       3.512   7.073  18.066  0.00  0.00    +0.000 A 
ENDROOT
BRANCH   1   8
ATOM      7  O   UNL     1       2.150   9.468  17.250  0.00  0.00    +0.000 OA
ATOM      8  C   UNL     1       1.811   8.952  18.311  0.00  0.00    +0.000 C 
ATOM      9  N   UNL     1       0.788   9.454  19.090  0.00  0.00    +0.000 N 
ATOM     10  H   UNL     1       0.594   9.015  19.988  0.00  0.00    +0.000 HD
BRANCH   9  11
ATOM     11  C   UNL     1       0.095  10.713  18.733  0.00  0.00    +0.000 C 
ATOM     12  C   UNL     1      -1.345  10.822  19.287  0.00  0.00    +0.000 C 
ATOM     13  C   UNL     1      -0.752  11.504  20.552  0.00  0.00    +0.000 C 
ATOM     14  C   UNL     1       0.459  11.894  19.663  0.00  0.00    +0.000 C 
BRANCH  13  15
ATOM     15  C   UNL     1      -0.469  10.571  21.770  0.00  0.00    +0.000 C 
ATOM     16  O   UNL     1      -0.397   9.345  21.729  0.00  0.00    +0.000 OA
BRANCH  15  17
ATOM     17  O   UNL     1      -0.319  11.230  22.949  0.00  0.00    +0.000 OA
ATOM     18  H   UNL     1       0.295  10.793  23.567  0.00  0.00    +0.000 HD
ENDBRANCH  15  17
ENDBRANCH  13  15
ENDBRANCH   9  11
ENDBRANCH   1   8
BRANCH   5  19
ATOM     19  S   UNL     1       5.326   5.087  17.577  0.00  0.00    +0.000 S 
ATOM     20  O   UNL     1       5.820   6.119  16.683  0.00  0.00    +0.000 OA
ATOM     21  O   UNL     1       6.195   4.410  18.523  0.00  0.00    +0.000 OA
BRANCH  19  22
ATOM     22  C   UNL     1       4.467   3.859  16.607  0.00  0.00    +0.000 C 
BRANCH  22  23
ATOM     23  C   UNL     1       3.325   3.270  17.393  0.00  0.00    +0.000 A 
ATOM     24  C   UNL     1       3.526   2.152  18.214  0.00  0.00    +0.000 A 
ATOM     25  C   UNL     1       2.475   1.634  18.973  0.00  0.00    +0.000 A 
ATOM     26  C   UNL     1       1.214   2.224  18.917  0.00  0.00    +0.000 A 
ATOM     27  C   UNL     1       0.999   3.325  18.092  0.00  0.00    +0.000 A 
ATOM     28  C   UNL     1       2.047   3.846  17.331  0.00  0.00    +0.000 A 
ENDBRANCH  22  23
ENDBRANCH  19  22
ENDBRANCH   5  19
TORSDOF 7
ENDMDL
MODEL 6
REMARK VINA RESULT:      -7.5      2.859      4.028
REMARK  Name = 
REMARK  7 active torsions:
REMARK  status: ('A' for Active; 'I' for Inactive)
REMARK    1  A    between atoms: C_2  and  C_11
REMARK    2  A    between atoms: N_3  and  C_4
REMARK    3  A    between atoms: C_6  and  C_7
REMARK    4  A    between atoms: C_7  and  O_9
REMARK    5  A    between atoms: C_15  and  S_16
REMARK    6  A    between atoms: S_16  and  C_19
REMARK    7  A    between atoms: C_19  and  C_20
REMARK                            x       y       z     vdW  Elec       q    Type
REMARK                         _______ _______ _______ _____ _____    ______ ____
ROOT
ATOM      1  C   UNL     1       2.203   7.259  18.953  0.00  0.00    +0.000 A 
ATOM      2  C   UNL     1       1.944   6.972  20.302  0.00  0.00    +0.000 A 
ATOM      3  C   UNL     1       2.206   5.707  20.825  0.00  0.00    +0.000 A 
ATOM      4  C   UNL     1       2.718   4.702  20.004  0.00  0.00    +0.000 A 
ATOM      5  C   UNL     1       2.957   4.974  18.654  0.00  0.00    +0.000 A 
ATOM      6  C   UNL     1       2.708   6.251  18.123  0.00  0.00    +0.000 A 
ENDROOT
BRANCH   1   8
ATOM      7  O   UNL     1       2.279   9.005  17.376  0.00  0.00    +0.000 OA
ATOM      8  C   UNL     1       1.879   8.633  18.476  0.00  0.00    +0.000 C 
ATOM      9  N   UNL     1       1.111   9.431  19.298  0.00  0.00    +0.000 N 
ATOM     10  H   UNL     1       0.861   9.086  20.224  0.00  0.00    +0.000 HD
BRANCH   9  11
ATOM     11  C   UNL     1       0.797  10.833  18.938  0.00  0.00    +0.000 C 
ATOM     12  C   UNL     1      -0.662  11.253  19.235  0.00  0.00    +0.000 C 
ATOM     13  C   UNL     1      -0.188  11.717  20.641  0.00  0.00    +0.000 C 
ATOM     14  C   UNL     1       1.229  11.851  20.019  0.00  0.00    +0.000 C 
BRANCH  13  15
ATOM     15  C   UNL     1      -0.360  10.689  21.802  0.00  0.00    +0.000 C 
ATOM     16  O   UNL     1      -0.432   9.470  21.671  0.00  0.00    +0.000 OA
BRANCH  15  17
ATOM     17  O   UNL     1      -0.451  11.256  23.034  0.00  0.00    +0.000 OA
ATOM     18  H   UNL     1      -1.252  10.996  23.526  0.00  0.00    +0.000 HD
ENDBRANCH  15  17
ENDBRANCH  13  15
ENDBRANCH   9  11
ENDBRANCH   1   8
BRANCH   5  19
ATOM     19  S   UNL     1       3.539   3.717  17.523  0.00  0.00    +0.000 S 
ATOM     20  O   UNL     1       4.363   2.835  18.330  0.00  0.00    +0.000 OA
ATOM     21  O   UNL     1       2.351   3.243  16.837  0.00  0.00    +0.000 OA
BRANCH  19  22
ATOM     22  C   UNL     1       4.588   4.551  16.343  0.00  0.00    +0.000 C 
BRANCH  22  23
ATOM     23  C   UNL     1       5.684   5.303  17.052  0.00  0.00    +0.000 A 
ATOM     24  C   UNL     1       6.527   4.647  17.961  0.00  0.00    +0.000 A 
ATOM     25  C   UNL     1       7.568   5.337  18.585  0.00  0.00    +0.000 A 
ATOM     26  C   UNL     1       7.775   6.687  18.311  0.00  0.00    +0.000 A 
ATOM     27  C   UNL     1       6.935   7.353  17.422  0.00  0.00    +0.000 A 
ATOM     28  C   UNL     1       5.893   6.667  16.796  0.00  0.00    +0.000 A 
ENDBRANCH  22  23
ENDBRANCH  19  22
ENDBRANCH   5  19
TORSDOF 7
ENDMDL
MODEL 7
REMARK VINA RESULT:      -7.4      3.118      9.207
REMARK  Name = 
REMARK  7 active torsions:
REMARK  status: ('A' for Active; 'I' for Inactive)
REMARK    1  A    between atoms: C_2  and  C_11
REMARK    2  A    between atoms: N_3  and  C_4
REMARK    3  A    between atoms: C_6  and  C_7
REMARK    4  A    between atoms: C_7  and  O_9
REMARK    5  A    between atoms: C_15  and  S_16
REMARK    6  A    between atoms: S_16  and  C_19
REMARK    7  A    between atoms: C_19  and  C_20
REMARK                            x       y       z     vdW  Elec       q    Type
REMARK                         _______ _______ _______ _____ _____    ______ ____
ROOT
ATOM      1  C   UNL     1       2.479   7.283  19.085  0.00  0.00    +0.000 A 
ATOM      2  C   UNL     1       2.559   8.037  17.905  0.00  0.00    +0.000 A 
ATOM      3  C   UNL     1       1.953   9.289  17.816  0.00  0.00    +0.000 A 
ATOM      4  C   UNL     1       1.242   9.801  18.901  0.00  0.00    +0.000 A 
ATOM      5  C   UNL     1       1.138   9.045  20.072  0.00  0.00    +0.000 A 
ATOM      6  C   UNL     1       1.759   7.788  20.174  0.00  0.00    +0.000 A 
ENDROOT
BRANCH   1   8
ATOM      7  O   UNL     1       3.192   5.294  20.123  0.00  0.00    +0.000 OA
ATOM      8  C   UNL     1       3.144   5.949  19.086  0.00  0.00    +0.000 C 
ATOM      9  N   UNL     1       3.666   5.494  17.893  0.00  0.00    +0.000 N 
ATOM     10  H   UNL     1       3.648   6.110  17.082  0.00  0.00    +0.000 HD
BRANCH   9  11
ATOM     11  C   UNL     1       4.405   4.213  17.813  0.00  0.00    +0.000 C 
ATOM     12  C   UNL     1       4.942   3.877  16.403  0.00  0.00    +0.000 C 
ATOM     13  C   UNL     1       6.256   4.615  16.782  0.00  0.00    +0.000 C 
ATOM     14  C   UNL     1       5.881   4.331  18.262  0.00  0.00    +0.000 C 
BRANCH  13  15
ATOM     15  C   UNL     1       6.359   6.110  16.348  0.00  0.00    +0.000 C 
ATOM     16  O   UNL     1       5.447   6.777  15.865  0.00  0.00    +0.000 OA
BRANCH  15  17
ATOM     17  O   UNL     1       7.591   6.654  16.527  0.00  0.00    +0.000 OA
ATOM     18  H   UNL     1       8.084   6.789  15.696  0.00  0.00    +0.000 HD
ENDBRANCH  15  17
ENDBRANCH  13  15
ENDBRANCH   9  11
ENDBRANCH   1   8
BRANCH   5  19
ATOM     19  S   UNL     1       0.180   9.600  21.477  0.00  0.00    +0.000 S 
ATOM     20  O   UNL     1      -0.598   8.444  21.885  0.00  0.00    +0.000 OA
ATOM     21  O   UNL     1       1.139  10.233  22.364  0.00  0.00    +0.000 OA
BRANCH  19  22
ATOM     22  C   UNL     1      -0.939  10.847  20.859  0.00  0.00    +0.000 C 
BRANCH  22  23
ATOM     23  C   UNL     1      -0.709  12.158  21.564  0.00  0.00    +0.000 A 
ATOM     24  C   UNL     1       0.197  13.096  21.048  0.00  0.00    +0.000 A 
ATOM     25  C   UNL     1       0.378  14.327  21.681  0.00  0.00    +0.000 A 
ATOM     26  C   UNL     1      -0.340  14.632  22.835  0.00  0.00    +0.000 A 
ATOM     27  C   UNL     1      -1.231  13.702  23.365  0.00  0.00    +0.000 A 
ATOM     28  C   UNL     1      -1.414  12.470  22.736  0.00  0.00    +0.000 A 
ENDBRANCH  22  23
ENDBRANCH  19  22
ENDBRANCH   5  19
TORSDOF 7
ENDMDL
MODEL 8
REMARK VINA RESULT:      -7.4      4.092      9.126
REMARK  Name = 
REMARK  7 active torsions:
REMARK  status: ('A' for Active; 'I' for Inactive)
REMARK    1  A    between atoms: C_2  and  C_11
REMARK    2  A    between atoms: N_3  and  C_4
REMARK    3  A    between atoms: C_6  and  C_7
REMARK    4  A    between atoms: C_7  and  O_9
REMARK    5  A    between atoms: C_15  and  S_16
REMARK    6  A    between atoms: S_16  and  C_19
REMARK    7  A    between atoms: C_19  and  C_20
REMARK                            x       y       z     vdW  Elec       q    Type
REMARK                         _______ _______ _______ _____ _____    ______ ____
ROOT
ATOM      1  C   UNL     1       2.644   7.086  18.884  0.00  0.00    +0.000 A 
ATOM      2  C   UNL     1       2.609   7.822  17.690  0.00  0.00    +0.000 A 
ATOM      3  C   UNL     1       2.011   9.079  17.645  0.00  0.00    +0.000 A 
ATOM      4  C   UNL     1       1.424   9.617  18.790  0.00  0.00    +0.000 A 
ATOM      5  C   UNL     1       1.435   8.880  19.978  0.00  0.00    +0.000 A 
ATOM      6  C   UNL     1       2.049   7.617  20.034  0.00  0.00    +0.000 A 
ENDROOT
BRANCH   1   8
ATOM      7  O   UNL     1       4.459   5.619  19.194  0.00  0.00    +0.000 OA
ATOM      8  C   UNL     1       3.291   5.744  18.836  0.00  0.00    +0.000 C 
ATOM      9  N   UNL     1       2.526   4.679  18.406  0.00  0.00    +0.000 N 
ATOM     10  H   UNL     1       1.582   4.858  18.067  0.00  0.00    +0.000 HD
BRANCH   9  11
ATOM     11  C   UNL     1       3.103   3.324  18.261  0.00  0.00    +0.000 C 
ATOM     12  C   UNL     1       3.827   2.804  19.526  0.00  0.00    +0.000 C 
ATOM     13  C   UNL     1       2.476   2.183  19.980  0.00  0.00    +0.000 C 
ATOM     14  C   UNL     1       2.070   2.194  18.482  0.00  0.00    +0.000 C 
BRANCH  13  15
ATOM     15  C   UNL     1       1.615   3.043  20.957  0.00  0.00    +0.000 C 
ATOM     16  O   UNL     1       1.867   3.243  22.143  0.00  0.00    +0.000 OA
BRANCH  15  17
ATOM     17  O   UNL     1       0.497   3.569  20.392  0.00  0.00    +0.000 OA
ATOM     18  H   UNL     1      -0.119   2.897  20.044  0.00  0.00    +0.000 HD
ENDBRANCH  15  17
ENDBRANCH  13  15
ENDBRANCH   9  11
ENDBRANCH   1   8
BRANCH   5  19
ATOM     19  S   UNL     1       0.636   9.468  21.466  0.00  0.00    +0.000 S 
ATOM     20  O   UNL     1      -0.707   8.919  21.417  0.00  0.00    +0.000 OA
ATOM     21  O   UNL     1       1.558   9.151  22.542  0.00  0.00    +0.000 OA
BRANCH  19  22
ATOM     22  C   UNL     1       0.529  11.244  21.308  0.00  0.00    +0.000 C 
BRANCH  22  23
ATOM     23  C   UNL     1      -0.852  11.723  21.670  0.00  0.00    +0.000 A 
ATOM     24  C   UNL     1      -1.705  12.249  20.689  0.00  0.00    +0.000 A 
ATOM     25  C   UNL     1      -2.999  12.654  21.021  0.00  0.00    +0.000 A 
ATOM     26  C   UNL     1      -3.453  12.541  22.333  0.00  0.00    +0.000 A 
ATOM     27  C   UNL     1      -2.610  12.034  23.319  0.00  0.00    +0.000 A 
ATOM     28  C   UNL     1      -1.315  11.628  22.991  0.00  0.00    +0.000 A 
ENDBRANCH  22  23
ENDBRANCH  19  22
ENDBRANCH   5  19
TORSDOF 7
ENDMDL
MODEL 9
REMARK VINA RESULT:      -7.4      4.333      8.163
REMARK  Name = 
REMARK  7 active torsions:
REMARK  status: ('A' for Active; 'I' for Inactive)
REMARK    1  A    between atoms: C_2  and  C_11
REMARK    2  A    between atoms: N_3  and  C_4
REMARK    3  A    between atoms: C_6  and  C_7
REMARK    4  A    between atoms: C_7  and  O_9
REMARK    5  A    between atoms: C_15  and  S_16
REMARK    6  A    between atoms: S_16  and  C_19
REMARK    7  A    between atoms: C_19  and  C_20
REMARK                            x       y       z     vdW  Elec       q    Type
REMARK                         _______ _______ _______ _____ _____    ______ ____
ROOT
ATOM      1  C   UNL     1       2.539   7.007  19.390  0.00  0.00    +0.000 A 
ATOM      2  C   UNL     1       2.929   7.270  18.068  0.00  0.00    +0.000 A 
ATOM      3  C   UNL     1       2.573   8.463  17.444  0.00  0.00    +0.000 A 
ATOM      4  C   UNL     1       1.807   9.409  18.125  0.00  0.00    +0.000 A 
ATOM      5  C   UNL     1       1.396   9.144  19.435  0.00  0.00    +0.000 A 
ATOM      6  C   UNL     1       1.763   7.949  20.076  0.00  0.00    +0.000 A 
ENDROOT
BRANCH   1   8
ATOM      7  O   UNL     1       4.123   5.338  19.889  0.00  0.00    +0.000 OA
ATOM      8  C   UNL     1       2.953   5.699  19.973  0.00  0.00    +0.000 C 
ATOM      9  N   UNL     1       1.986   4.950  20.612  0.00  0.00    +0.000 N 
ATOM     10  H   UNL     1       1.021   5.275  20.596  0.00  0.00    +0.000 HD
BRANCH   9  11
ATOM     11  C   UNL     1       2.289   3.608  21.161  0.00  0.00    +0.000 C 
ATOM     12  C   UNL     1       1.240   2.528  20.809  0.00  0.00    +0.000 C 
ATOM     13  C   UNL     1       2.076   2.201  19.540  0.00  0.00    +0.000 C 
ATOM     14  C   UNL     1       3.290   2.807  20.296  0.00  0.00    +0.000 C 
BRANCH  13  15
ATOM     15  C   UNL     1       1.635   2.907  18.221  0.00  0.00    +0.000 C 
ATOM     16  O   UNL     1       0.676   3.668  18.105  0.00  0.00    +0.000 OA
BRANCH  15  17
ATOM     17  O   UNL     1       2.403   2.598  17.144  0.00  0.00    +0.000 OA
ATOM     18  H   UNL     1       2.166   1.750  16.724  0.00  0.00    +0.000 HD
ENDBRANCH  15  17
ENDBRANCH  13  15
ENDBRANCH   9  11
ENDBRANCH   1   8
BRANCH   5  19
ATOM     19  S   UNL     1       0.349  10.272  20.346  0.00  0.00    +0.000 S 
ATOM     20  O   UNL     1      -0.823   9.495  20.704  0.00  0.00    +0.000 OA
ATOM     21  O   UNL     1       1.214  10.866  21.349  0.00  0.00    +0.000 OA
BRANCH  19  22
ATOM     22  C   UNL     1      -0.144  11.542  19.191  0.00  0.00    +0.000 C 
BRANCH  22  23
ATOM     23  C   UNL     1      -1.490  11.221  18.597  0.00  0.00    +0.000 A 
ATOM     24  C   UNL     1      -1.622  10.212  17.632  0.00  0.00    +0.000 A 
ATOM     25  C   UNL     1      -2.878   9.889  17.114  0.00  0.00    +0.000 A 
ATOM     26  C   UNL     1      -4.011  10.571  17.551  0.00  0.00    +0.000 A 
ATOM     27  C   UNL     1      -3.890  11.585  18.498  0.00  0.00    +0.000 A 
ATOM     28  C   UNL     1      -2.637  11.911  19.018  0.00  0.00    +0.000 A 
ENDBRANCH  22  23
ENDBRANCH  19  22
ENDBRANCH   5  19
TORSDOF 7
ENDMDL
