MODEL 1
REMARK VINA RESULT:      -8.5      0.000      0.000
REMARK  Name = 
REMARK  8 active torsions:
REMARK  status: ('A' for Active; 'I' for Inactive)
REMARK    1  A    between atoms: C_1  and  C_2
REMARK    2  A    between atoms: C_2  and  S_3
REMARK    3  A    between atoms: C_2  and  C_10
REMARK    4  A    between atoms: S_3  and  C_4
REMARK    5  A    between atoms: N_8  and  C_9
REMARK    6  A    between atoms: C_14  and  N_15
REMARK    7  A    between atoms: C_16  and  C_18
REMARK    8  A    between atoms: C_21  and  C_22
REMARK                            x       y       z     vdW  Elec       q    Type
REMARK                         _______ _______ _______ _____ _____    ______ ____
ROOT
ATOM      1  C   UNL     1       4.457   4.781  17.470  0.00  0.00    +0.000 A 
ATOM      2  C   UNL     1       3.772   3.562  17.340  0.00  0.00    +0.000 A 
ATOM      3  C   UNL     1       2.494   3.404  17.869  0.00  0.00    +0.000 A 
ATOM      4  C   UNL     1       1.884   4.449  18.564  0.00  0.00    +0.000 A 
ATOM      5  C   UNL     1       2.549   5.659  18.770  0.00  0.00    +0.000 A 
ATOM      6  C   UNL     1       3.834   5.818  18.209  0.00  0.00    +0.000 A 
ENDROOT
BRANCH   5   7
ATOM      7  N   UNL     1       1.994   6.719  19.535  0.00  0.00    +0.000 N 
ATOM      8  C   UNL     1       1.886   8.056  19.162  0.00  0.00    +0.000 C 
ATOM      9  O   UNL     1       2.319   8.567  18.134  0.00  0.00    +0.000 OA
ATOM     10  H   UNL     1       1.583   6.494  20.437  0.00  0.00    +0.000 HD
BRANCH   8  11
ATOM     11  C   UNL     1       1.148   8.938  20.135  0.00  0.00    +0.000 A 
ATOM     12  C   UNL     1       1.127   8.603  21.487  0.00  0.00    +0.000 A 
ATOM     13  C   UNL     1       0.469   9.442  22.391  0.00  0.00    +0.000 A 
ATOM     14  C   UNL     1      -0.156  10.601  21.924  0.00  0.00    +0.000 A 
ATOM     15  C   UNL     1      -0.081  10.840  20.546  0.00  0.00    +0.000 A 
ATOM     16  N   UNL     1       0.549  10.049  19.635  0.00  0.00    +0.000 NA
BRANCH  14  17
ATOM     17  C   UNL     1      -0.862  11.564  22.783  0.00  0.00    +0.000 C 
ATOM     18  C   UNL     1      -2.082  12.053  22.568  0.00  0.00    +0.000 C 
ATOM     19  C   UNL     1      -3.281  12.791  22.737  0.00  0.00    +0.000 C 
ATOM     20  N   UNL     1      -2.447  12.964  23.619  0.00  0.00    +0.000 NA
ENDBRANCH  14  17
ENDBRANCH   8  11
ENDBRANCH   5   7
BRANCH   1  22
ATOM     21  C   UNL     1       6.988   4.798  17.828  0.00  0.00    +0.000 C 
ATOM     22  C   UNL     1       5.839   4.902  16.822  0.00  0.00    +0.000 C 
BRANCH  22  23
ATOM     23  S   UNL     1       6.016   3.652  15.490  0.00  0.00    +0.000 S 
BRANCH  23  24
ATOM     24  C   UNL     1       6.931   4.502  14.290  0.00  0.00    +0.000 A 
ATOM     25  N   UNL     1       7.829   5.441  14.479  0.00  0.00    +0.000 NA
ATOM     26  N   UNL     1       8.325   5.799  13.239  0.00  0.00    +0.000 NA
ATOM     27  C   UNL     1       7.705   5.075  12.337  0.00  0.00    +0.000 A 
ATOM     28  N   UNL     1       6.810   4.251  12.953  0.00  0.00    +0.000 N 
ATOM     29  C   UNL     1       5.947   3.302  12.306  0.00  0.00    +0.000 C 
ENDBRANCH  23  24
ENDBRANCH  22  23
ENDBRANCH   1  22
TORSDOF 6
ENDMDL
MODEL 2
REMARK VINA RESULT:      -8.2      2.625      4.251
REMARK  Name = 
REMARK  8 active torsions:
REMARK  status: ('A' for Active; 'I' for Inactive)
REMARK    1  A    between atoms: C_1  and  C_2
REMARK    2  A    between atoms: C_2  and  S_3
REMARK    3  A    between atoms: C_2  and  C_10
REMARK    4  A    between atoms: S_3  and  C_4
REMARK    5  A    between atoms: N_8  and  C_9
REMARK    6  A    between atoms: C_14  and  N_15
REMARK    7  A    between atoms: C_16  and  C_18
REMARK    8  A    between atoms: C_21  and  C_22
REMARK                            x       y       z     vdW  Elec       q    Type
REMARK                         _______ _______ _______ _____ _____    ______ ____
ROOT
ATOM      1  C   UNL     1       2.587   6.928  19.379  0.00  0.00    +0.000 A 
ATOM      2  C   UNL     1       3.023   7.367  18.119  0.00  0.00    +0.000 A 
ATOM      3  C   UNL     1       2.566   8.570  17.587  0.00  0.00    +0.000 A 
ATOM      4  C   UNL     1       1.643   9.346  18.290  0.00  0.00    +0.000 A 
ATOM      5  C   UNL     1       1.138   8.923  19.521  0.00  0.00    +0.000 A 
ATOM      6  C   UNL     1       1.625   7.715  20.061  0.00  0.00    +0.000 A 
ENDROOT
BRANCH   5   7
ATOM      7  N   UNL     1       0.143   9.646  20.231  0.00  0.00    +0.000 N 
ATOM      8  C   UNL     1       0.342  10.728  21.084  0.00  0.00    +0.000 C 
ATOM      9  O   UNL     1       1.421  11.201  21.430  0.00  0.00    +0.000 OA
ATOM     10  H   UNL     1      -0.830   9.394  20.081  0.00  0.00    +0.000 HD
BRANCH   8  11
ATOM     11  C   UNL     1      -0.914  11.369  21.613  0.00  0.00    +0.000 A 
ATOM     12  C   UNL     1      -1.243  11.229  22.960  0.00  0.00    +0.000 A 
ATOM     13  C   UNL     1      -2.393  11.853  23.453  0.00  0.00    +0.000 A 
ATOM     14  C   UNL     1      -3.190  12.608  22.589  0.00  0.00    +0.000 A 
ATOM     15  C   UNL     1      -2.773  12.679  21.253  0.00  0.00    +0.000 A 
ATOM     16  N   UNL     1      -1.663  12.085  20.736  0.00  0.00    +0.000 NA
BRANCH  14  17
ATOM     17  C   UNL     1      -4.410  13.321  22.999  0.00  0.00    +0.000 C 
ATOM     18  C   UNL     1      -5.648  13.046  22.593  0.00  0.00    +0.000 C 
ATOM     19  C   UNL     1      -7.058  13.109  22.446  0.00  0.00    +0.000 C 
ATOM     20  N   UNL     1      -6.586  13.948  23.206  0.00  0.00    +0.000 NA
ENDBRANCH  14  17
ENDBRANCH   8  11
ENDBRANCH   5   7
BRANCH   1  22
ATOM     21  C   UNL     1       2.192   4.857  20.824  0.00  0.00    +0.000 C 
ATOM     22  C   UNL     1       3.167   5.620  19.925  0.00  0.00    +0.000 C 
BRANCH  22  23
ATOM     23  S   UNL     1       3.745   4.566  18.538  0.00  0.00    +0.000 S 
BRANCH  23  24
ATOM     24  C   UNL     1       5.462   4.785  18.583  0.00  0.00    +0.000 A 
ATOM     25  N   UNL     1       6.199   5.159  19.604  0.00  0.00    +0.000 NA
ATOM     26  N   UNL     1       7.517   5.159  19.189  0.00  0.00    +0.000 NA
ATOM     27  C   UNL     1       7.538   4.796  17.927  0.00  0.00    +0.000 A 
ATOM     28  N   UNL     1       6.265   4.561  17.501  0.00  0.00    +0.000 N 
ATOM     29  C   UNL     1       5.876   4.137  16.184  0.00  0.00    +0.000 C 
ENDBRANCH  23  24
ENDBRANCH  22  23
ENDBRANCH   1  22
TORSDOF 6
ENDMDL
MODEL 3
REMARK VINA RESULT:      -8.0      2.554      4.109
REMARK  Name = 
REMARK  8 active torsions:
REMARK  status: ('A' for Active; 'I' for Inactive)
REMARK    1  A    between atoms: C_1  and  C_2
REMARK    2  A    between atoms: C_2  and  S_3
REMARK    3  A    between atoms: C_2  and  C_10
REMARK    4  A    between atoms: S_3  and  C_4
REMARK    5  A    between atoms: N_8  and  C_9
REMARK    6  A    between atoms: C_14  and  N_15
REMARK    7  A    between atoms: C_16  and  C_18
REMARK    8  A    between atoms: C_21  and  C_22
REMARK                            x       y       z     vdW  Elec       q    Type
REMARK                         _______ _______ _______ _____ _____    ______ ____
ROOT
ATOM      1  C   UNL     1       2.745   6.640  19.385  0.00  0.00    +0.000 A 
ATOM      2  C   UNL     1       3.116   6.999  18.080  0.00  0.00    +0.000 A 
ATOM      3  C   UNL     1       2.672   8.192  17.517  0.00  0.00    +0.000 A 
ATOM      4  C   UNL     1       1.825   9.038  18.234  0.00  0.00    +0.000 A 
ATOM      5  C   UNL     1       1.382   8.695  19.513  0.00  0.00    +0.000 A 
ATOM      6  C   UNL     1       1.857   7.496  20.084  0.00  0.00    +0.000 A 
ENDROOT
BRANCH   5   7
ATOM      7  N   UNL     1       0.462   9.491  20.246  0.00  0.00    +0.000 N 
ATOM      8  C   UNL     1       0.541  10.860  20.483  0.00  0.00    +0.000 C 
ATOM      9  O   UNL     1       1.460  11.609  20.163  0.00  0.00    +0.000 OA
ATOM     10  H   UNL     1      -0.377   9.044  20.606  0.00  0.00    +0.000 HD
BRANCH   8  11
ATOM     11  C   UNL     1      -0.642  11.458  21.199  0.00  0.00    +0.000 A 
ATOM     12  C   UNL     1      -1.484  12.337  20.520  0.00  0.00    +0.000 A 
ATOM     13  C   UNL     1      -2.599  12.864  21.178  0.00  0.00    +0.000 A 
ATOM     14  C   UNL     1      -2.851  12.500  22.504  0.00  0.00    +0.000 A 
ATOM     15  C   UNL     1      -1.938  11.617  23.095  0.00  0.00    +0.000 A 
ATOM     16  N   UNL     1      -0.843  11.084  22.488  0.00  0.00    +0.000 NA
BRANCH  14  17
ATOM     17  C   UNL     1      -4.000  12.978  23.288  0.00  0.00    +0.000 C 
ATOM     18  C   UNL     1      -5.274  12.956  22.899  0.00  0.00    +0.000 C 
ATOM     19  C   UNL     1      -6.682  13.120  22.908  0.00  0.00    +0.000 C 
ATOM     20  N   UNL     1      -6.118  13.501  23.928  0.00  0.00    +0.000 NA
ENDBRANCH  14  17
ENDBRANCH   8  11
ENDBRANCH   5   7
BRANCH   1  22
ATOM     21  C   UNL     1       2.312   4.588  20.847  0.00  0.00    +0.000 C 
ATOM     22  C   UNL     1       3.309   5.337  19.960  0.00  0.00    +0.000 C 
BRANCH  22  23
ATOM     23  S   UNL     1       3.914   4.264  18.599  0.00  0.00    +0.000 S 
BRANCH  23  24
ATOM     24  C   UNL     1       5.612   4.600  18.575  0.00  0.00    +0.000 A 
ATOM     25  N   UNL     1       6.372   4.977  19.578  0.00  0.00    +0.000 NA
ATOM     26  N   UNL     1       7.665   5.089  19.103  0.00  0.00    +0.000 NA
ATOM     27  C   UNL     1       7.647   4.787  17.825  0.00  0.00    +0.000 A 
ATOM     28  N   UNL     1       6.373   4.483  17.448  0.00  0.00    +0.000 N 
ATOM     29  C   UNL     1       5.950   4.093  16.131  0.00  0.00    +0.000 C 
ENDBRANCH  23  24
ENDBRANCH  22  23
ENDBRANCH   1  22
TORSDOF 6
ENDMDL
MODEL 4
REMARK VINA RESULT:      -8.0      2.608      4.048
REMARK  Name = 
REMARK  8 active torsions:
REMARK  status: ('A' for Active; 'I' for Inactive)
REMARK    1  A    between atoms: C_1  and  C_2
REMARK    2  A    between atoms: C_2  and  S_3
REMARK    3  A    between atoms: C_2  and  C_10
REMARK    4  A    between atoms: S_3  and  C_4
REMARK    5  A    between atoms: N_8  and  C_9
REMARK    6  A    between atoms: C_14  and  N_15
REMARK    7  A    between atoms: C_16  and  C_18
REMARK    8  A    between atoms: C_21  and  C_22
REMARK                            x       y       z     vdW  Elec       q    Type
REMARK                         _______ _______ _______ _____ _____    ______ ____
ROOT
ATOM      1  C   UNL     1       2.682   6.679  19.345  0.00  0.00    +0.000 A 
ATOM      2  C   UNL     1       3.014   6.897  17.999  0.00  0.00    +0.000 A 
ATOM      3  C   UNL     1       2.675   8.091  17.368  0.00  0.00    +0.000 A 
ATOM      4  C   UNL     1       1.974   9.080  18.059  0.00  0.00    +0.000 A 
ATOM      5  C   UNL     1       1.571   8.884  19.382  0.00  0.00    +0.000 A 
ATOM      6  C   UNL     1       1.940   7.681  20.019  0.00  0.00    +0.000 A 
ENDROOT
BRANCH   5   7
ATOM      7  N   UNL     1       0.792   9.833  20.095  0.00  0.00    +0.000 N 
ATOM      8  C   UNL     1      -0.439  10.361  19.717  0.00  0.00    +0.000 C 
ATOM      9  O   UNL     1      -1.034  10.153  18.664  0.00  0.00    +0.000 OA
ATOM     10  H   UNL     1       1.127  10.141  21.004  0.00  0.00    +0.000 HD
BRANCH   8  11
ATOM     11  C   UNL     1      -1.088  11.268  20.730  0.00  0.00    +0.000 A 
ATOM     12  C   UNL     1      -0.654  11.243  22.054  0.00  0.00    +0.000 A 
ATOM     13  C   UNL     1      -1.237  12.110  22.983  0.00  0.00    +0.000 A 
ATOM     14  C   UNL     1      -2.243  12.986  22.569  0.00  0.00    +0.000 A 
ATOM     15  C   UNL     1      -2.610  12.924  21.218  0.00  0.00    +0.000 A 
ATOM     16  N   UNL     1      -2.068  12.095  20.285  0.00  0.00    +0.000 NA
BRANCH  14  17
ATOM     17  C   UNL     1      -2.915  13.951  23.453  0.00  0.00    +0.000 C 
ATOM     18  C   UNL     1      -2.369  14.553  24.508  0.00  0.00    +0.000 C 
ATOM     19  C   UNL     1      -2.212  15.383  25.648  0.00  0.00    +0.000 C 
ATOM     20  N   UNL     1      -3.323  15.433  25.129  0.00  0.00    +0.000 NA
ENDBRANCH  14  17
ENDBRANCH   8  11
ENDBRANCH   5   7
BRANCH   1  22
ATOM     21  C   UNL     1       2.022   4.685  20.803  0.00  0.00    +0.000 C 
ATOM     22  C   UNL     1       3.128   5.363  19.991  0.00  0.00    +0.000 C 
BRANCH  22  23
ATOM     23  S   UNL     1       3.791   4.231  18.708  0.00  0.00    +0.000 S 
BRANCH  23  24
ATOM     24  C   UNL     1       5.474   4.636  18.675  0.00  0.00    +0.000 A 
ATOM     25  N   UNL     1       6.219   5.059  19.670  0.00  0.00    +0.000 NA
ATOM     26  N   UNL     1       7.506   5.216  19.190  0.00  0.00    +0.000 NA
ATOM     27  C   UNL     1       7.498   4.894  17.917  0.00  0.00    +0.000 A 
ATOM     28  N   UNL     1       6.237   4.533  17.548  0.00  0.00    +0.000 N 
ATOM     29  C   UNL     1       5.827   4.106  16.238  0.00  0.00    +0.000 C 
ENDBRANCH  23  24
ENDBRANCH  22  23
ENDBRANCH   1  22
TORSDOF 6
ENDMDL
MODEL 5
REMARK VINA RESULT:      -8.0      3.290     10.734
REMARK  Name = 
REMARK  8 active torsions:
REMARK  status: ('A' for Active; 'I' for Inactive)
REMARK    1  A    between atoms: C_1  and  C_2
REMARK    2  A    between atoms: C_2  and  S_3
REMARK    3  A    between atoms: C_2  and  C_10
REMARK    4  A    between atoms: S_3  and  C_4
REMARK    5  A    between atoms: N_8  and  C_9
REMARK    6  A    between atoms: C_14  and  N_15
REMARK    7  A    between atoms: C_16  and  C_18
REMARK    8  A    between atoms: C_21  and  C_22
REMARK                            x       y       z     vdW  Elec       q    Type
REMARK                         _______ _______ _______ _____ _____    ______ ____
ROOT
ATOM      1  C   UNL     1       0.175  10.240  19.855  0.00  0.00    +0.000 A 
ATOM      2  C   UNL     1      -0.118   9.735  21.131  0.00  0.00    +0.000 A 
ATOM      3  C   UNL     1       0.521   8.594  21.609  0.00  0.00    +0.000 A 
ATOM      4  C   UNL     1       1.446   7.918  20.812  0.00  0.00    +0.000 A 
ATOM      5  C   UNL     1       1.727   8.350  19.514  0.00  0.00    +0.000 A 
ATOM      6  C   UNL     1       1.091   9.519  19.048  0.00  0.00    +0.000 A 
ENDROOT
BRANCH   5   7
ATOM      7  N   UNL     1       2.604   7.647  18.645  0.00  0.00    +0.000 N 
ATOM      8  C   UNL     1       3.119   6.368  18.829  0.00  0.00    +0.000 C 
ATOM      9  O   UNL     1       2.964   5.648  19.812  0.00  0.00    +0.000 OA
ATOM     10  H   UNL     1       2.861   8.088  17.767  0.00  0.00    +0.000 HD
BRANCH   8  11
ATOM     11  C   UNL     1       3.938   5.833  17.684  0.00  0.00    +0.000 A 
ATOM     12  C   UNL     1       4.021   4.457  17.481  0.00  0.00    +0.000 A 
ATOM     13  C   UNL     1       4.756   3.967  16.397  0.00  0.00    +0.000 A 
ATOM     14  C   UNL     1       5.392   4.864  15.535  0.00  0.00    +0.000 A 
ATOM     15  C   UNL     1       5.251   6.225  15.833  0.00  0.00    +0.000 A 
ATOM     16  N   UNL     1       4.546   6.741  16.878  0.00  0.00    +0.000 NA
BRANCH  14  17
ATOM     17  C   UNL     1       6.176   4.464  14.356  0.00  0.00    +0.000 C 
ATOM     18  C   UNL     1       5.717   3.777  13.311  0.00  0.00    +0.000 C 
ATOM     19  C   UNL     1       5.670   3.104  12.063  0.00  0.00    +0.000 C 
ATOM     20  N   UNL     1       6.767   3.573  12.349  0.00  0.00    +0.000 NA
ENDBRANCH  14  17
ENDBRANCH   8  11
ENDBRANCH   5   7
BRANCH   1  22
ATOM     21  C   UNL     1       0.430  12.578  18.852  0.00  0.00    +0.000 C 
ATOM     22  C   UNL     1      -0.530  11.525  19.411  0.00  0.00    +0.000 C 
BRANCH  22  23
ATOM     23  S   UNL     1      -1.850  11.128  18.199  0.00  0.00    +0.000 S 
BRANCH  23  24
ATOM     24  C   UNL     1      -3.256  11.834  18.922  0.00  0.00    +0.000 A 
ATOM     25  N   UNL     1      -3.347  12.436  20.086  0.00  0.00    +0.000 NA
ATOM     26  N   UNL     1      -4.649  12.873  20.229  0.00  0.00    +0.000 NA
ATOM     27  C   UNL     1      -5.311  12.514  19.153  0.00  0.00    +0.000 A 
ATOM     28  N   UNL     1      -4.475  11.848  18.307  0.00  0.00    +0.000 N 
ATOM     29  C   UNL     1      -4.825  11.305  17.023  0.00  0.00    +0.000 C 
ENDBRANCH  23  24
ENDBRANCH  22  23
ENDBRANCH   1  22
TORSDOF 6
ENDMDL
MODEL 6
REMARK VINA RESULT:      -7.9      1.196      1.429
REMARK  Name = 
REMARK  8 active torsions:
REMARK  status: ('A' for Active; 'I' for Inactive)
REMARK    1  A    between atoms: C_1  and  C_2
REMARK    2  A    between atoms: C_2  and  S_3
REMARK    3  A    between atoms: C_2  and  C_10
REMARK    4  A    between atoms: S_3  and  C_4
REMARK    5  A    between atoms: N_8  and  C_9
REMARK    6  A    between atoms: C_14  and  N_15
REMARK    7  A    between atoms: C_16  and  C_18
REMARK    8  A    between atoms: C_21  and  C_22
REMARK                            x       y       z     vdW  Elec       q    Type
REMARK                         _______ _______ _______ _____ _____    ______ ____
ROOT
ATOM      1  C   UNL     1       4.586   5.057  17.234  0.00  0.00    +0.000 A 
ATOM      2  C   UNL     1       3.836   3.872  17.164  0.00  0.00    +0.000 A 
ATOM      3  C   UNL     1       2.499   3.852  17.551  0.00  0.00    +0.000 A 
ATOM      4  C   UNL     1       1.890   5.008  18.042  0.00  0.00    +0.000 A 
ATOM      5  C   UNL     1       2.611   6.195  18.184  0.00  0.00    +0.000 A 
ATOM      6  C   UNL     1       3.958   6.211  17.768  0.00  0.00    +0.000 A 
ENDROOT
BRANCH   5   7
ATOM      7  N   UNL     1       2.049   7.371  18.750  0.00  0.00    +0.000 N 
ATOM      8  C   UNL     1       1.650   7.558  20.070  0.00  0.00    +0.000 C 
ATOM      9  O   UNL     1       1.647   6.715  20.962  0.00  0.00    +0.000 OA
ATOM     10  H   UNL     1       1.961   8.191  18.157  0.00  0.00    +0.000 HD
BRANCH   8  11
ATOM     11  C   UNL     1       1.192   8.952  20.412  0.00  0.00    +0.000 A 
ATOM     12  C   UNL     1       1.109   9.914  19.407  0.00  0.00    +0.000 A 
ATOM     13  C   UNL     1       0.652  11.197  19.723  0.00  0.00    +0.000 A 
ATOM     14  C   UNL     1       0.284  11.492  21.039  0.00  0.00    +0.000 A 
ATOM     15  C   UNL     1       0.413  10.455  21.972  0.00  0.00    +0.000 A 
ATOM     16  N   UNL     1       0.854   9.195  21.704  0.00  0.00    +0.000 NA
BRANCH  14  17
ATOM     17  C   UNL     1      -0.225  12.798  21.482  0.00  0.00    +0.000 C 
ATOM     18  C   UNL     1      -0.891  13.033  22.612  0.00  0.00    +0.000 C 
ATOM     19  C   UNL     1      -1.590  13.715  23.641  0.00  0.00    +0.000 C 
ATOM     20  N   UNL     1      -1.226  14.428  22.712  0.00  0.00    +0.000 NA
ENDBRANCH  14  17
ENDBRANCH   8  11
ENDBRANCH   5   7
BRANCH   1  22
ATOM     21  C   UNL     1       7.049   4.827  17.879  0.00  0.00    +0.000 C 
ATOM     22  C   UNL     1       6.038   5.019  16.747  0.00  0.00    +0.000 C 
BRANCH  22  23
ATOM     23  S   UNL     1       6.232   3.722  15.463  0.00  0.00    +0.000 S 
BRANCH  23  24
ATOM     24  C   UNL     1       7.057   4.563  14.194  0.00  0.00    +0.000 A 
ATOM     25  N   UNL     1       7.941   5.527  14.309  0.00  0.00    +0.000 NA
ATOM     26  N   UNL     1       8.357   5.867  13.036  0.00  0.00    +0.000 NA
ATOM     27  C   UNL     1       7.704   5.106  12.188  0.00  0.00    +0.000 A 
ATOM     28  N   UNL     1       6.866   4.277  12.873  0.00  0.00    +0.000 N 
ATOM     29  C   UNL     1       5.992   3.292  12.297  0.00  0.00    +0.000 C 
ENDBRANCH  23  24
ENDBRANCH  22  23
ENDBRANCH   1  22
TORSDOF 6
ENDMDL
MODEL 7
REMARK VINA RESULT:      -7.8      1.481      1.599
REMARK  Name = 
REMARK  8 active torsions:
REMARK  status: ('A' for Active; 'I' for Inactive)
REMARK    1  A    between atoms: C_1  and  C_2
REMARK    2  A    between atoms: C_2  and  S_3
REMARK    3  A    between atoms: C_2  and  C_10
REMARK    4  A    between atoms: S_3  and  C_4
REMARK    5  A    between atoms: N_8  and  C_9
REMARK    6  A    between atoms: C_14  and  N_15
REMARK    7  A    between atoms: C_16  and  C_18
REMARK    8  A    between atoms: C_21  and  C_22
REMARK                            x       y       z     vdW  Elec       q    Type
REMARK                         _______ _______ _______ _____ _____    ______ ____
ROOT
ATOM      1  C   UNL     1       4.573   5.269  17.657  0.00  0.00    +0.000 A 
ATOM      2  C   UNL     1       3.880   4.069  17.879  0.00  0.00    +0.000 A 
ATOM      3  C   UNL     1       2.614   4.075  18.458  0.00  0.00    +0.000 A 
ATOM      4  C   UNL     1       2.025   5.276  18.853  0.00  0.00    +0.000 A 
ATOM      5  C   UNL     1       2.700   6.490  18.706  0.00  0.00    +0.000 A 
ATOM      6  C   UNL     1       3.972   6.476  18.096  0.00  0.00    +0.000 A 
ENDROOT
BRANCH   5   7
ATOM      7  N   UNL     1       2.167   7.724  19.163  0.00  0.00    +0.000 N 
ATOM      8  C   UNL     1       1.834   8.832  18.389  0.00  0.00    +0.000 C 
ATOM      9  O   UNL     1       2.010   8.963  17.181  0.00  0.00    +0.000 OA
ATOM     10  H   UNL     1       1.955   7.816  20.152  0.00  0.00    +0.000 HD
BRANCH   8  11
ATOM     11  C   UNL     1       1.181   9.966  19.135  0.00  0.00    +0.000 A 
ATOM     12  C   UNL     1       0.220   9.687  20.105  0.00  0.00    +0.000 A 
ATOM     13  C   UNL     1      -0.359  10.741  20.818  0.00  0.00    +0.000 A 
ATOM     14  C   UNL     1       0.036  12.054  20.548  0.00  0.00    +0.000 A 
ATOM     15  C   UNL     1       1.003  12.223  19.549  0.00  0.00    +0.000 A 
ATOM     16  N   UNL     1       1.589  11.225  18.834  0.00  0.00    +0.000 NA
BRANCH  14  17
ATOM     17  C   UNL     1      -0.492  13.237  21.246  0.00  0.00    +0.000 C 
ATOM     18  C   UNL     1      -0.957  14.342  20.665  0.00  0.00    +0.000 C 
ATOM     19  C   UNL     1      -1.516  15.634  20.493  0.00  0.00    +0.000 C 
ATOM     20  N   UNL     1      -1.391  15.283  21.661  0.00  0.00    +0.000 NA
ENDBRANCH  14  17
ENDBRANCH   8  11
ENDBRANCH   5   7
BRANCH   1  22
ATOM     21  C   UNL     1       7.093   4.951  17.949  0.00  0.00    +0.000 C 
ATOM     22  C   UNL     1       5.941   5.194  16.971  0.00  0.00    +0.000 C 
BRANCH  22  23
ATOM     23  S   UNL     1       5.911   3.912  15.658  0.00  0.00    +0.000 S 
BRANCH  23  24
ATOM     24  C   UNL     1       6.882   4.622  14.412  0.00  0.00    +0.000 A 
ATOM     25  N   UNL     1       7.821   5.530  14.542  0.00  0.00    +0.000 NA
ATOM     26  N   UNL     1       8.351   5.767  13.288  0.00  0.00    +0.000 NA
ATOM     27  C   UNL     1       7.708   5.003  12.434  0.00  0.00    +0.000 A 
ATOM     28  N   UNL     1       6.767   4.273  13.097  0.00  0.00    +0.000 N 
ATOM     29  C   UNL     1       5.869   3.317  12.510  0.00  0.00    +0.000 C 
ENDBRANCH  23  24
ENDBRANCH  22  23
ENDBRANCH   1  22
TORSDOF 6
ENDMDL
MODEL 8
REMARK VINA RESULT:      -7.8      1.764      2.371
REMARK  Name = 
REMARK  8 active torsions:
REMARK  status: ('A' for Active; 'I' for Inactive)
REMARK    1  A    between atoms: C_1  and  C_2
REMARK    2  A    between atoms: C_2  and  S_3
REMARK    3  A    between atoms: C_2  and  C_10
REMARK    4  A    between atoms: S_3  and  C_4
REMARK    5  A    between atoms: N_8  and  C_9
REMARK    6  A    between atoms: C_14  and  N_15
REMARK    7  A    between atoms: C_16  and  C_18
REMARK    8  A    between atoms: C_21  and  C_22
REMARK                            x       y       z     vdW  Elec       q    Type
REMARK                         _______ _______ _______ _____ _____    ______ ____
ROOT
ATOM      1  C   UNL     1       3.555   3.711  19.521  0.00  0.00    +0.000 A 
ATOM      2  C   UNL     1       2.817   2.569  19.869  0.00  0.00    +0.000 A 
ATOM      3  C   UNL     1       1.597   2.684  20.530  0.00  0.00    +0.000 A 
ATOM      4  C   UNL     1       1.102   3.941  20.881  0.00  0.00    +0.000 A 
ATOM      5  C   UNL     1       1.828   5.102  20.608  0.00  0.00    +0.000 A 
ATOM      6  C   UNL     1       3.052   4.976  19.918  0.00  0.00    +0.000 A 
ENDROOT
BRANCH   5   7
ATOM      7  N   UNL     1       1.396   6.391  21.016  0.00  0.00    +0.000 N 
ATOM      8  C   UNL     1       1.597   7.594  20.346  0.00  0.00    +0.000 C 
ATOM      9  O   UNL     1       2.249   7.762  19.319  0.00  0.00    +0.000 OA
ATOM     10  H   UNL     1       0.837   6.463  21.862  0.00  0.00    +0.000 HD
BRANCH   8  11
ATOM     11  C   UNL     1       0.926   8.794  20.961  0.00  0.00    +0.000 A 
ATOM     12  C   UNL     1       0.514   8.745  22.292  0.00  0.00    +0.000 A 
ATOM     13  C   UNL     1      -0.079   9.872  22.868  0.00  0.00    +0.000 A 
ATOM     14  C   UNL     1      -0.248  11.028  22.102  0.00  0.00    +0.000 A 
ATOM     15  C   UNL     1       0.193  10.968  20.774  0.00  0.00    +0.000 A 
ATOM     16  N   UNL     1       0.774   9.892  20.177  0.00  0.00    +0.000 NA
BRANCH  14  17
ATOM     17  C   UNL     1      -0.843  12.275  22.606  0.00  0.00    +0.000 C 
ATOM     18  C   UNL     1      -2.081  12.414  23.078  0.00  0.00    +0.000 C 
ATOM     19  C   UNL     1      -3.248  12.998  23.634  0.00  0.00    +0.000 C 
ATOM     20  N   UNL     1      -2.310  13.774  23.484  0.00  0.00    +0.000 NA
ENDBRANCH  14  17
ENDBRANCH   8  11
ENDBRANCH   5   7
BRANCH   1  22
ATOM     21  C   UNL     1       4.652   3.144  17.282  0.00  0.00    +0.000 C 
ATOM     22  C   UNL     1       4.866   3.513  18.752  0.00  0.00    +0.000 C 
BRANCH  22  23
ATOM     23  S   UNL     1       5.915   5.011  18.909  0.00  0.00    +0.000 S 
BRANCH  23  24
ATOM     24  C   UNL     1       6.487   5.246  17.292  0.00  0.00    +0.000 A 
ATOM     25  N   UNL     1       7.567   4.743  16.739  0.00  0.00    +0.000 NA
ATOM     26  N   UNL     1       7.600   5.168  15.425  0.00  0.00    +0.000 NA
ATOM     27  C   UNL     1       6.546   5.926  15.225  0.00  0.00    +0.000 A 
ATOM     28  N   UNL     1       5.823   6.011  16.377  0.00  0.00    +0.000 N 
ATOM     29  C   UNL     1       4.598   6.741  16.556  0.00  0.00    +0.000 C 
ENDBRANCH  23  24
ENDBRANCH  22  23
ENDBRANCH   1  22
TORSDOF 6
ENDMDL
MODEL 9
REMARK VINA RESULT:      -7.8      1.608      1.800
REMARK  Name = 
REMARK  8 active torsions:
REMARK  status: ('A' for Active; 'I' for Inactive)
REMARK    1  A    between atoms: C_1  and  C_2
REMARK    2  A    between atoms: C_2  and  S_3
REMARK    3  A    between atoms: C_2  and  C_10
REMARK    4  A    between atoms: S_3  and  C_4
REMARK    5  A    between atoms: N_8  and  C_9
REMARK    6  A    between atoms: C_14  and  N_15
REMARK    7  A    between atoms: C_16  and  C_18
REMARK    8  A    between atoms: C_21  and  C_22
REMARK                            x       y       z     vdW  Elec       q    Type
REMARK                         _______ _______ _______ _____ _____    ______ ____
ROOT
ATOM      1  C   UNL     1       4.825   5.137  17.951  0.00  0.00    +0.000 A 
ATOM      2  C   UNL     1       4.462   3.960  18.625  0.00  0.00    +0.000 A 
ATOM      3  C   UNL     1       3.309   3.913  19.405  0.00  0.00    +0.000 A 
ATOM      4  C   UNL     1       2.510   5.049  19.551  0.00  0.00    +0.000 A 
ATOM      5  C   UNL     1       2.862   6.257  18.947  0.00  0.00    +0.000 A 
ATOM      6  C   UNL     1       4.019   6.288  18.140  0.00  0.00    +0.000 A 
ENDROOT
BRANCH   5   7
ATOM      7  N   UNL     1       2.118   7.453  19.132  0.00  0.00    +0.000 N 
ATOM      8  C   UNL     1       2.025   8.527  18.253  0.00  0.00    +0.000 C 
ATOM      9  O   UNL     1       2.630   8.662  17.193  0.00  0.00    +0.000 OA
ATOM     10  H   UNL     1       1.548   7.536  19.969  0.00  0.00    +0.000 HD
BRANCH   8  11
ATOM     11  C   UNL     1       1.069   9.615  18.665  0.00  0.00    +0.000 A 
ATOM     12  C   UNL     1      -0.174   9.711  18.042  0.00  0.00    +0.000 A 
ATOM     13  C   UNL     1      -1.071  10.702  18.452  0.00  0.00    +0.000 A 
ATOM     14  C   UNL     1      -0.708  11.578  19.478  0.00  0.00    +0.000 A 
ATOM     15  C   UNL     1       0.567  11.400  20.030  0.00  0.00    +0.000 A 
ATOM     16  N   UNL     1       1.467  10.449  19.660  0.00  0.00    +0.000 NA
BRANCH  14  17
ATOM     17  C   UNL     1      -1.575  12.646  20.000  0.00  0.00    +0.000 C 
ATOM     18  C   UNL     1      -2.897  12.577  20.142  0.00  0.00    +0.000 C 
ATOM     19  C   UNL     1      -4.234  12.934  20.455  0.00  0.00    +0.000 C 
ATOM     20  N   UNL     1      -3.405  13.808  20.686  0.00  0.00    +0.000 NA
ENDBRANCH  14  17
ENDBRANCH   8  11
ENDBRANCH   5   7
BRANCH   1  22
ATOM     21  C   UNL     1       7.354   4.779  17.853  0.00  0.00    +0.000 C 
ATOM     22  C   UNL     1       6.079   5.104  17.072  0.00  0.00    +0.000 C 
BRANCH  22  23
ATOM     23  S   UNL     1       5.838   3.926  15.685  0.00  0.00    +0.000 S 
BRANCH  23  24
ATOM     24  C   UNL     1       6.798   4.623  14.423  0.00  0.00    +0.000 A 
ATOM     25  N   UNL     1       7.751   5.519  14.539  0.00  0.00    +0.000 NA
ATOM     26  N   UNL     1       8.264   5.748  13.276  0.00  0.00    +0.000 NA
ATOM     27  C   UNL     1       7.599   4.993  12.433  0.00  0.00    +0.000 A 
ATOM     28  N   UNL     1       6.659   4.275  13.111  0.00  0.00    +0.000 N 
ATOM     29  C   UNL     1       5.740   3.330  12.539  0.00  0.00    +0.000 C 
ENDBRANCH  23  24
ENDBRANCH  22  23
ENDBRANCH   1  22
TORSDOF 6
ENDMDL
