MODEL 1
REMARK VINA RESULT:      -8.4      0.000      0.000
REMARK  Name = 
REMARK  3 active torsions:
REMARK  status: ('A' for Active; 'I' for Inactive)
REMARK    1  A    between atoms: C_2  and  C_18
REMARK    2  A    between atoms: C_6  and  C_7
REMARK    3  A    between atoms: C_18  and  C_19
REMARK                            x       y       z     vdW  Elec       q    Type
REMARK                         _______ _______ _______ _____ _____    ______ ____
ROOT
ATOM      1  O   UNL     1       2.553   5.105  21.171  0.00  0.00    +0.000 OA
ATOM      2  C   UNL     1       2.581   5.491  19.994  0.00  0.00    +0.000 C 
ATOM      3  N   UNL     1       1.865   6.626  19.623  0.00  0.00    +0.000 N 
ATOM      4  C   UNL     1       1.650   7.120  18.269  0.00  0.00    +0.000 C 
ATOM      5  C   UNL     1       2.216   8.528  18.142  0.00  0.00    +0.000 C 
ATOM      6  C   UNL     1       1.644   9.488  19.199  0.00  0.00    +0.000 C 
ATOM      7  C   UNL     1       1.672   8.873  20.608  0.00  0.00    +0.000 C 
ATOM      8  C   UNL     1       1.184   7.422  20.645  0.00  0.00    +0.000 C 
ENDROOT
BRANCH   6   9
ATOM      9  C   UNL     1       0.269   9.947  18.835  0.00  0.00    +0.000 A 
ATOM     10  N   UNL     1      -0.550  10.729  19.510  0.00  0.00    +0.000 NA
ATOM     11  C   UNL     1      -1.638  10.849  18.683  0.00  0.00    +0.000 A 
ATOM     12  C   UNL     1      -2.830  11.570  18.826  0.00  0.00    +0.000 A 
ATOM     13  C   UNL     1      -3.762  11.518  17.779  0.00  0.00    +0.000 A 
ATOM     14  C   UNL     1      -3.517  10.758  16.627  0.00  0.00    +0.000 A 
ATOM     15  C   UNL     1      -2.336  10.022  16.476  0.00  0.00    +0.000 A 
ATOM     16  C   UNL     1      -1.435  10.110  17.529  0.00  0.00    +0.000 A 
ATOM     17  O   UNL     1      -0.210   9.518  17.623  0.00  0.00    +0.000 OA
ENDBRANCH   6   9
BRANCH   2  18
ATOM     18  C   UNL     1       3.446   4.717  18.951  0.00  0.00    +0.000 C 
ATOM     19  C   UNL     1       2.620   4.547  17.633  0.00  0.00    +0.000 C 
ATOM     20  C   UNL     1       3.210   3.334  16.917  0.00  0.00    +0.000 C 
ATOM     21  C   UNL     1       3.840   2.479  18.009  0.00  0.00    +0.000 C 
ATOM     22  C   UNL     1       3.563   3.218  19.319  0.00  0.00    +0.000 C 
BRANCH  18  23
ATOM     23  C   UNL     1       4.760   5.448  18.600  0.00  0.00    +0.000 A 
ATOM     24  C   UNL     1       5.950   5.246  19.322  0.00  0.00    +0.000 A 
ATOM     25  C   UNL     1       7.167   5.780  18.887  0.00  0.00    +0.000 A 
ATOM     26  C   UNL     1       7.215   6.552  17.734  0.00  0.00    +0.000 A 
ATOM     27  C   UNL     1       6.042   6.820  17.035  0.00  0.00    +0.000 A 
ATOM     28  C   UNL     1       4.825   6.279  17.465  0.00  0.00    +0.000 A 
ENDBRANCH  18  23
ENDBRANCH   2  18
TORSDOF 3
ENDMDL
MODEL 2
REMARK VINA RESULT:      -8.2      0.986      1.611
REMARK  Name = 
REMARK  3 active torsions:
REMARK  status: ('A' for Active; 'I' for Inactive)
REMARK    1  A    between atoms: C_2  and  C_18
REMARK    2  A    between atoms: C_6  and  C_7
REMARK    3  A    between atoms: C_18  and  C_19
REMARK                            x       y       z     vdW  Elec       q    Type
REMARK                         _______ _______ _______ _____ _____    ______ ____
ROOT
ATOM      1  O   UNL     1       2.404   4.653  21.299  0.00  0.00    +0.000 OA
ATOM      2  C   UNL     1       2.461   4.953  20.099  0.00  0.00    +0.000 C 
ATOM      3  N   UNL     1       1.891   6.146  19.660  0.00  0.00    +0.000 N 
ATOM      4  C   UNL     1       1.719   6.574  18.277  0.00  0.00    +0.000 C 
ATOM      5  C   UNL     1       2.460   7.885  18.051  0.00  0.00    +0.000 C 
ATOM      6  C   UNL     1       2.037   8.978  19.046  0.00  0.00    +0.000 C 
ATOM      7  C   UNL     1       2.010   8.458  20.493  0.00  0.00    +0.000 C 
ATOM      8  C   UNL     1       1.338   7.089  20.632  0.00  0.00    +0.000 C 
ENDROOT
BRANCH   6   9
ATOM      9  C   UNL     1       0.726   9.588  18.665  0.00  0.00    +0.000 A 
ATOM     10  N   UNL     1       0.009   9.400  17.574  0.00  0.00    +0.000 NA
ATOM     11  C   UNL     1      -1.108  10.168  17.785  0.00  0.00    +0.000 A 
ATOM     12  C   UNL     1      -2.251  10.367  17.002  0.00  0.00    +0.000 A 
ATOM     13  C   UNL     1      -3.258  11.205  17.504  0.00  0.00    +0.000 A 
ATOM     14  C   UNL     1      -3.122  11.837  18.747  0.00  0.00    +0.000 A 
ATOM     15  C   UNL     1      -1.979  11.657  19.536  0.00  0.00    +0.000 A 
ATOM     16  C   UNL     1      -1.013  10.811  19.009  0.00  0.00    +0.000 A 
ATOM     17  O   UNL     1       0.172  10.449  19.578  0.00  0.00    +0.000 OA
ENDBRANCH   6   9
BRANCH   2  18
ATOM     18  C   UNL     1       3.200   4.007  19.102  0.00  0.00    +0.000 C 
ATOM     19  C   UNL     1       2.204   3.584  17.971  0.00  0.00    +0.000 C 
ATOM     20  C   UNL     1       2.733   2.265  17.413  0.00  0.00    +0.000 C 
ATOM     21  C   UNL     1       3.540   1.636  18.541  0.00  0.00    +0.000 C 
ATOM     22  C   UNL     1       3.422   2.604  19.719  0.00  0.00    +0.000 C 
BRANCH  18  23
ATOM     23  C   UNL     1       4.424   4.672  18.438  0.00  0.00    +0.000 A 
ATOM     24  C   UNL     1       4.462   4.981  17.066  0.00  0.00    +0.000 A 
ATOM     25  C   UNL     1       5.502   5.736  16.517  0.00  0.00    +0.000 A 
ATOM     26  C   UNL     1       6.544   6.175  17.323  0.00  0.00    +0.000 A 
ATOM     27  C   UNL     1       6.564   5.831  18.671  0.00  0.00    +0.000 A 
ATOM     28  C   UNL     1       5.519   5.081  19.223  0.00  0.00    +0.000 A 
ENDBRANCH  18  23
ENDBRANCH   2  18
TORSDOF 3
ENDMDL
MODEL 3
REMARK VINA RESULT:      -8.0      3.492      7.141
REMARK  Name = 
REMARK  3 active torsions:
REMARK  status: ('A' for Active; 'I' for Inactive)
REMARK    1  A    between atoms: C_2  and  C_18
REMARK    2  A    between atoms: C_6  and  C_7
REMARK    3  A    between atoms: C_18  and  C_19
REMARK                            x       y       z     vdW  Elec       q    Type
REMARK                         _______ _______ _______ _____ _____    ______ ____
ROOT
ATOM      1  O   UNL     1       5.186   3.504  19.915  0.00  0.00    +0.000 OA
ATOM      2  C   UNL     1       4.732   4.476  19.298  0.00  0.00    +0.000 C 
ATOM      3  N   UNL     1       5.563   5.554  19.002  0.00  0.00    +0.000 N 
ATOM      4  C   UNL     1       5.163   6.837  18.438  0.00  0.00    +0.000 C 
ATOM      5  C   UNL     1       5.888   7.066  17.118  0.00  0.00    +0.000 C 
ATOM      6  C   UNL     1       7.416   6.956  17.262  0.00  0.00    +0.000 C 
ATOM      7  C   UNL     1       7.828   5.703  18.052  0.00  0.00    +0.000 C 
ATOM      8  C   UNL     1       6.991   5.479  19.314  0.00  0.00    +0.000 C 
ENDROOT
BRANCH   6   9
ATOM      9  C   UNL     1       8.001   8.193  17.863  0.00  0.00    +0.000 A 
ATOM     10  N   UNL     1       8.767   8.314  18.929  0.00  0.00    +0.000 NA
ATOM     11  C   UNL     1       9.041   9.658  18.979  0.00  0.00    +0.000 A 
ATOM     12  C   UNL     1       9.824  10.407  19.865  0.00  0.00    +0.000 A 
ATOM     13  C   UNL     1       9.939  11.787  19.641  0.00  0.00    +0.000 A 
ATOM     14  C   UNL     1       9.280  12.404  18.568  0.00  0.00    +0.000 A 
ATOM     15  C   UNL     1       8.484  11.670  17.682  0.00  0.00    +0.000 A 
ATOM     16  C   UNL     1       8.407  10.306  17.932  0.00  0.00    +0.000 A 
ATOM     17  O   UNL     1       7.726   9.368  17.212  0.00  0.00    +0.000 OA
ENDBRANCH   6   9
BRANCH   2  18
ATOM     18  C   UNL     1       3.243   4.466  18.831  0.00  0.00    +0.000 C 
ATOM     19  C   UNL     1       2.491   3.303  19.560  0.00  0.00    +0.000 C 
ATOM     20  C   UNL     1       1.296   2.952  18.677  0.00  0.00    +0.000 C 
ATOM     21  C   UNL     1       1.690   3.373  17.268  0.00  0.00    +0.000 C 
ATOM     22  C   UNL     1       3.111   3.925  17.386  0.00  0.00    +0.000 C 
BRANCH  18  23
ATOM     23  C   UNL     1       2.505   5.784  19.146  0.00  0.00    +0.000 A 
ATOM     24  C   UNL     1       2.078   6.118  20.443  0.00  0.00    +0.000 A 
ATOM     25  C   UNL     1       1.569   7.385  20.740  0.00  0.00    +0.000 A 
ATOM     26  C   UNL     1       1.449   8.339  19.739  0.00  0.00    +0.000 A 
ATOM     27  C   UNL     1       1.805   8.016  18.434  0.00  0.00    +0.000 A 
ATOM     28  C   UNL     1       2.323   6.750  18.136  0.00  0.00    +0.000 A 
ENDBRANCH  18  23
ENDBRANCH   2  18
TORSDOF 3
ENDMDL
MODEL 4
REMARK VINA RESULT:      -7.8      2.352      7.874
REMARK  Name = 
REMARK  3 active torsions:
REMARK  status: ('A' for Active; 'I' for Inactive)
REMARK    1  A    between atoms: C_2  and  C_18
REMARK    2  A    between atoms: C_6  and  C_7
REMARK    3  A    between atoms: C_18  and  C_19
REMARK                            x       y       z     vdW  Elec       q    Type
REMARK                         _______ _______ _______ _____ _____    ______ ____
ROOT
ATOM      1  O   UNL     1       0.708   9.202  21.774  0.00  0.00    +0.000 OA
ATOM      2  C   UNL     1       0.944   9.344  20.566  0.00  0.00    +0.000 C 
ATOM      3  N   UNL     1       1.728   8.404  19.902  0.00  0.00    +0.000 N 
ATOM      4  C   UNL     1       2.240   8.498  18.541  0.00  0.00    +0.000 C 
ATOM      5  C   UNL     1       1.720   7.327  17.716  0.00  0.00    +0.000 C 
ATOM      6  C   UNL     1       2.046   5.968  18.357  0.00  0.00    +0.000 C 
ATOM      7  C   UNL     1       1.703   5.944  19.856  0.00  0.00    +0.000 C 
ATOM      8  C   UNL     1       2.167   7.197  20.604  0.00  0.00    +0.000 C 
ENDROOT
BRANCH   6   9
ATOM      9  C   UNL     1       3.469   5.577  18.121  0.00  0.00    +0.000 A 
ATOM     10  N   UNL     1       4.016   5.047  17.044  0.00  0.00    +0.000 NA
ATOM     11  C   UNL     1       5.345   4.949  17.371  0.00  0.00    +0.000 A 
ATOM     12  C   UNL     1       6.444   4.489  16.635  0.00  0.00    +0.000 A 
ATOM     13  C   UNL     1       7.709   4.537  17.239  0.00  0.00    +0.000 A 
ATOM     14  C   UNL     1       7.872   5.020  18.544  0.00  0.00    +0.000 A 
ATOM     15  C   UNL     1       6.780   5.472  19.296  0.00  0.00    +0.000 A 
ATOM     16  C   UNL     1       5.548   5.419  18.658  0.00  0.00    +0.000 A 
ATOM     17  O   UNL     1       4.341   5.817  19.152  0.00  0.00    +0.000 OA
ENDBRANCH   6   9
BRANCH   2  18
ATOM     18  C   UNL     1       0.330  10.556  19.798  0.00  0.00    +0.000 C 
ATOM     19  C   UNL     1      -0.919  11.076  20.585  0.00  0.00    +0.000 C 
ATOM     20  C   UNL     1      -1.795  11.796  19.562  0.00  0.00    +0.000 C 
ATOM     21  C   UNL     1      -1.450  11.173  18.216  0.00  0.00    +0.000 C 
ATOM     22  C   UNL     1      -0.408  10.094  18.518  0.00  0.00    +0.000 C 
BRANCH  18  23
ATOM     23  C   UNL     1       1.319  11.730  19.641  0.00  0.00    +0.000 A 
ATOM     24  C   UNL     1       1.946  12.029  18.418  0.00  0.00    +0.000 A 
ATOM     25  C   UNL     1       2.700  13.194  18.250  0.00  0.00    +0.000 A 
ATOM     26  C   UNL     1       2.869  14.072  19.312  0.00  0.00    +0.000 A 
ATOM     27  C   UNL     1       2.312  13.770  20.550  0.00  0.00    +0.000 A 
ATOM     28  C   UNL     1       1.550  12.609  20.717  0.00  0.00    +0.000 A 
ENDBRANCH  18  23
ENDBRANCH   2  18
TORSDOF 3
ENDMDL
MODEL 5
REMARK VINA RESULT:      -7.8      2.389      7.801
REMARK  Name = 
REMARK  3 active torsions:
REMARK  status: ('A' for Active; 'I' for Inactive)
REMARK    1  A    between atoms: C_2  and  C_18
REMARK    2  A    between atoms: C_6  and  C_7
REMARK    3  A    between atoms: C_18  and  C_19
REMARK                            x       y       z     vdW  Elec       q    Type
REMARK                         _______ _______ _______ _____ _____    ______ ____
ROOT
ATOM      1  O   UNL     1       0.351   9.451  21.740  0.00  0.00    +0.000 OA
ATOM      2  C   UNL     1       0.670   9.593  20.552  0.00  0.00    +0.000 C 
ATOM      3  N   UNL     1       1.535   8.679  19.956  0.00  0.00    +0.000 N 
ATOM      4  C   UNL     1       2.143   8.782  18.636  0.00  0.00    +0.000 C 
ATOM      5  C   UNL     1       1.729   7.588  17.786  0.00  0.00    +0.000 C 
ATOM      6  C   UNL     1       2.056   6.246  18.462  0.00  0.00    +0.000 C 
ATOM      7  C   UNL     1       1.604   6.219  19.932  0.00  0.00    +0.000 C 
ATOM      8  C   UNL     1       1.965   7.494  20.700  0.00  0.00    +0.000 C 
ENDROOT
BRANCH   6   9
ATOM      9  C   UNL     1       3.506   5.906  18.335  0.00  0.00    +0.000 A 
ATOM     10  N   UNL     1       4.421   5.805  19.280  0.00  0.00    +0.000 NA
ATOM     11  C   UNL     1       5.549   5.424  18.598  0.00  0.00    +0.000 A 
ATOM     12  C   UNL     1       6.842   5.132  19.047  0.00  0.00    +0.000 A 
ATOM     13  C   UNL     1       7.797   4.736  18.098  0.00  0.00    +0.000 A 
ATOM     14  C   UNL     1       7.472   4.646  16.738  0.00  0.00    +0.000 A 
ATOM     15  C   UNL     1       6.187   4.947  16.273  0.00  0.00    +0.000 A 
ATOM     16  C   UNL     1       5.269   5.323  17.245  0.00  0.00    +0.000 A 
ATOM     17  O   UNL     1       3.955   5.641  17.066  0.00  0.00    +0.000 OA
ENDBRANCH   6   9
BRANCH   2  18
ATOM     18  C   UNL     1       0.071  10.776  19.729  0.00  0.00    +0.000 C 
ATOM     19  C   UNL     1      -1.229  11.282  20.440  0.00  0.00    +0.000 C 
ATOM     20  C   UNL     1      -2.065  11.963  19.358  0.00  0.00    +0.000 C 
ATOM     21  C   UNL     1      -1.637  11.322  18.045  0.00  0.00    +0.000 C 
ATOM     22  C   UNL     1      -0.589  10.274  18.421  0.00  0.00    +0.000 C 
BRANCH  18  23
ATOM     23  C   UNL     1       1.041  11.970  19.600  0.00  0.00    +0.000 A 
ATOM     24  C   UNL     1       1.334  12.823  20.679  0.00  0.00    +0.000 A 
ATOM     25  C   UNL     1       2.341  13.789  20.593  0.00  0.00    +0.000 A 
ATOM     26  C   UNL     1       3.059  13.942  19.414  0.00  0.00    +0.000 A 
ATOM     27  C   UNL     1       2.747  13.155  18.311  0.00  0.00    +0.000 A 
ATOM     28  C   UNL     1       1.745  12.182  18.398  0.00  0.00    +0.000 A 
ENDBRANCH  18  23
ENDBRANCH   2  18
TORSDOF 3
ENDMDL
MODEL 6
REMARK VINA RESULT:      -7.4      0.841      2.608
REMARK  Name = 
REMARK  3 active torsions:
REMARK  status: ('A' for Active; 'I' for Inactive)
REMARK    1  A    between atoms: C_2  and  C_18
REMARK    2  A    between atoms: C_6  and  C_7
REMARK    3  A    between atoms: C_18  and  C_19
REMARK                            x       y       z     vdW  Elec       q    Type
REMARK                         _______ _______ _______ _____ _____    ______ ____
ROOT
ATOM      1  O   UNL     1       2.699   5.772  20.848  0.00  0.00    +0.000 OA
ATOM      2  C   UNL     1       2.741   6.254  19.708  0.00  0.00    +0.000 C 
ATOM      3  N   UNL     1       1.883   7.298  19.369  0.00  0.00    +0.000 N 
ATOM      4  C   UNL     1       1.680   7.866  18.042  0.00  0.00    +0.000 C 
ATOM      5  C   UNL     1       2.030   9.348  18.060  0.00  0.00    +0.000 C 
ATOM      6  C   UNL     1       1.253  10.121  19.139  0.00  0.00    +0.000 C 
ATOM      7  C   UNL     1       1.288   9.402  20.498  0.00  0.00    +0.000 C 
ATOM      8  C   UNL     1       1.026   7.896  20.393  0.00  0.00    +0.000 C 
ENDROOT
BRANCH   6   9
ATOM      9  C   UNL     1      -0.151  10.400  18.710  0.00  0.00    +0.000 A 
ATOM     10  N   UNL     1      -1.100  11.055  19.350  0.00  0.00    +0.000 NA
ATOM     11  C   UNL     1      -2.151  11.044  18.468  0.00  0.00    +0.000 A 
ATOM     12  C   UNL     1      -3.434  11.598  18.557  0.00  0.00    +0.000 A 
ATOM     13  C   UNL     1      -4.298  11.442  17.462  0.00  0.00    +0.000 A 
ATOM     14  C   UNL     1      -3.896  10.742  16.316  0.00  0.00    +0.000 A 
ATOM     15  C   UNL     1      -2.621  10.172  16.219  0.00  0.00    +0.000 A 
ATOM     16  C   UNL     1      -1.794  10.360  17.318  0.00  0.00    +0.000 A 
ATOM     17  O   UNL     1      -0.507   9.934  17.470  0.00  0.00    +0.000 OA
ENDBRANCH   6   9
BRANCH   2  18
ATOM     18  C   UNL     1       3.777   5.707  18.677  0.00  0.00    +0.000 C 
ATOM     19  C   UNL     1       5.220   6.048  19.179  0.00  0.00    +0.000 C 
ATOM     20  C   UNL     1       6.109   6.056  17.937  0.00  0.00    +0.000 C 
ATOM     21  C   UNL     1       5.181   6.374  16.771  0.00  0.00    +0.000 C 
ATOM     22  C   UNL     1       3.796   6.565  17.389  0.00  0.00    +0.000 C 
BRANCH  18  23
ATOM     23  C   UNL     1       3.685   4.178  18.488  0.00  0.00    +0.000 A 
ATOM     24  C   UNL     1       4.393   3.274  19.300  0.00  0.00    +0.000 A 
ATOM     25  C   UNL     1       4.165   1.896  19.228  0.00  0.00    +0.000 A 
ATOM     26  C   UNL     1       3.245   1.390  18.320  0.00  0.00    +0.000 A 
ATOM     27  C   UNL     1       2.577   2.256  17.461  0.00  0.00    +0.000 A 
ATOM     28  C   UNL     1       2.798   3.636  17.538  0.00  0.00    +0.000 A 
ENDBRANCH  18  23
ENDBRANCH   2  18
TORSDOF 3
ENDMDL
MODEL 7
REMARK VINA RESULT:      -7.4      1.951      8.219
REMARK  Name = 
REMARK  3 active torsions:
REMARK  status: ('A' for Active; 'I' for Inactive)
REMARK    1  A    between atoms: C_2  and  C_18
REMARK    2  A    between atoms: C_6  and  C_7
REMARK    3  A    between atoms: C_18  and  C_19
REMARK                            x       y       z     vdW  Elec       q    Type
REMARK                         _______ _______ _______ _____ _____    ______ ____
ROOT
ATOM      1  O   UNL     1       0.250   9.541  21.597  0.00  0.00    +0.000 OA
ATOM      2  C   UNL     1       0.681   9.754  20.456  0.00  0.00    +0.000 C 
ATOM      3  N   UNL     1       1.556   8.843  19.868  0.00  0.00    +0.000 N 
ATOM      4  C   UNL     1       2.284   9.013  18.617  0.00  0.00    +0.000 C 
ATOM      5  C   UNL     1       1.896   7.907  17.644  0.00  0.00    +0.000 C 
ATOM      6  C   UNL     1       2.101   6.504  18.238  0.00  0.00    +0.000 C 
ATOM      7  C   UNL     1       1.518   6.391  19.657  0.00  0.00    +0.000 C 
ATOM      8  C   UNL     1       1.863   7.586  20.551  0.00  0.00    +0.000 C 
ENDROOT
BRANCH   6   9
ATOM      9  C   UNL     1       3.540   6.101  18.211  0.00  0.00    +0.000 A 
ATOM     10  N   UNL     1       4.382   5.964  19.217  0.00  0.00    +0.000 NA
ATOM     11  C   UNL     1       5.537   5.531  18.614  0.00  0.00    +0.000 A 
ATOM     12  C   UNL     1       6.783   5.185  19.151  0.00  0.00    +0.000 A 
ATOM     13  C   UNL     1       7.781   4.744  18.270  0.00  0.00    +0.000 A 
ATOM     14  C   UNL     1       7.548   4.663  16.890  0.00  0.00    +0.000 A 
ATOM     15  C   UNL     1       6.311   5.019  16.338  0.00  0.00    +0.000 A 
ATOM     16  C   UNL     1       5.346   5.437  17.245  0.00  0.00    +0.000 A 
ATOM     17  O   UNL     1       4.063   5.812  16.976  0.00  0.00    +0.000 OA
ENDBRANCH   6   9
BRANCH   2  18
ATOM     18  C   UNL     1       0.212  11.024  19.680  0.00  0.00    +0.000 C 
ATOM     19  C   UNL     1       1.353  11.475  18.708  0.00  0.00    +0.000 C 
ATOM     20  C   UNL     1       1.126  12.963  18.451  0.00  0.00    +0.000 C 
ATOM     21  C   UNL     1       0.368  13.478  19.667  0.00  0.00    +0.000 C 
ATOM     22  C   UNL     1       0.211  12.273  20.594  0.00  0.00    +0.000 C 
BRANCH  18  23
ATOM     23  C   UNL     1      -1.061  10.779  18.842  0.00  0.00    +0.000 A 
ATOM     24  C   UNL     1      -2.280  11.425  19.117  0.00  0.00    +0.000 A 
ATOM     25  C   UNL     1      -3.370  11.325  18.248  0.00  0.00    +0.000 A 
ATOM     26  C   UNL     1      -3.275  10.554  17.097  0.00  0.00    +0.000 A 
ATOM     27  C   UNL     1      -2.103   9.854  16.833  0.00  0.00    +0.000 A 
ATOM     28  C   UNL     1      -1.007   9.959  17.697  0.00  0.00    +0.000 A 
ENDBRANCH  18  23
ENDBRANCH   2  18
TORSDOF 3
ENDMDL
MODEL 8
REMARK VINA RESULT:      -7.3      1.068      2.853
REMARK  Name = 
REMARK  3 active torsions:
REMARK  status: ('A' for Active; 'I' for Inactive)
REMARK    1  A    between atoms: C_2  and  C_18
REMARK    2  A    between atoms: C_6  and  C_7
REMARK    3  A    between atoms: C_18  and  C_19
REMARK                            x       y       z     vdW  Elec       q    Type
REMARK                         _______ _______ _______ _____ _____    ______ ____
ROOT
ATOM      1  O   UNL     1       2.842   5.870  20.844  0.00  0.00    +0.000 OA
ATOM      2  C   UNL     1       2.851   6.300  19.683  0.00  0.00    +0.000 C 
ATOM      3  N   UNL     1       1.975   7.320  19.319  0.00  0.00    +0.000 N 
ATOM      4  C   UNL     1       1.735   7.826  17.973  0.00  0.00    +0.000 C 
ATOM      5  C   UNL     1       2.070   9.310  17.916  0.00  0.00    +0.000 C 
ATOM      6  C   UNL     1       1.312  10.124  18.978  0.00  0.00    +0.000 C 
ATOM      7  C   UNL     1       1.387   9.467  20.366  0.00  0.00    +0.000 C 
ATOM      8  C   UNL     1       1.138   7.956  20.335  0.00  0.00    +0.000 C 
ENDROOT
BRANCH   6   9
ATOM      9  C   UNL     1      -0.105  10.371  18.570  0.00  0.00    +0.000 A 
ATOM     10  N   UNL     1      -0.797   9.813  17.597  0.00  0.00    +0.000 NA
ATOM     11  C   UNL     1      -2.041  10.379  17.720  0.00  0.00    +0.000 A 
ATOM     12  C   UNL     1      -3.222  10.176  16.995  0.00  0.00    +0.000 A 
ATOM     13  C   UNL     1      -4.364  10.895  17.379  0.00  0.00    +0.000 A 
ATOM     14  C   UNL     1      -4.326  11.799  18.449  0.00  0.00    +0.000 A 
ATOM     15  C   UNL     1      -3.149  12.021  19.175  0.00  0.00    +0.000 A 
ATOM     16  C   UNL     1      -2.046  11.281  18.771  0.00  0.00    +0.000 A 
ATOM     17  O   UNL     1      -0.797  11.289  19.319  0.00  0.00    +0.000 OA
ENDBRANCH   6   9
BRANCH   2  18
ATOM     18  C   UNL     1       3.868   5.716  18.653  0.00  0.00    +0.000 C 
ATOM     19  C   UNL     1       5.322   6.003  19.156  0.00  0.00    +0.000 C 
ATOM     20  C   UNL     1       6.212   5.980  17.916  0.00  0.00    +0.000 C 
ATOM     21  C   UNL     1       5.298   6.333  16.749  0.00  0.00    +0.000 C 
ATOM     22  C   UNL     1       3.919   6.574  17.366  0.00  0.00    +0.000 C 
BRANCH  18  23
ATOM     23  C   UNL     1       3.721   4.191  18.462  0.00  0.00    +0.000 A 
ATOM     24  C   UNL     1       4.426   3.262  19.247  0.00  0.00    +0.000 A 
ATOM     25  C   UNL     1       4.151   1.893  19.179  0.00  0.00    +0.000 A 
ATOM     26  C   UNL     1       3.185   1.420  18.302  0.00  0.00    +0.000 A 
ATOM     27  C   UNL     1       2.517   2.310  17.468  0.00  0.00    +0.000 A 
ATOM     28  C   UNL     1       2.784   3.682  17.541  0.00  0.00    +0.000 A 
ENDBRANCH  18  23
ENDBRANCH   2  18
TORSDOF 3
ENDMDL
MODEL 9
REMARK VINA RESULT:      -7.2      2.403      7.939
REMARK  Name = 
REMARK  3 active torsions:
REMARK  status: ('A' for Active; 'I' for Inactive)
REMARK    1  A    between atoms: C_2  and  C_18
REMARK    2  A    between atoms: C_6  and  C_7
REMARK    3  A    between atoms: C_18  and  C_19
REMARK                            x       y       z     vdW  Elec       q    Type
REMARK                         _______ _______ _______ _____ _____    ______ ____
ROOT
ATOM      1  O   UNL     1       0.087   9.726  21.921  0.00  0.00    +0.000 OA
ATOM      2  C   UNL     1       0.372   9.993  20.746  0.00  0.00    +0.000 C 
ATOM      3  N   UNL     1       1.276   9.189  20.056  0.00  0.00    +0.000 N 
ATOM      4  C   UNL     1       1.848   9.447  18.740  0.00  0.00    +0.000 C 
ATOM      5  C   UNL     1       1.485   8.312  17.792  0.00  0.00    +0.000 C 
ATOM      6  C   UNL     1       1.902   6.936  18.337  0.00  0.00    +0.000 C 
ATOM      7  C   UNL     1       1.484   6.750  19.805  0.00  0.00    +0.000 C 
ATOM      8  C   UNL     1       1.788   7.969  20.681  0.00  0.00    +0.000 C 
ENDROOT
BRANCH   6   9
ATOM      9  C   UNL     1       3.366   6.695  18.156  0.00  0.00    +0.000 A 
ATOM     10  N   UNL     1       4.182   7.189  17.245  0.00  0.00    +0.000 NA
ATOM     11  C   UNL     1       5.404   6.670  17.591  0.00  0.00    +0.000 A 
ATOM     12  C   UNL     1       6.673   6.844  17.023  0.00  0.00    +0.000 A 
ATOM     13  C   UNL     1       7.760   6.193  17.626  0.00  0.00    +0.000 A 
ATOM     14  C   UNL     1       7.584   5.381  18.754  0.00  0.00    +0.000 A 
ATOM     15  C   UNL     1       6.320   5.188  19.324  0.00  0.00    +0.000 A 
ATOM     16  C   UNL     1       5.273   5.860  18.706  0.00  0.00    +0.000 A 
ATOM     17  O   UNL     1       3.959   5.864  19.072  0.00  0.00    +0.000 OA
ENDBRANCH   6   9
BRANCH   2  18
ATOM     18  C   UNL     1      -0.311  11.208  20.045  0.00  0.00    +0.000 C 
ATOM     19  C   UNL     1      -1.483  11.722  20.946  0.00  0.00    +0.000 C 
ATOM     20  C   UNL     1      -2.450  12.447  20.012  0.00  0.00    +0.000 C 
ATOM     21  C   UNL     1      -2.229  11.831  18.636  0.00  0.00    +0.000 C 
ATOM     22  C   UNL     1      -1.163  10.753  18.835  0.00  0.00    +0.000 C 
BRANCH  18  23
ATOM     23  C   UNL     1       0.658  12.386  19.804  0.00  0.00    +0.000 A 
ATOM     24  C   UNL     1       1.239  13.112  20.859  0.00  0.00    +0.000 A 
ATOM     25  C   UNL     1       2.243  14.056  20.629  0.00  0.00    +0.000 A 
ATOM     26  C   UNL     1       2.669  14.317  19.334  0.00  0.00    +0.000 A 
ATOM     27  C   UNL     1       2.068  13.659  18.266  0.00  0.00    +0.000 A 
ATOM     28  C   UNL     1       1.068  12.707  18.495  0.00  0.00    +0.000 A 
ENDBRANCH  18  23
ENDBRANCH   2  18
TORSDOF 3
ENDMDL
