MODEL 1
REMARK VINA RESULT:      -8.2      0.000      0.000
REMARK  Name = 
REMARK  5 active torsions:
REMARK  status: ('A' for Active; 'I' for Inactive)
REMARK    1  A    between atoms: C_1  and  C_2
REMARK    2  A    between atoms: C_5  and  C_6
REMARK    3  A    between atoms: N_8  and  C_9
REMARK    4  A    between atoms: C_12  and  C_13
REMARK    5  A    between atoms: N_15  and  C_16
REMARK                            x       y       z     vdW  Elec       q    Type
REMARK                         _______ _______ _______ _____ _____    ______ ____
ROOT
ATOM      1  C   UNL     1       0.726   9.516  19.859  0.00  0.00    +0.000 A 
ATOM      2  C   UNL     1       1.101   9.677  18.519  0.00  0.00    +0.000 A 
ATOM      3  C   UNL     1       1.937   8.752  17.880  0.00  0.00    +0.000 A 
ATOM      4  C   UNL     1       2.411   7.643  18.580  0.00  0.00    +0.000 A 
ATOM      5  C   UNL     1       2.093   7.513  19.941  0.00  0.00    +0.000 A 
ATOM      6  C   UNL     1       1.263   8.445  20.577  0.00  0.00    +0.000 A 
ENDROOT
BRANCH   1   9
ATOM      7  C   UNL     1       0.197  11.498  21.256  0.00  0.00    +0.000 C 
ATOM      8  O   UNL     1       1.342  11.906  21.413  0.00  0.00    +0.000 OA
ATOM      9  N   UNL     1      -0.176  10.382  20.522  0.00  0.00    +0.000 N 
ATOM     10  H   UNL     1      -1.155  10.269  20.301  0.00  0.00    +0.000 HD
BRANCH   7  15
ATOM     11  C   UNL     1      -4.352  14.319  23.456  0.00  0.00    +0.000 C 
ATOM     12  C   UNL     1      -3.127  13.654  22.904  0.00  0.00    +0.000 A 
ATOM     13  C   UNL     1      -2.316  14.276  21.945  0.00  0.00    +0.000 A 
ATOM     14  C   UNL     1      -1.201  13.610  21.415  0.00  0.00    +0.000 A 
ATOM     15  C   UNL     1      -0.897  12.315  21.847  0.00  0.00    +0.000 A 
ATOM     16  C   UNL     1      -1.698  11.696  22.813  0.00  0.00    +0.000 A 
ATOM     17  C   UNL     1      -2.796  12.367  23.332  0.00  0.00    +0.000 A 
ATOM     18  F   UNL     1      -3.558  11.751  24.245  0.00  0.00    +0.000 F 
ENDBRANCH   7  15
ENDBRANCH   1   9
BRANCH   4  19
ATOM     19  C   UNL     1       3.268   6.590  17.962  0.00  0.00    +0.000 C 
ATOM     20  O   UNL     1       2.868   5.432  18.014  0.00  0.00    +0.000 OA
ATOM     21  N   UNL     1       4.448   7.012  17.368  0.00  0.00    +0.000 N 
ATOM     22  H   UNL     1       4.701   7.990  17.438  0.00  0.00    +0.000 HD
BRANCH  21  23
ATOM     23  C   UNL     1       5.373   6.187  16.683  0.00  0.00    +0.000 A 
ATOM     24  C   UNL     1       5.237   5.809  15.349  0.00  0.00    +0.000 A 
ATOM     25  C   UNL     1       6.179   4.967  14.761  0.00  0.00    +0.000 A 
ATOM     26  C   UNL     1       7.242   4.528  15.530  0.00  0.00    +0.000 A 
ATOM     27  N   UNL     1       7.432   4.890  16.815  0.00  0.00    +0.000 NA
ATOM     28  C   UNL     1       6.498   5.715  17.355  0.00  0.00    +0.000 A 
ENDBRANCH  21  23
ENDBRANCH   4  19
TORSDOF 4
ENDMDL
MODEL 2
REMARK VINA RESULT:      -8.0      1.052      1.371
REMARK  Name = 
REMARK  5 active torsions:
REMARK  status: ('A' for Active; 'I' for Inactive)
REMARK    1  A    between atoms: C_1  and  C_2
REMARK    2  A    between atoms: C_5  and  C_6
REMARK    3  A    between atoms: N_8  and  C_9
REMARK    4  A    between atoms: C_12  and  C_13
REMARK    5  A    between atoms: N_15  and  C_16
REMARK                            x       y       z     vdW  Elec       q    Type
REMARK                         _______ _______ _______ _____ _____    ______ ____
ROOT
ATOM      1  C   UNL     1       0.805   9.391  20.052  0.00  0.00    +0.000 A 
ATOM      2  C   UNL     1       1.098   9.597  18.698  0.00  0.00    +0.000 A 
ATOM      3  C   UNL     1       1.892   8.695  17.979  0.00  0.00    +0.000 A 
ATOM      4  C   UNL     1       2.407   7.563  18.611  0.00  0.00    +0.000 A 
ATOM      5  C   UNL     1       2.171   7.387  19.984  0.00  0.00    +0.000 A 
ATOM      6  C   UNL     1       1.382   8.297  20.700  0.00  0.00    +0.000 A 
ENDROOT
BRANCH   1   9
ATOM      7  C   UNL     1       0.336  11.415  21.410  0.00  0.00    +0.000 C 
ATOM      8  O   UNL     1       1.457  11.908  21.374  0.00  0.00    +0.000 OA
ATOM      9  N   UNL     1      -0.054  10.234  20.797  0.00  0.00    +0.000 N 
ATOM     10  H   UNL     1      -1.044  10.042  20.731  0.00  0.00    +0.000 HD
BRANCH   7  15
ATOM     11  C   UNL     1      -3.423  14.617  24.428  0.00  0.00    +0.000 C 
ATOM     12  C   UNL     1      -2.513  13.757  23.602  0.00  0.00    +0.000 A 
ATOM     13  C   UNL     1      -2.733  12.381  23.450  0.00  0.00    +0.000 A 
ATOM     14  C   UNL     1      -1.838  11.596  22.707  0.00  0.00    +0.000 A 
ATOM     15  C   UNL     1      -0.719  12.192  22.115  0.00  0.00    +0.000 A 
ATOM     16  C   UNL     1      -0.505  13.567  22.257  0.00  0.00    +0.000 A 
ATOM     17  C   UNL     1      -1.398  14.333  22.991  0.00  0.00    +0.000 A 
ATOM     18  F   UNL     1      -1.167  15.646  23.126  0.00  0.00    +0.000 F 
ENDBRANCH   7  15
ENDBRANCH   1   9
BRANCH   4  19
ATOM     19  C   UNL     1       3.223   6.533  17.907  0.00  0.00    +0.000 C 
ATOM     20  O   UNL     1       2.735   5.415  17.780  0.00  0.00    +0.000 OA
ATOM     21  N   UNL     1       4.469   6.930  17.444  0.00  0.00    +0.000 N 
ATOM     22  H   UNL     1       4.788   7.866  17.660  0.00  0.00    +0.000 HD
BRANCH  21  23
ATOM     23  C   UNL     1       5.374   6.127  16.708  0.00  0.00    +0.000 A 
ATOM     24  C   UNL     1       5.242   5.854  15.348  0.00  0.00    +0.000 A 
ATOM     25  C   UNL     1       6.163   5.026  14.708  0.00  0.00    +0.000 A 
ATOM     26  C   UNL     1       7.201   4.495  15.453  0.00  0.00    +0.000 A 
ATOM     27  N   UNL     1       7.387   4.754  16.764  0.00  0.00    +0.000 NA
ATOM     28  C   UNL     1       6.475   5.568  17.355  0.00  0.00    +0.000 A 
ENDBRANCH  21  23
ENDBRANCH   4  19
TORSDOF 4
ENDMDL
MODEL 3
REMARK VINA RESULT:      -7.8      0.744      1.201
REMARK  Name = 
REMARK  5 active torsions:
REMARK  status: ('A' for Active; 'I' for Inactive)
REMARK    1  A    between atoms: C_1  and  C_2
REMARK    2  A    between atoms: C_5  and  C_6
REMARK    3  A    between atoms: N_8  and  C_9
REMARK    4  A    between atoms: C_12  and  C_13
REMARK    5  A    between atoms: N_15  and  C_16
REMARK                            x       y       z     vdW  Elec       q    Type
REMARK                         _______ _______ _______ _____ _____    ______ ____
ROOT
ATOM      1  C   UNL     1       0.769   9.442  20.095  0.00  0.00    +0.000 A 
ATOM      2  C   UNL     1       1.162   8.291  20.790  0.00  0.00    +0.000 A 
ATOM      3  C   UNL     1       1.958   7.311  20.184  0.00  0.00    +0.000 A 
ATOM      4  C   UNL     1       2.376   7.473  18.863  0.00  0.00    +0.000 A 
ATOM      5  C   UNL     1       1.930   8.592  18.142  0.00  0.00    +0.000 A 
ATOM      6  C   UNL     1       1.127   9.565  18.752  0.00  0.00    +0.000 A 
ENDROOT
BRANCH   1   9
ATOM      7  C   UNL     1      -0.006  10.759  22.051  0.00  0.00    +0.000 C 
ATOM      8  O   UNL     1       0.607  10.150  22.920  0.00  0.00    +0.000 OA
ATOM      9  N   UNL     1       0.031  10.493  20.690  0.00  0.00    +0.000 N 
ATOM     10  H   UNL     1      -0.353  11.187  20.064  0.00  0.00    +0.000 HD
BRANCH   7  15
ATOM     11  C   UNL     1      -3.491  15.133  23.540  0.00  0.00    +0.000 C 
ATOM     12  C   UNL     1      -2.526  14.040  23.192  0.00  0.00    +0.000 A 
ATOM     13  C   UNL     1      -1.314  14.304  22.538  0.00  0.00    +0.000 A 
ATOM     14  C   UNL     1      -0.452  13.254  22.186  0.00  0.00    +0.000 A 
ATOM     15  C   UNL     1      -0.806  11.935  22.488  0.00  0.00    +0.000 A 
ATOM     16  C   UNL     1      -2.010  11.671  23.151  0.00  0.00    +0.000 A 
ATOM     17  C   UNL     1      -2.852  12.718  23.497  0.00  0.00    +0.000 A 
ATOM     18  F   UNL     1      -4.006  12.441  24.119  0.00  0.00    +0.000 F 
ENDBRANCH   7  15
ENDBRANCH   1   9
BRANCH   4  19
ATOM     19  C   UNL     1       3.260   6.499  18.160  0.00  0.00    +0.000 C 
ATOM     20  O   UNL     1       2.933   5.317  18.185  0.00  0.00    +0.000 OA
ATOM     21  N   UNL     1       4.381   7.015  17.525  0.00  0.00    +0.000 N 
ATOM     22  H   UNL     1       4.578   8.003  17.622  0.00  0.00    +0.000 HD
BRANCH  21  23
ATOM     23  C   UNL     1       5.315   6.275  16.761  0.00  0.00    +0.000 A 
ATOM     24  C   UNL     1       5.117   5.912  15.430  0.00  0.00    +0.000 A 
ATOM     25  C   UNL     1       6.078   5.154  14.762  0.00  0.00    +0.000 A 
ATOM     26  C   UNL     1       7.219   4.782  15.448  0.00  0.00    +0.000 A 
ATOM     27  N   UNL     1       7.469   5.134  16.727  0.00  0.00    +0.000 NA
ATOM     28  C   UNL     1       6.516   5.876  17.346  0.00  0.00    +0.000 A 
ENDBRANCH  21  23
ENDBRANCH   4  19
TORSDOF 4
ENDMDL
MODEL 4
REMARK VINA RESULT:      -7.7      3.362     10.637
REMARK  Name = 
REMARK  5 active torsions:
REMARK  status: ('A' for Active; 'I' for Inactive)
REMARK    1  A    between atoms: C_1  and  C_2
REMARK    2  A    between atoms: C_5  and  C_6
REMARK    3  A    between atoms: N_8  and  C_9
REMARK    4  A    between atoms: C_12  and  C_13
REMARK    5  A    between atoms: N_15  and  C_16
REMARK                            x       y       z     vdW  Elec       q    Type
REMARK                         _______ _______ _______ _____ _____    ______ ____
ROOT
ATOM      1  C   UNL     1       1.763   8.265  19.681  0.00  0.00    +0.000 A 
ATOM      2  C   UNL     1       1.077   9.418  19.279  0.00  0.00    +0.000 A 
ATOM      3  C   UNL     1       0.317  10.167  20.185  0.00  0.00    +0.000 A 
ATOM      4  C   UNL     1       0.235   9.770  21.520  0.00  0.00    +0.000 A 
ATOM      5  C   UNL     1       0.866   8.580  21.913  0.00  0.00    +0.000 A 
ATOM      6  C   UNL     1       1.619   7.830  21.000  0.00  0.00    +0.000 A 
ENDROOT
BRANCH   1   9
ATOM      7  C   UNL     1       2.718   6.140  18.826  0.00  0.00    +0.000 C 
ATOM      8  O   UNL     1       2.097   5.371  19.551  0.00  0.00    +0.000 OA
ATOM      9  N   UNL     1       2.604   7.522  18.819  0.00  0.00    +0.000 N 
ATOM     10  H   UNL     1       3.013   8.024  18.043  0.00  0.00    +0.000 HD
BRANCH   7  15
ATOM     11  C   UNL     1       6.031   4.047  14.567  0.00  0.00    +0.000 C 
ATOM     12  C   UNL     1       5.210   4.537  15.723  0.00  0.00    +0.000 A 
ATOM     13  C   UNL     1       4.493   3.658  16.546  0.00  0.00    +0.000 A 
ATOM     14  C   UNL     1       3.699   4.151  17.593  0.00  0.00    +0.000 A 
ATOM     15  C   UNL     1       3.622   5.530  17.815  0.00  0.00    +0.000 A 
ATOM     16  C   UNL     1       4.347   6.408  17.000  0.00  0.00    +0.000 A 
ATOM     17  C   UNL     1       5.131   5.908  15.971  0.00  0.00    +0.000 A 
ATOM     18  F   UNL     1       5.804   6.767  15.195  0.00  0.00    +0.000 F 
ENDBRANCH   7  15
ENDBRANCH   1   9
BRANCH   4  19
ATOM     19  C   UNL     1      -0.516  10.536  22.556  0.00  0.00    +0.000 C 
ATOM     20  O   UNL     1      -0.488  10.109  23.706  0.00  0.00    +0.000 OA
ATOM     21  N   UNL     1      -1.180  11.677  22.133  0.00  0.00    +0.000 N 
ATOM     22  H   UNL     1      -1.179  11.898  21.145  0.00  0.00    +0.000 HD
BRANCH  21  23
ATOM     23  C   UNL     1      -1.904  12.570  22.961  0.00  0.00    +0.000 A 
ATOM     24  C   UNL     1      -3.209  12.345  23.393  0.00  0.00    +0.000 A 
ATOM     25  C   UNL     1      -3.859  13.294  24.181  0.00  0.00    +0.000 A 
ATOM     26  C   UNL     1      -3.176  14.448  24.521  0.00  0.00    +0.000 A 
ATOM     27  N   UNL     1      -1.902  14.697  24.152  0.00  0.00    +0.000 NA
ATOM     28  C   UNL     1      -1.298  13.750  23.389  0.00  0.00    +0.000 A 
ENDBRANCH  21  23
ENDBRANCH   4  19
TORSDOF 4
ENDMDL
MODEL 5
REMARK VINA RESULT:      -7.7      3.442     10.665
REMARK  Name = 
REMARK  5 active torsions:
REMARK  status: ('A' for Active; 'I' for Inactive)
REMARK    1  A    between atoms: C_1  and  C_2
REMARK    2  A    between atoms: C_5  and  C_6
REMARK    3  A    between atoms: N_8  and  C_9
REMARK    4  A    between atoms: C_12  and  C_13
REMARK    5  A    between atoms: N_15  and  C_16
REMARK                            x       y       z     vdW  Elec       q    Type
REMARK                         _______ _______ _______ _____ _____    ______ ____
ROOT
ATOM      1  C   UNL     1       1.578   8.636  19.557  0.00  0.00    +0.000 A 
ATOM      2  C   UNL     1       0.799   9.734  19.170  0.00  0.00    +0.000 A 
ATOM      3  C   UNL     1       0.050  10.460  20.104  0.00  0.00    +0.000 A 
ATOM      4  C   UNL     1       0.071  10.094  21.450  0.00  0.00    +0.000 A 
ATOM      5  C   UNL     1       0.797   8.955  21.831  0.00  0.00    +0.000 A 
ATOM      6  C   UNL     1       1.539   8.228  20.891  0.00  0.00    +0.000 A 
ENDROOT
BRANCH   1   9
ATOM      7  C   UNL     1       2.717   6.574  18.775  0.00  0.00    +0.000 C 
ATOM      8  O   UNL     1       2.299   5.811  19.638  0.00  0.00    +0.000 OA
ATOM      9  N   UNL     1       2.410   7.921  18.662  0.00  0.00    +0.000 N 
ATOM     10  H   UNL     1       2.652   8.389  17.799  0.00  0.00    +0.000 HD
BRANCH   7  15
ATOM     11  C   UNL     1       6.261   4.015  14.982  0.00  0.00    +0.000 C 
ATOM     12  C   UNL     1       5.312   4.723  15.902  0.00  0.00    +0.000 A 
ATOM     13  C   UNL     1       5.240   6.122  15.957  0.00  0.00    +0.000 A 
ATOM     14  C   UNL     1       4.374   6.755  16.861  0.00  0.00    +0.000 A 
ATOM     15  C   UNL     1       3.576   5.984  17.714  0.00  0.00    +0.000 A 
ATOM     16  C   UNL     1       3.638   4.588  17.651  0.00  0.00    +0.000 A 
ATOM     17  C   UNL     1       4.496   3.973  16.751  0.00  0.00    +0.000 A 
ATOM     18  F   UNL     1       4.550   2.635  16.719  0.00  0.00    +0.000 F 
ENDBRANCH   7  15
ENDBRANCH   1   9
BRANCH   4  19
ATOM     19  C   UNL     1      -0.663  10.840  22.513  0.00  0.00    +0.000 C 
ATOM     20  O   UNL     1      -0.679  10.353  23.638  0.00  0.00    +0.000 OA
ATOM     21  N   UNL     1      -1.262  12.034  22.139  0.00  0.00    +0.000 N 
ATOM     22  H   UNL     1      -1.230  12.306  21.165  0.00  0.00    +0.000 HD
BRANCH  21  23
ATOM     23  C   UNL     1      -1.957  12.917  23.000  0.00  0.00    +0.000 A 
ATOM     24  C   UNL     1      -1.365  14.002  23.644  0.00  0.00    +0.000 A 
ATOM     25  C   UNL     1      -2.118  14.803  24.502  0.00  0.00    +0.000 A 
ATOM     26  C   UNL     1      -3.454  14.496  24.687  0.00  0.00    +0.000 A 
ATOM     27  N   UNL     1      -4.079  13.476  24.063  0.00  0.00    +0.000 NA
ATOM     28  C   UNL     1      -3.317  12.719  23.232  0.00  0.00    +0.000 A 
ENDBRANCH  21  23
ENDBRANCH   4  19
TORSDOF 4
ENDMDL
MODEL 6
REMARK VINA RESULT:      -7.7      1.173      1.343
REMARK  Name = 
REMARK  5 active torsions:
REMARK  status: ('A' for Active; 'I' for Inactive)
REMARK    1  A    between atoms: C_1  and  C_2
REMARK    2  A    between atoms: C_5  and  C_6
REMARK    3  A    between atoms: N_8  and  C_9
REMARK    4  A    between atoms: C_12  and  C_13
REMARK    5  A    between atoms: N_15  and  C_16
REMARK                            x       y       z     vdW  Elec       q    Type
REMARK                         _______ _______ _______ _____ _____    ______ ____
ROOT
ATOM      1  C   UNL     1       0.691   9.294  19.841  0.00  0.00    +0.000 A 
ATOM      2  C   UNL     1       1.205   9.484  18.552  0.00  0.00    +0.000 A 
ATOM      3  C   UNL     1       2.149   8.604  18.007  0.00  0.00    +0.000 A 
ATOM      4  C   UNL     1       2.593   7.512  18.751  0.00  0.00    +0.000 A 
ATOM      5  C   UNL     1       2.131   7.355  20.067  0.00  0.00    +0.000 A 
ATOM      6  C   UNL     1       1.193   8.242  20.610  0.00  0.00    +0.000 A 
ENDROOT
BRANCH   1   9
ATOM      7  C   UNL     1      -0.085  11.180  21.255  0.00  0.00    +0.000 C 
ATOM      8  O   UNL     1       1.014  11.582  21.620  0.00  0.00    +0.000 OA
ATOM      9  N   UNL     1      -0.318  10.112  20.402  0.00  0.00    +0.000 N 
ATOM     10  H   UNL     1      -1.248  10.010  20.018  0.00  0.00    +0.000 HD
BRANCH   7  15
ATOM     11  C   UNL     1      -4.600  14.503  22.693  0.00  0.00    +0.000 C 
ATOM     12  C   UNL     1      -3.451  13.591  22.382  0.00  0.00    +0.000 A 
ATOM     13  C   UNL     1      -2.532  13.198  23.365  0.00  0.00    +0.000 A 
ATOM     14  C   UNL     1      -1.442  12.379  23.033  0.00  0.00    +0.000 A 
ATOM     15  C   UNL     1      -1.271  11.953  21.711  0.00  0.00    +0.000 A 
ATOM     16  C   UNL     1      -2.194  12.335  20.732  0.00  0.00    +0.000 A 
ATOM     17  C   UNL     1      -3.270  13.142  21.073  0.00  0.00    +0.000 A 
ATOM     18  F   UNL     1      -4.133  13.508  20.117  0.00  0.00    +0.000 F 
ENDBRANCH   7  15
ENDBRANCH   1   9
BRANCH   4  19
ATOM     19  C   UNL     1       3.561   6.505  18.228  0.00  0.00    +0.000 C 
ATOM     20  O   UNL     1       3.660   5.445  18.837  0.00  0.00    +0.000 OA
ATOM     21  N   UNL     1       4.267   6.850  17.085  0.00  0.00    +0.000 N 
ATOM     22  H   UNL     1       4.143   7.779  16.703  0.00  0.00    +0.000 HD
BRANCH  21  23
ATOM     23  C   UNL     1       5.190   6.023  16.400  0.00  0.00    +0.000 A 
ATOM     24  C   UNL     1       4.820   4.954  15.586  0.00  0.00    +0.000 A 
ATOM     25  C   UNL     1       5.798   4.170  14.973  0.00  0.00    +0.000 A 
ATOM     26  C   UNL     1       7.127   4.486  15.190  0.00  0.00    +0.000 A 
ATOM     27  N   UNL     1       7.533   5.528  15.944  0.00  0.00    +0.000 NA
ATOM     28  C   UNL     1       6.556   6.273  16.522  0.00  0.00    +0.000 A 
ENDBRANCH  21  23
ENDBRANCH   4  19
TORSDOF 4
ENDMDL
MODEL 7
REMARK VINA RESULT:      -7.5      1.277      1.633
REMARK  Name = 
REMARK  5 active torsions:
REMARK  status: ('A' for Active; 'I' for Inactive)
REMARK    1  A    between atoms: C_1  and  C_2
REMARK    2  A    between atoms: C_5  and  C_6
REMARK    3  A    between atoms: N_8  and  C_9
REMARK    4  A    between atoms: C_12  and  C_13
REMARK    5  A    between atoms: N_15  and  C_16
REMARK                            x       y       z     vdW  Elec       q    Type
REMARK                         _______ _______ _______ _____ _____    ______ ____
ROOT
ATOM      1  C   UNL     1       0.973   9.529  19.878  0.00  0.00    +0.000 A 
ATOM      2  C   UNL     1       1.267   8.354  20.582  0.00  0.00    +0.000 A 
ATOM      3  C   UNL     1       2.027   7.330  20.004  0.00  0.00    +0.000 A 
ATOM      4  C   UNL     1       2.509   7.470  18.703  0.00  0.00    +0.000 A 
ATOM      5  C   UNL     1       2.162   8.616  17.971  0.00  0.00    +0.000 A 
ATOM      6  C   UNL     1       1.395   9.634  18.551  0.00  0.00    +0.000 A 
ENDROOT
BRANCH   1   9
ATOM      7  C   UNL     1      -0.941  11.104  19.990  0.00  0.00    +0.000 C 
ATOM      8  O   UNL     1      -1.592  10.648  19.057  0.00  0.00    +0.000 OA
ATOM      9  N   UNL     1       0.275  10.621  20.448  0.00  0.00    +0.000 N 
ATOM     10  H   UNL     1       0.607  10.952  21.343  0.00  0.00    +0.000 HD
BRANCH   7  15
ATOM     11  C   UNL     1      -3.305  15.220  23.301  0.00  0.00    +0.000 C 
ATOM     12  C   UNL     1      -2.695  14.207  22.380  0.00  0.00    +0.000 A 
ATOM     13  C   UNL     1      -3.284  13.875  21.152  0.00  0.00    +0.000 A 
ATOM     14  C   UNL     1      -2.712  12.890  20.332  0.00  0.00    +0.000 A 
ATOM     15  C   UNL     1      -1.546  12.235  20.744  0.00  0.00    +0.000 A 
ATOM     16  C   UNL     1      -0.951  12.575  21.964  0.00  0.00    +0.000 A 
ATOM     17  C   UNL     1      -1.524  13.552  22.764  0.00  0.00    +0.000 A 
ATOM     18  F   UNL     1      -0.945  13.851  23.935  0.00  0.00    +0.000 F 
ENDBRANCH   7  15
ENDBRANCH   1   9
BRANCH   4  19
ATOM     19  C   UNL     1       3.362   6.446  18.032  0.00  0.00    +0.000 C 
ATOM     20  O   UNL     1       2.993   5.278  18.088  0.00  0.00    +0.000 OA
ATOM     21  N   UNL     1       4.503   6.905  17.390  0.00  0.00    +0.000 N 
ATOM     22  H   UNL     1       4.735   7.888  17.461  0.00  0.00    +0.000 HD
BRANCH  21  23
ATOM     23  C   UNL     1       5.414   6.112  16.652  0.00  0.00    +0.000 A 
ATOM     24  C   UNL     1       5.255   5.795  15.304  0.00  0.00    +0.000 A 
ATOM     25  C   UNL     1       6.187   4.980  14.662  0.00  0.00    +0.000 A 
ATOM     26  C   UNL     1       7.261   4.505  15.392  0.00  0.00    +0.000 A 
ATOM     27  N   UNL     1       7.474   4.809  16.690  0.00  0.00    +0.000 NA
ATOM     28  C   UNL     1       6.551   5.609  17.283  0.00  0.00    +0.000 A 
ENDBRANCH  21  23
ENDBRANCH   4  19
TORSDOF 4
ENDMDL
MODEL 8
REMARK VINA RESULT:      -7.5      1.169      1.663
REMARK  Name = 
REMARK  5 active torsions:
REMARK  status: ('A' for Active; 'I' for Inactive)
REMARK    1  A    between atoms: C_1  and  C_2
REMARK    2  A    between atoms: C_5  and  C_6
REMARK    3  A    between atoms: N_8  and  C_9
REMARK    4  A    between atoms: C_12  and  C_13
REMARK    5  A    between atoms: N_15  and  C_16
REMARK                            x       y       z     vdW  Elec       q    Type
REMARK                         _______ _______ _______ _____ _____    ______ ____
ROOT
ATOM      1  C   UNL     1       0.603   9.480  19.892  0.00  0.00    +0.000 A 
ATOM      2  C   UNL     1       1.021   9.620  18.562  0.00  0.00    +0.000 A 
ATOM      3  C   UNL     1       1.887   8.692  17.969  0.00  0.00    +0.000 A 
ATOM      4  C   UNL     1       2.349   7.602  18.706  0.00  0.00    +0.000 A 
ATOM      5  C   UNL     1       1.987   7.494  20.058  0.00  0.00    +0.000 A 
ATOM      6  C   UNL     1       1.126   8.429  20.647  0.00  0.00    +0.000 A 
ENDROOT
BRANCH   1   9
ATOM      7  C   UNL     1       0.008  11.477  21.240  0.00  0.00    +0.000 C 
ATOM      8  O   UNL     1       1.143  11.894  21.436  0.00  0.00    +0.000 OA
ATOM      9  N   UNL     1      -0.329  10.349  20.507  0.00  0.00    +0.000 N 
ATOM     10  H   UNL     1      -1.299  10.227  20.250  0.00  0.00    +0.000 HD
BRANCH   7  15
ATOM     11  C   UNL     1      -4.074  15.037  23.279  0.00  0.00    +0.000 C 
ATOM     12  C   UNL     1      -3.068  14.051  22.764  0.00  0.00    +0.000 A 
ATOM     13  C   UNL     1      -2.697  12.919  23.502  0.00  0.00    +0.000 A 
ATOM     14  C   UNL     1      -1.720  12.039  23.011  0.00  0.00    +0.000 A 
ATOM     15  C   UNL     1      -1.113  12.294  21.777  0.00  0.00    +0.000 A 
ATOM     16  C   UNL     1      -1.491  13.418  21.034  0.00  0.00    +0.000 A 
ATOM     17  C   UNL     1      -2.460  14.279  21.528  0.00  0.00    +0.000 A 
ATOM     18  F   UNL     1      -2.797  15.356  20.806  0.00  0.00    +0.000 F 
ENDBRANCH   7  15
ENDBRANCH   1   9
BRANCH   4  19
ATOM     19  C   UNL     1       3.237   6.547  18.137  0.00  0.00    +0.000 C 
ATOM     20  O   UNL     1       2.876   5.381  18.252  0.00  0.00    +0.000 OA
ATOM     21  N   UNL     1       4.399   6.976  17.513  0.00  0.00    +0.000 N 
ATOM     22  H   UNL     1       4.620   7.964  17.530  0.00  0.00    +0.000 HD
BRANCH  21  23
ATOM     23  C   UNL     1       5.346   6.147  16.865  0.00  0.00    +0.000 A 
ATOM     24  C   UNL     1       6.283   5.365  17.537  0.00  0.00    +0.000 A 
ATOM     25  C   UNL     1       7.202   4.601  16.818  0.00  0.00    +0.000 A 
ATOM     26  C   UNL     1       7.152   4.638  15.437  0.00  0.00    +0.000 A 
ATOM     27  N   UNL     1       6.245   5.356  14.742  0.00  0.00    +0.000 NA
ATOM     28  C   UNL     1       5.363   6.084  15.473  0.00  0.00    +0.000 A 
ENDBRANCH  21  23
ENDBRANCH   4  19
TORSDOF 4
ENDMDL
MODEL 9
REMARK VINA RESULT:      -7.5      3.352     10.677
REMARK  Name = 
REMARK  5 active torsions:
REMARK  status: ('A' for Active; 'I' for Inactive)
REMARK    1  A    between atoms: C_1  and  C_2
REMARK    2  A    between atoms: C_5  and  C_6
REMARK    3  A    between atoms: N_8  and  C_9
REMARK    4  A    between atoms: C_12  and  C_13
REMARK    5  A    between atoms: N_15  and  C_16
REMARK                            x       y       z     vdW  Elec       q    Type
REMARK                         _______ _______ _______ _____ _____    ______ ____
ROOT
ATOM      1  C   UNL     1       1.604   8.434  19.698  0.00  0.00    +0.000 A 
ATOM      2  C   UNL     1       0.908   9.545  19.205  0.00  0.00    +0.000 A 
ATOM      3  C   UNL     1       0.143  10.359  20.050  0.00  0.00    +0.000 A 
ATOM      4  C   UNL     1       0.064  10.069  21.411  0.00  0.00    +0.000 A 
ATOM      5  C   UNL     1       0.704   8.918  21.898  0.00  0.00    +0.000 A 
ATOM      6  C   UNL     1       1.463   8.104  21.047  0.00  0.00    +0.000 A 
ENDROOT
BRANCH   1   9
ATOM      7  C   UNL     1       2.578   6.255  19.018  0.00  0.00    +0.000 C 
ATOM      8  O   UNL     1       1.967   5.542  19.806  0.00  0.00    +0.000 OA
ATOM      9  N   UNL     1       2.450   7.630  18.897  0.00  0.00    +0.000 N 
ATOM     10  H   UNL     1       2.851   8.071  18.081  0.00  0.00    +0.000 HD
BRANCH   7  15
ATOM     11  C   UNL     1       6.008   3.945  14.970  0.00  0.00    +0.000 C 
ATOM     12  C   UNL     1       5.139   4.480  16.068  0.00  0.00    +0.000 A 
ATOM     13  C   UNL     1       4.164   3.689  16.691  0.00  0.00    +0.000 A 
ATOM     14  C   UNL     1       3.336   4.232  17.686  0.00  0.00    +0.000 A 
ATOM     15  C   UNL     1       3.486   5.573  18.057  0.00  0.00    +0.000 A 
ATOM     16  C   UNL     1       4.467   6.360  17.444  0.00  0.00    +0.000 A 
ATOM     17  C   UNL     1       5.282   5.811  16.464  0.00  0.00    +0.000 A 
ATOM     18  F   UNL     1       6.205   6.586  15.881  0.00  0.00    +0.000 F 
ENDBRANCH   7  15
ENDBRANCH   1   9
BRANCH   4  19
ATOM     19  C   UNL     1      -0.693  10.909  22.384  0.00  0.00    +0.000 C 
ATOM     20  O   UNL     1      -0.506  10.699  23.578  0.00  0.00    +0.000 OA
ATOM     21  N   UNL     1      -1.543  11.868  21.855  0.00  0.00    +0.000 N 
ATOM     22  H   UNL     1      -1.658  11.909  20.850  0.00  0.00    +0.000 HD
BRANCH  21  23
ATOM     23  C   UNL     1      -2.308  12.799  22.598  0.00  0.00    +0.000 A 
ATOM     24  C   UNL     1      -1.761  13.881  23.285  0.00  0.00    +0.000 A 
ATOM     25  C   UNL     1      -2.586  14.732  24.021  0.00  0.00    +0.000 A 
ATOM     26  C   UNL     1      -3.945  14.476  24.042  0.00  0.00    +0.000 A 
ATOM     27  N   UNL     1      -4.524  13.460  23.369  0.00  0.00    +0.000 NA
ATOM     28  C   UNL     1      -3.693  12.654  22.660  0.00  0.00    +0.000 A 
ENDBRANCH  21  23
ENDBRANCH   4  19
TORSDOF 4
ENDMDL
