MODEL 1
REMARK VINA RESULT:      -8.9      0.000      0.000
REMARK  Name = 
REMARK  7 active torsions:
REMARK  status: ('A' for Active; 'I' for Inactive)
REMARK    1  A    between atoms: C_10  and  C_11
REMARK    2  A    between atoms: N_13  and  C_14
REMARK    3  A    between atoms: C_18  and  C_19
REMARK    4  A    between atoms: C_19  and  C_20
REMARK    5  A    between atoms: C_19  and  S_21
REMARK    6  A    between atoms: S_21  and  C_22
REMARK    7  A    between atoms: N_26  and  C_27
REMARK                            x       y       z     vdW  Elec       q    Type
REMARK                         _______ _______ _______ _____ _____    ______ ____
ROOT
ATOM      1  C   UNL     1       2.609   6.465  18.410  0.00  0.00    +0.000 A 
ATOM      2  C   UNL     1       1.844   5.296  18.383  0.00  0.00    +0.000 A 
ATOM      3  C   UNL     1       2.345   4.118  17.831  0.00  0.00    +0.000 A 
ATOM      4  C   UNL     1       3.622   4.093  17.288  0.00  0.00    +0.000 A 
ATOM      5  C   UNL     1       4.403   5.259  17.251  0.00  0.00    +0.000 A 
ATOM      6  C   UNL     1       3.871   6.449  17.794  0.00  0.00    +0.000 A 
ENDROOT
BRANCH   1   9
ATOM      7  C   UNL     1       1.691   8.784  18.455  0.00  0.00    +0.000 C 
ATOM      8  O   UNL     1       1.568   8.918  17.240  0.00  0.00    +0.000 OA
ATOM      9  N   UNL     1       2.195   7.652  19.077  0.00  0.00    +0.000 N 
ATOM     10  H   UNL     1       2.126   7.593  20.083  0.00  0.00    +0.000 HD
BRANCH   7  20
ATOM     11  C   UNL     1       2.180  11.847  18.090  0.00  0.00    +0.000 C 
ATOM     12  C   UNL     1       1.539  11.286  19.119  0.00  0.00    +0.000 C 
ATOM     13  N   UNL     1       1.065  12.044  20.163  0.00  0.00    +0.000 NA
ATOM     14  C   UNL     1       0.502  11.185  20.948  0.00  0.00    +0.000 A 
ATOM     15  C   UNL     1      -0.150  11.483  22.237  0.00  0.00    +0.000 A 
ATOM     16  C   UNL     1      -0.679  10.470  22.936  0.00  0.00    +0.000 A 
ATOM     17  C   UNL     1      -0.624   9.090  22.482  0.00  0.00    +0.000 A 
ATOM     18  C   UNL     1      -0.031   8.742  21.325  0.00  0.00    +0.000 A 
ATOM     19  C   UNL     1       0.536   9.773  20.502  0.00  0.00    +0.000 A 
ATOM     20  C   UNL     1       1.207   9.879  19.350  0.00  0.00    +0.000 C 
ENDBRANCH   7  20
ENDBRANCH   1   9
BRANCH   5  21
ATOM     21  C   UNL     1       5.830   5.225  16.724  0.00  0.00    +0.000 C 
ATOM     22  C   UNL     1       6.815   5.101  17.897  0.00  0.00    +0.000 C 
BRANCH  21  23
ATOM     23  S   UNL     1       6.147   3.832  15.584  0.00  0.00    +0.000 S 
BRANCH  23  24
ATOM     24  C   UNL     1       6.992   4.606  14.295  0.00  0.00    +0.000 A 
ATOM     25  N   UNL     1       7.914   5.532  14.385  0.00  0.00    +0.000 NA
ATOM     26  N   UNL     1       8.337   5.827  13.105  0.00  0.00    +0.000 NA
ATOM     27  C   UNL     1       7.658   5.066  12.277  0.00  0.00    +0.000 A 
ATOM     28  N   UNL     1       6.799   4.278  12.982  0.00  0.00    +0.000 N 
ATOM     29  C   UNL     1       5.876   3.324  12.431  0.00  0.00    +0.000 C 
ENDBRANCH  23  24
ENDBRANCH  21  23
ENDBRANCH   5  21
TORSDOF 5
ENDMDL
MODEL 2
REMARK VINA RESULT:      -8.3      3.654      9.213
REMARK  Name = 
REMARK  7 active torsions:
REMARK  status: ('A' for Active; 'I' for Inactive)
REMARK    1  A    between atoms: C_10  and  C_11
REMARK    2  A    between atoms: N_13  and  C_14
REMARK    3  A    between atoms: C_18  and  C_19
REMARK    4  A    between atoms: C_19  and  C_20
REMARK    5  A    between atoms: C_19  and  S_21
REMARK    6  A    between atoms: S_21  and  C_22
REMARK    7  A    between atoms: N_26  and  C_27
REMARK                            x       y       z     vdW  Elec       q    Type
REMARK                         _______ _______ _______ _____ _____    ______ ____
ROOT
ATOM      1  C   UNL     1       1.527   8.355  20.291  0.00  0.00    +0.000 A 
ATOM      2  C   UNL     1       1.491   8.448  21.686  0.00  0.00    +0.000 A 
ATOM      3  C   UNL     1       0.708   9.407  22.326  0.00  0.00    +0.000 A 
ATOM      4  C   UNL     1      -0.051  10.297  21.578  0.00  0.00    +0.000 A 
ATOM      5  C   UNL     1      -0.004  10.268  20.175  0.00  0.00    +0.000 A 
ATOM      6  C   UNL     1       0.813   9.305  19.543  0.00  0.00    +0.000 A 
ENDROOT
BRANCH   1   9
ATOM      7  C   UNL     1       2.693   7.404  18.303  0.00  0.00    +0.000 C 
ATOM      8  O   UNL     1       2.572   8.387  17.576  0.00  0.00    +0.000 OA
ATOM      9  N   UNL     1       2.205   7.315  19.597  0.00  0.00    +0.000 N 
ATOM     10  H   UNL     1       2.477   6.516  20.153  0.00  0.00    +0.000 HD
BRANCH   7  20
ATOM     11  C   UNL     1       1.633   4.499  17.857  0.00  0.00    +0.000 C 
ATOM     12  C   UNL     1       2.897   4.895  17.680  0.00  0.00    +0.000 C 
ATOM     13  N   UNL     1       3.879   4.004  17.317  0.00  0.00    +0.000 NA
ATOM     14  C   UNL     1       4.945   4.728  17.226  0.00  0.00    +0.000 A 
ATOM     15  C   UNL     1       6.297   4.245  16.882  0.00  0.00    +0.000 A 
ATOM     16  C   UNL     1       7.301   5.131  16.841  0.00  0.00    +0.000 A 
ATOM     17  C   UNL     1       7.116   6.543  17.135  0.00  0.00    +0.000 A 
ATOM     18  C   UNL     1       5.916   7.050  17.471  0.00  0.00    +0.000 A 
ATOM     19  C   UNL     1       4.781   6.172  17.510  0.00  0.00    +0.000 A 
ATOM     20  C   UNL     1       3.477   6.234  17.802  0.00  0.00    +0.000 C 
ENDBRANCH   7  20
ENDBRANCH   1   9
BRANCH   5  21
ATOM     21  C   UNL     1      -0.886  11.190  19.346  0.00  0.00    +0.000 C 
ATOM     22  C   UNL     1      -0.090  12.435  18.928  0.00  0.00    +0.000 C 
BRANCH  21  23
ATOM     23  S   UNL     1      -1.525  10.404  17.823  0.00  0.00    +0.000 S 
BRANCH  23  24
ATOM     24  C   UNL     1      -3.104  11.087  17.700  0.00  0.00    +0.000 A 
ATOM     25  N   UNL     1      -3.821  11.622  18.657  0.00  0.00    +0.000 NA
ATOM     26  N   UNL     1      -4.998  12.072  18.095  0.00  0.00    +0.000 NA
ATOM     27  C   UNL     1      -4.956  11.797  16.811  0.00  0.00    +0.000 A 
ATOM     28  N   UNL     1      -3.779  11.176  16.516  0.00  0.00    +0.000 N 
ATOM     29  C   UNL     1      -3.371  10.705  15.221  0.00  0.00    +0.000 C 
ENDBRANCH  23  24
ENDBRANCH  21  23
ENDBRANCH   5  21
TORSDOF 5
ENDMDL
MODEL 3
REMARK VINA RESULT:      -8.2      3.940     10.185
REMARK  Name = 
REMARK  7 active torsions:
REMARK  status: ('A' for Active; 'I' for Inactive)
REMARK    1  A    between atoms: C_10  and  C_11
REMARK    2  A    between atoms: N_13  and  C_14
REMARK    3  A    between atoms: C_18  and  C_19
REMARK    4  A    between atoms: C_19  and  C_20
REMARK    5  A    between atoms: C_19  and  S_21
REMARK    6  A    between atoms: S_21  and  C_22
REMARK    7  A    between atoms: N_26  and  C_27
REMARK                            x       y       z     vdW  Elec       q    Type
REMARK                         _______ _______ _______ _____ _____    ______ ____
ROOT
ATOM      1  C   UNL     1       1.221   9.575  19.057  0.00  0.00    +0.000 A 
ATOM      2  C   UNL     1       1.587  10.795  18.484  0.00  0.00    +0.000 A 
ATOM      3  C   UNL     1       1.141  12.005  19.014  0.00  0.00    +0.000 A 
ATOM      4  C   UNL     1       0.312  12.013  20.127  0.00  0.00    +0.000 A 
ATOM      5  C   UNL     1      -0.118  10.806  20.702  0.00  0.00    +0.000 A 
ATOM      6  C   UNL     1       0.325   9.590  20.138  0.00  0.00    +0.000 A 
ENDROOT
BRANCH   1   9
ATOM      7  C   UNL     1       2.201   7.321  19.480  0.00  0.00    +0.000 C 
ATOM      8  O   UNL     1       2.226   7.397  20.706  0.00  0.00    +0.000 OA
ATOM      9  N   UNL     1       1.753   8.325  18.635  0.00  0.00    +0.000 N 
ATOM     10  H   UNL     1       1.648   8.108  17.654  0.00  0.00    +0.000 HD
BRANCH   7  20
ATOM     11  C   UNL     1       4.369   6.965  17.259  0.00  0.00    +0.000 C 
ATOM     12  C   UNL     1       3.608   5.986  17.758  0.00  0.00    +0.000 C 
ATOM     13  N   UNL     1       3.693   4.702  17.277  0.00  0.00    +0.000 NA
ATOM     14  C   UNL     1       2.840   4.040  17.988  0.00  0.00    +0.000 A 
ATOM     15  C   UNL     1       2.526   2.605  17.855  0.00  0.00    +0.000 A 
ATOM     16  C   UNL     1       1.604   2.074  18.670  0.00  0.00    +0.000 A 
ATOM     17  C   UNL     1       0.892   2.858  19.667  0.00  0.00    +0.000 A 
ATOM     18  C   UNL     1       1.115   4.174  19.832  0.00  0.00    +0.000 A 
ATOM     19  C   UNL     1       2.109   4.814  19.018  0.00  0.00    +0.000 A 
ATOM     20  C   UNL     1       2.615   6.039  18.833  0.00  0.00    +0.000 C 
ENDBRANCH   7  20
ENDBRANCH   1   9
BRANCH   5  21
ATOM     21  C   UNL     1      -0.967  10.804  21.965  0.00  0.00    +0.000 C 
ATOM     22  C   UNL     1      -0.313   9.912  23.031  0.00  0.00    +0.000 C 
BRANCH  21  23
ATOM     23  S   UNL     1      -1.186  12.468  22.692  0.00  0.00    +0.000 S 
BRANCH  23  24
ATOM     24  C   UNL     1      -2.893  12.536  22.929  0.00  0.00    +0.000 A 
ATOM     25  N   UNL     1      -3.586  12.012  23.909  0.00  0.00    +0.000 NA
ATOM     26  N   UNL     1      -4.910  12.351  23.712  0.00  0.00    +0.000 NA
ATOM     27  C   UNL     1      -4.977  13.073  22.617  0.00  0.00    +0.000 A 
ATOM     28  N   UNL     1      -3.728  13.217  22.089  0.00  0.00    +0.000 N 
ATOM     29  C   UNL     1      -3.395  13.926  20.884  0.00  0.00    +0.000 C 
ENDBRANCH  23  24
ENDBRANCH  21  23
ENDBRANCH   5  21
TORSDOF 5
ENDMDL
MODEL 4
REMARK VINA RESULT:      -8.2      3.901     10.118
REMARK  Name = 
REMARK  7 active torsions:
REMARK  status: ('A' for Active; 'I' for Inactive)
REMARK    1  A    between atoms: C_10  and  C_11
REMARK    2  A    between atoms: N_13  and  C_14
REMARK    3  A    between atoms: C_18  and  C_19
REMARK    4  A    between atoms: C_19  and  C_20
REMARK    5  A    between atoms: C_19  and  S_21
REMARK    6  A    between atoms: S_21  and  C_22
REMARK    7  A    between atoms: N_26  and  C_27
REMARK                            x       y       z     vdW  Elec       q    Type
REMARK                         _______ _______ _______ _____ _____    ______ ____
ROOT
ATOM      1  C   UNL     1       1.525   8.492  19.319  0.00  0.00    +0.000 A 
ATOM      2  C   UNL     1       1.150   9.252  18.208  0.00  0.00    +0.000 A 
ATOM      3  C   UNL     1       0.200  10.267  18.314  0.00  0.00    +0.000 A 
ATOM      4  C   UNL     1      -0.397  10.535  19.537  0.00  0.00    +0.000 A 
ATOM      5  C   UNL     1      -0.084   9.762  20.667  0.00  0.00    +0.000 A 
ATOM      6  C   UNL     1       0.862   8.723  20.536  0.00  0.00    +0.000 A 
ENDROOT
BRANCH   1   9
ATOM      7  C   UNL     1       2.530   6.312  18.645  0.00  0.00    +0.000 C 
ATOM      8  O   UNL     1       1.553   5.879  18.039  0.00  0.00    +0.000 OA
ATOM      9  N   UNL     1       2.579   7.538  19.291  0.00  0.00    +0.000 N 
ATOM     10  H   UNL     1       3.472   7.855  19.640  0.00  0.00    +0.000 HD
BRANCH   7  20
ATOM     11  C   UNL     1       3.019   3.600  20.116  0.00  0.00    +0.000 C 
ATOM     12  C   UNL     1       3.935   4.272  19.412  0.00  0.00    +0.000 C 
ATOM     13  N   UNL     1       5.230   3.822  19.316  0.00  0.00    +0.000 NA
ATOM     14  C   UNL     1       5.813   4.696  18.563  0.00  0.00    +0.000 A 
ATOM     15  C   UNL     1       7.234   4.690  18.165  0.00  0.00    +0.000 A 
ATOM     16  C   UNL     1       7.683   5.681  17.383  0.00  0.00    +0.000 A 
ATOM     17  C   UNL     1       6.832   6.768  16.926  0.00  0.00    +0.000 A 
ATOM     18  C   UNL     1       5.532   6.847  17.263  0.00  0.00    +0.000 A 
ATOM     19  C   UNL     1       4.965   5.808  18.075  0.00  0.00    +0.000 A 
ATOM     20  C   UNL     1       3.790   5.508  18.641  0.00  0.00    +0.000 C 
ENDBRANCH   7  20
ENDBRANCH   1   9
BRANCH   5  21
ATOM     21  C   UNL     1      -0.678  10.093  22.028  0.00  0.00    +0.000 C 
ATOM     22  C   UNL     1       0.165   9.445  23.136  0.00  0.00    +0.000 C 
BRANCH  21  23
ATOM     23  S   UNL     1      -0.753  11.889  22.366  0.00  0.00    +0.000 S 
BRANCH  23  24
ATOM     24  C   UNL     1      -2.441  12.139  22.614  0.00  0.00    +0.000 A 
ATOM     25  N   UNL     1      -3.136  11.896  23.697  0.00  0.00    +0.000 NA
ATOM     26  N   UNL     1      -4.438  12.286  23.455  0.00  0.00    +0.000 NA
ATOM     27  C   UNL     1      -4.490  12.757  22.230  0.00  0.00    +0.000 A 
ATOM     28  N   UNL     1      -3.254  12.686  21.661  0.00  0.00    +0.000 N 
ATOM     29  C   UNL     1      -2.912  13.090  20.324  0.00  0.00    +0.000 C 
ENDBRANCH  23  24
ENDBRANCH  21  23
ENDBRANCH   5  21
TORSDOF 5
ENDMDL
MODEL 5
REMARK VINA RESULT:      -8.2      1.030      1.069
REMARK  Name = 
REMARK  7 active torsions:
REMARK  status: ('A' for Active; 'I' for Inactive)
REMARK    1  A    between atoms: C_10  and  C_11
REMARK    2  A    between atoms: N_13  and  C_14
REMARK    3  A    between atoms: C_18  and  C_19
REMARK    4  A    between atoms: C_19  and  C_20
REMARK    5  A    between atoms: C_19  and  S_21
REMARK    6  A    between atoms: S_21  and  C_22
REMARK    7  A    between atoms: N_26  and  C_27
REMARK                            x       y       z     vdW  Elec       q    Type
REMARK                         _______ _______ _______ _____ _____    ______ ____
ROOT
ATOM      1  C   UNL     1       2.293   5.937  18.091  0.00  0.00    +0.000 A 
ATOM      2  C   UNL     1       1.729   4.672  18.283  0.00  0.00    +0.000 A 
ATOM      3  C   UNL     1       2.431   3.512  17.960  0.00  0.00    +0.000 A 
ATOM      4  C   UNL     1       3.712   3.599  17.431  0.00  0.00    +0.000 A 
ATOM      5  C   UNL     1       4.293   4.852  17.177  0.00  0.00    +0.000 A 
ATOM      6  C   UNL     1       3.559   6.016  17.489  0.00  0.00    +0.000 A 
ENDROOT
BRANCH   1   9
ATOM      7  C   UNL     1       1.812   7.704  19.784  0.00  0.00    +0.000 C 
ATOM      8  O   UNL     1       2.469   7.215  20.700  0.00  0.00    +0.000 OA
ATOM      9  N   UNL     1       1.671   7.141  18.525  0.00  0.00    +0.000 N 
ATOM     10  H   UNL     1       1.223   7.691  17.806  0.00  0.00    +0.000 HD
BRANCH   7  20
ATOM     11  C   UNL     1       1.909  10.158  17.853  0.00  0.00    +0.000 C 
ATOM     12  C   UNL     1       1.317  10.142  19.051  0.00  0.00    +0.000 C 
ATOM     13  N   UNL     1       0.721  11.268  19.566  0.00  0.00    +0.000 NA
ATOM     14  C   UNL     1       0.252  10.884  20.707  0.00  0.00    +0.000 A 
ATOM     15  C   UNL     1      -0.469  11.728  21.680  0.00  0.00    +0.000 A 
ATOM     16  C   UNL     1      -0.881  11.172  22.827  0.00  0.00    +0.000 A 
ATOM     17  C   UNL     1      -0.635   9.778  23.158  0.00  0.00    +0.000 A 
ATOM     18  C   UNL     1       0.030   8.954  22.327  0.00  0.00    +0.000 A 
ATOM     19  C   UNL     1       0.481   9.464  21.063  0.00  0.00    +0.000 A 
ATOM     20  C   UNL     1       1.165   9.035  19.997  0.00  0.00    +0.000 C 
ENDBRANCH   7  20
ENDBRANCH   1   9
BRANCH   5  21
ATOM     21  C   UNL     1       5.723   4.958  16.666  0.00  0.00    +0.000 C 
ATOM     22  C   UNL     1       6.704   4.887  17.845  0.00  0.00    +0.000 C 
BRANCH  21  23
ATOM     23  S   UNL     1       6.171   3.631  15.490  0.00  0.00    +0.000 S 
BRANCH  23  24
ATOM     24  C   UNL     1       7.003   4.506  14.259  0.00  0.00    +0.000 A 
ATOM     25  N   UNL     1       7.894   5.453  14.414  0.00  0.00    +0.000 NA
ATOM     26  N   UNL     1       8.320   5.836  13.158  0.00  0.00    +0.000 NA
ATOM     27  C   UNL     1       7.673   5.105  12.279  0.00  0.00    +0.000 A 
ATOM     28  N   UNL     1       6.832   4.250  12.928  0.00  0.00    +0.000 N 
ATOM     29  C   UNL     1       5.945   3.304  12.310  0.00  0.00    +0.000 C 
ENDBRANCH  23  24
ENDBRANCH  21  23
ENDBRANCH   5  21
TORSDOF 5
ENDMDL
MODEL 6
REMARK VINA RESULT:      -8.2      3.921     10.405
REMARK  Name = 
REMARK  7 active torsions:
REMARK  status: ('A' for Active; 'I' for Inactive)
REMARK    1  A    between atoms: C_10  and  C_11
REMARK    2  A    between atoms: N_13  and  C_14
REMARK    3  A    between atoms: C_18  and  C_19
REMARK    4  A    between atoms: C_19  and  C_20
REMARK    5  A    between atoms: C_19  and  S_21
REMARK    6  A    between atoms: S_21  and  C_22
REMARK    7  A    between atoms: N_26  and  C_27
REMARK                            x       y       z     vdW  Elec       q    Type
REMARK                         _______ _______ _______ _____ _____    ______ ____
ROOT
ATOM      1  C   UNL     1       1.133   9.652  19.120  0.00  0.00    +0.000 A 
ATOM      2  C   UNL     1       1.465  10.896  18.576  0.00  0.00    +0.000 A 
ATOM      3  C   UNL     1       1.000  12.081  19.144  0.00  0.00    +0.000 A 
ATOM      4  C   UNL     1       0.186  12.040  20.268  0.00  0.00    +0.000 A 
ATOM      5  C   UNL     1      -0.210  10.809  20.815  0.00  0.00    +0.000 A 
ATOM      6  C   UNL     1       0.251   9.619  20.213  0.00  0.00    +0.000 A 
ENDROOT
BRANCH   1   9
ATOM      7  C   UNL     1       2.185   7.418  19.467  0.00  0.00    +0.000 C 
ATOM      8  O   UNL     1       2.242   7.470  20.694  0.00  0.00    +0.000 OA
ATOM      9  N   UNL     1       1.686   8.426  18.657  0.00  0.00    +0.000 N 
ATOM     10  H   UNL     1       1.559   8.227  17.675  0.00  0.00    +0.000 HD
BRANCH   7  20
ATOM     11  C   UNL     1       1.236   4.515  20.124  0.00  0.00    +0.000 C 
ATOM     12  C   UNL     1       2.150   4.839  19.204  0.00  0.00    +0.000 C 
ATOM     13  N   UNL     1       2.803   3.872  18.478  0.00  0.00    +0.000 NA
ATOM     14  C   UNL     1       3.585   4.538  17.694  0.00  0.00    +0.000 A 
ATOM     15  C   UNL     1       4.529   3.966  16.716  0.00  0.00    +0.000 A 
ATOM     16  C   UNL     1       5.277   4.802  15.984  0.00  0.00    +0.000 A 
ATOM     17  C   UNL     1       5.207   6.247  16.126  0.00  0.00    +0.000 A 
ATOM     18  C   UNL     1       4.382   6.839  17.009  0.00  0.00    +0.000 A 
ATOM     19  C   UNL     1       3.524   6.014  17.812  0.00  0.00    +0.000 A 
ATOM     20  C   UNL     1       2.615   6.161  18.782  0.00  0.00    +0.000 C 
ENDBRANCH   7  20
ENDBRANCH   1   9
BRANCH   5  21
ATOM     21  C   UNL     1      -1.041  10.754  22.089  0.00  0.00    +0.000 C 
ATOM     22  C   UNL     1      -0.347   9.858  23.125  0.00  0.00    +0.000 C 
BRANCH  21  23
ATOM     23  S   UNL     1      -1.297  12.394  22.857  0.00  0.00    +0.000 S 
BRANCH  23  24
ATOM     24  C   UNL     1      -3.015  12.469  22.983  0.00  0.00    +0.000 A 
ATOM     25  N   UNL     1      -3.763  12.070  23.982  0.00  0.00    +0.000 NA
ATOM     26  N   UNL     1      -5.074  12.362  23.665  0.00  0.00    +0.000 NA
ATOM     27  C   UNL     1      -5.080  12.932  22.481  0.00  0.00    +0.000 A 
ATOM     28  N   UNL     1      -3.803  13.022  22.012  0.00  0.00    +0.000 N 
ATOM     29  C   UNL     1      -3.402  13.570  20.746  0.00  0.00    +0.000 C 
ENDBRANCH  23  24
ENDBRANCH  21  23
ENDBRANCH   5  21
TORSDOF 5
ENDMDL
MODEL 7
REMARK VINA RESULT:      -8.1      3.792      9.407
REMARK  Name = 
REMARK  7 active torsions:
REMARK  status: ('A' for Active; 'I' for Inactive)
REMARK    1  A    between atoms: C_10  and  C_11
REMARK    2  A    between atoms: N_13  and  C_14
REMARK    3  A    between atoms: C_18  and  C_19
REMARK    4  A    between atoms: C_19  and  C_20
REMARK    5  A    between atoms: C_19  and  S_21
REMARK    6  A    between atoms: S_21  and  C_22
REMARK    7  A    between atoms: N_26  and  C_27
REMARK                            x       y       z     vdW  Elec       q    Type
REMARK                         _______ _______ _______ _____ _____    ______ ____
ROOT
ATOM      1  C   UNL     1       1.415   8.515  20.154  0.00  0.00    +0.000 A 
ATOM      2  C   UNL     1       1.490   8.431  21.548  0.00  0.00    +0.000 A 
ATOM      3  C   UNL     1       0.748   9.285  22.363  0.00  0.00    +0.000 A 
ATOM      4  C   UNL     1      -0.079  10.244  21.796  0.00  0.00    +0.000 A 
ATOM      5  C   UNL     1      -0.144  10.392  20.401  0.00  0.00    +0.000 A 
ATOM      6  C   UNL     1       0.631   9.535  19.591  0.00  0.00    +0.000 A 
ENDROOT
BRANCH   1   9
ATOM      7  C   UNL     1       2.260   6.245  19.562  0.00  0.00    +0.000 C 
ATOM      8  O   UNL     1       1.955   5.693  20.617  0.00  0.00    +0.000 OA
ATOM      9  N   UNL     1       2.048   7.586  19.283  0.00  0.00    +0.000 N 
ATOM     10  H   UNL     1       2.210   7.905  18.338  0.00  0.00    +0.000 HD
BRANCH   7  20
ATOM     11  C   UNL     1       1.278   3.431  18.626  0.00  0.00    +0.000 C 
ATOM     12  C   UNL     1       2.338   4.080  18.136  0.00  0.00    +0.000 C 
ATOM     13  N   UNL     1       3.138   3.513  17.173  0.00  0.00    +0.000 NA
ATOM     14  C   UNL     1       4.034   4.413  16.936  0.00  0.00    +0.000 A 
ATOM     15  C   UNL     1       5.157   4.293  15.987  0.00  0.00    +0.000 A 
ATOM     16  C   UNL     1       6.007   5.322  15.868  0.00  0.00    +0.000 A 
ATOM     17  C   UNL     1       5.876   6.543  16.646  0.00  0.00    +0.000 A 
ATOM     18  C   UNL     1       4.888   6.716  17.543  0.00  0.00    +0.000 A 
ATOM     19  C   UNL     1       3.917   5.671  17.709  0.00  0.00    +0.000 A 
ATOM     20  C   UNL     1       2.840   5.416  18.462  0.00  0.00    +0.000 C 
ENDBRANCH   7  20
ENDBRANCH   1   9
BRANCH   5  21
ATOM     21  C   UNL     1      -1.102  11.391  19.767  0.00  0.00    +0.000 C 
ATOM     22  C   UNL     1      -0.485  12.797  19.800  0.00  0.00    +0.000 C 
BRANCH  21  23
ATOM     23  S   UNL     1      -1.503  11.002  18.025  0.00  0.00    +0.000 S 
BRANCH  23  24
ATOM     24  C   UNL     1      -3.171  11.431  17.935  0.00  0.00    +0.000 A 
ATOM     25  N   UNL     1      -3.931  11.894  18.896  0.00  0.00    +0.000 NA
ATOM     26  N   UNL     1      -5.180  12.134  18.362  0.00  0.00    +0.000 NA
ATOM     27  C   UNL     1      -5.138  11.811  17.089  0.00  0.00    +0.000 A 
ATOM     28  N   UNL     1      -3.889  11.363  16.774  0.00  0.00    +0.000 N 
ATOM     29  C   UNL     1      -3.455  10.901  15.485  0.00  0.00    +0.000 C 
ENDBRANCH  23  24
ENDBRANCH  21  23
ENDBRANCH   5  21
TORSDOF 5
ENDMDL
MODEL 8
REMARK VINA RESULT:      -8.1      2.753      4.481
REMARK  Name = 
REMARK  7 active torsions:
REMARK  status: ('A' for Active; 'I' for Inactive)
REMARK    1  A    between atoms: C_10  and  C_11
REMARK    2  A    between atoms: N_13  and  C_14
REMARK    3  A    between atoms: C_18  and  C_19
REMARK    4  A    between atoms: C_19  and  C_20
REMARK    5  A    between atoms: C_19  and  S_21
REMARK    6  A    between atoms: S_21  and  C_22
REMARK    7  A    between atoms: N_26  and  C_27
REMARK                            x       y       z     vdW  Elec       q    Type
REMARK                         _______ _______ _______ _____ _____    ______ ____
ROOT
ATOM      1  C   UNL     1       1.331   8.976  19.630  0.00  0.00    +0.000 A 
ATOM      2  C   UNL     1       1.633   9.348  18.317  0.00  0.00    +0.000 A 
ATOM      3  C   UNL     1       2.417   8.536  17.499  0.00  0.00    +0.000 A 
ATOM      4  C   UNL     1       2.919   7.337  17.985  0.00  0.00    +0.000 A 
ATOM      5  C   UNL     1       2.679   6.951  19.314  0.00  0.00    +0.000 A 
ATOM      6  C   UNL     1       1.903   7.797  20.135  0.00  0.00    +0.000 A 
ENDROOT
BRANCH   1   9
ATOM      7  C   UNL     1       0.674  10.959  20.992  0.00  0.00    +0.000 C 
ATOM      8  O   UNL     1       1.715  11.593  20.843  0.00  0.00    +0.000 OA
ATOM      9  N   UNL     1       0.431   9.703  20.458  0.00  0.00    +0.000 N 
ATOM     10  H   UNL     1      -0.506   9.331  20.526  0.00  0.00    +0.000 HD
BRANCH   7  20
ATOM     11  C   UNL     1      -0.790   9.804  23.498  0.00  0.00    +0.000 C 
ATOM     12  C   UNL     1      -1.108  10.943  22.876  0.00  0.00    +0.000 C 
ATOM     13  N   UNL     1      -2.180  11.702  23.281  0.00  0.00    +0.000 NA
ATOM     14  C   UNL     1      -2.175  12.713  22.477  0.00  0.00    +0.000 A 
ATOM     15  C   UNL     1      -3.144  13.825  22.472  0.00  0.00    +0.000 A 
ATOM     16  C   UNL     1      -3.001  14.795  21.559  0.00  0.00    +0.000 A 
ATOM     17  C   UNL     1      -1.939  14.788  20.565  0.00  0.00    +0.000 A 
ATOM     18  C   UNL     1      -1.030  13.798  20.499  0.00  0.00    +0.000 A 
ATOM     19  C   UNL     1      -1.096  12.734  21.462  0.00  0.00    +0.000 A 
ATOM     20  C   UNL     1      -0.452  11.595  21.741  0.00  0.00    +0.000 C 
ENDBRANCH   7  20
ENDBRANCH   1   9
BRANCH   5  21
ATOM     21  C   UNL     1       3.163   5.606  19.835  0.00  0.00    +0.000 C 
ATOM     22  C   UNL     1       2.021   4.893  20.574  0.00  0.00    +0.000 C 
BRANCH  21  23
ATOM     23  S   UNL     1       3.751   4.487  18.513  0.00  0.00    +0.000 S 
BRANCH  23  24
ATOM     24  C   UNL     1       5.456   4.740  18.558  0.00  0.00    +0.000 A 
ATOM     25  N   UNL     1       6.182   5.113  19.583  0.00  0.00    +0.000 NA
ATOM     26  N   UNL     1       7.499   5.148  19.171  0.00  0.00    +0.000 NA
ATOM     27  C   UNL     1       7.530   4.792  17.907  0.00  0.00    +0.000 A 
ATOM     28  N   UNL     1       6.264   4.524  17.478  0.00  0.00    +0.000 N 
ATOM     29  C   UNL     1       5.886   4.121  16.151  0.00  0.00    +0.000 C 
ENDBRANCH  23  24
ENDBRANCH  21  23
ENDBRANCH   5  21
TORSDOF 5
ENDMDL
MODEL 9
REMARK VINA RESULT:      -8.1      3.648     10.108
REMARK  Name = 
REMARK  7 active torsions:
REMARK  status: ('A' for Active; 'I' for Inactive)
REMARK    1  A    between atoms: C_10  and  C_11
REMARK    2  A    between atoms: N_13  and  C_14
REMARK    3  A    between atoms: C_18  and  C_19
REMARK    4  A    between atoms: C_19  and  C_20
REMARK    5  A    between atoms: C_19  and  S_21
REMARK    6  A    between atoms: S_21  and  C_22
REMARK    7  A    between atoms: N_26  and  C_27
REMARK                            x       y       z     vdW  Elec       q    Type
REMARK                         _______ _______ _______ _____ _____    ______ ____
ROOT
ATOM      1  C   UNL     1       1.380   9.115  19.367  0.00  0.00    +0.000 A 
ATOM      2  C   UNL     1       1.612  10.276  18.625  0.00  0.00    +0.000 A 
ATOM      3  C   UNL     1       1.070  11.501  19.011  0.00  0.00    +0.000 A 
ATOM      4  C   UNL     1       0.277  11.583  20.147  0.00  0.00    +0.000 A 
ATOM      5  C   UNL     1      -0.021  10.430  20.892  0.00  0.00    +0.000 A 
ATOM      6  C   UNL     1       0.518   9.195  20.473  0.00  0.00    +0.000 A 
ENDROOT
BRANCH   1   9
ATOM      7  C   UNL     1       2.700   7.568  17.924  0.00  0.00    +0.000 C 
ATOM      8  O   UNL     1       2.819   8.326  16.964  0.00  0.00    +0.000 OA
ATOM      9  N   UNL     1       2.015   7.873  19.090  0.00  0.00    +0.000 N 
ATOM     10  H   UNL     1       2.094   7.233  19.868  0.00  0.00    +0.000 HD
BRANCH   7  20
ATOM     11  C   UNL     1       5.741   7.067  17.418  0.00  0.00    +0.000 C 
ATOM     12  C   UNL     1       4.819   6.114  17.582  0.00  0.00    +0.000 C 
ATOM     13  N   UNL     1       5.147   4.782  17.490  0.00  0.00    +0.000 NA
ATOM     14  C   UNL     1       4.033   4.166  17.713  0.00  0.00    +0.000 A 
ATOM     15  C   UNL     1       3.832   2.705  17.707  0.00  0.00    +0.000 A 
ATOM     16  C   UNL     1       2.604   2.227  17.949  0.00  0.00    +0.000 A 
ATOM     17  C   UNL     1       1.461   3.090  18.202  0.00  0.00    +0.000 A 
ATOM     18  C   UNL     1       1.567   4.431  18.206  0.00  0.00    +0.000 A 
ATOM     19  C   UNL     1       2.856   5.023  17.984  0.00  0.00    +0.000 A 
ATOM     20  C   UNL     1       3.392   6.244  17.882  0.00  0.00    +0.000 C 
ENDBRANCH   7  20
ENDBRANCH   1   9
BRANCH   5  21
ATOM     21  C   UNL     1      -0.828  10.521  22.179  0.00  0.00    +0.000 C 
ATOM     22  C   UNL     1      -0.128   9.724  23.290  0.00  0.00    +0.000 C 
BRANCH  21  23
ATOM     23  S   UNL     1      -1.045  12.235  22.778  0.00  0.00    +0.000 S 
BRANCH  23  24
ATOM     24  C   UNL     1      -2.762  12.373  22.860  0.00  0.00    +0.000 A 
ATOM     25  N   UNL     1      -3.547  12.011  23.844  0.00  0.00    +0.000 NA
ATOM     26  N   UNL     1      -4.839  12.347  23.492  0.00  0.00    +0.000 NA
ATOM     27  C   UNL     1      -4.795  12.905  22.304  0.00  0.00    +0.000 A 
ATOM     28  N   UNL     1      -3.505  12.945  21.866  0.00  0.00    +0.000 N 
ATOM     29  C   UNL     1      -3.054  13.466  20.605  0.00  0.00    +0.000 C 
ENDBRANCH  23  24
ENDBRANCH  21  23
ENDBRANCH   5  21
TORSDOF 5
ENDMDL
