MODEL 1
REMARK VINA RESULT:      -9.1      0.000      0.000
REMARK  Name = 
REMARK  5 active torsions:
REMARK  status: ('A' for Active; 'I' for Inactive)
REMARK    1  A    between atoms: C_2  and  C_3
REMARK    2  A    between atoms: C_3  and  N_4
REMARK    3  A    between atoms: N_7  and  C_8
REMARK    4  A    between atoms: N_11  and  C_12
REMARK    5  A    between atoms: C_16  and  C_17
REMARK                            x       y       z     vdW  Elec       q    Type
REMARK                         _______ _______ _______ _____ _____    ______ ____
ROOT
ATOM      1  C   UNL     1       3.830   4.775  19.182  0.00  0.00    +0.000 A 
ATOM      2  C   UNL     1       3.265   3.709  19.886  0.00  0.00    +0.000 A 
ATOM      3  C   UNL     1       2.131   3.894  20.679  0.00  0.00    +0.000 A 
ATOM      4  C   UNL     1       1.566   5.161  20.812  0.00  0.00    +0.000 A 
ATOM      5  C   UNL     1       2.144   6.270  20.183  0.00  0.00    +0.000 A 
ATOM      6  C   UNL     1       3.276   6.056  19.359  0.00  0.00    +0.000 A 
ENDROOT
BRANCH   5   7
ATOM      7  C   UNL     1       1.558   7.607  20.413  0.00  0.00    +0.000 A 
ATOM      8  N   UNL     1       1.598   8.647  19.590  0.00  0.00    +0.000 NA
ATOM      9  C   UNL     1       0.930   9.675  20.224  0.00  0.00    +0.000 A 
ATOM     10  C   UNL     1       0.667  10.995  19.815  0.00  0.00    +0.000 A 
ATOM     11  C   UNL     1      -0.016  11.851  20.696  0.00  0.00    +0.000 A 
ATOM     12  C   UNL     1      -0.434  11.404  21.951  0.00  0.00    +0.000 A 
ATOM     13  C   UNL     1      -0.205  10.092  22.364  0.00  0.00    +0.000 A 
ATOM     14  C   UNL     1       0.479   9.263  21.470  0.00  0.00    +0.000 A 
ATOM     15  N   UNL     1       0.857   7.950  21.547  0.00  0.00    +0.000 N 
ATOM     16  H   UNL     1       0.660   7.337  22.318  0.00  0.00    +0.000 HD
ENDBRANCH   5   7
BRANCH   1  19
ATOM     17  O   UNL     1       6.683   5.294  19.734  0.00  0.00    +0.000 OA
ATOM     18  C   UNL     1       6.262   4.970  18.625  0.00  0.00    +0.000 C 
ATOM     19  N   UNL     1       4.951   4.615  18.323  0.00  0.00    +0.000 N 
ATOM     20  H   UNL     1       4.823   4.065  17.476  0.00  0.00    +0.000 HD
BRANCH  18  21
ATOM     21  C   UNL     1       7.246   4.848  17.455  0.00  0.00    +0.000 C 
BRANCH  21  22
ATOM     22  N   UNL     1       6.776   3.954  16.410  0.00  0.00    +0.000 N 
ATOM     23  C   UNL     1       6.641   4.432  15.136  0.00  0.00    +0.000 C 
ATOM     24  O   UNL     1       6.853   5.604  14.851  0.00  0.00    +0.000 OA
ATOM     25  N   UNL     1       6.285   3.460  14.233  0.00  0.00    +0.000 N 
ATOM     26  H   UNL     1       6.162   3.199  16.687  0.00  0.00    +0.000 HD
ATOM     27  H   UNL     1       6.423   2.499  14.517  0.00  0.00    +0.000 HD
BRANCH  25  28
ATOM     28  C   UNL     1       6.273   3.744  12.827  0.00  0.00    +0.000 C 
ATOM     29  C   UNL     1       5.072   3.364  12.007  0.00  0.00    +0.000 C 
ATOM     30  C   UNL     1       6.381   2.665  11.785  0.00  0.00    +0.000 C 
ENDBRANCH  25  28
ENDBRANCH  21  22
ENDBRANCH  18  21
ENDBRANCH   1  19
TORSDOF 5
ENDMDL
MODEL 2
REMARK VINA RESULT:      -9.0      0.287      1.168
REMARK  Name = 
REMARK  5 active torsions:
REMARK  status: ('A' for Active; 'I' for Inactive)
REMARK    1  A    between atoms: C_2  and  C_3
REMARK    2  A    between atoms: C_3  and  N_4
REMARK    3  A    between atoms: N_7  and  C_8
REMARK    4  A    between atoms: N_11  and  C_12
REMARK    5  A    between atoms: C_16  and  C_17
REMARK                            x       y       z     vdW  Elec       q    Type
REMARK                         _______ _______ _______ _____ _____    ______ ____
ROOT
ATOM      1  C   UNL     1       3.909   4.779  19.145  0.00  0.00    +0.000 A 
ATOM      2  C   UNL     1       3.356   3.729  19.882  0.00  0.00    +0.000 A 
ATOM      3  C   UNL     1       2.229   3.929  20.681  0.00  0.00    +0.000 A 
ATOM      4  C   UNL     1       1.660   5.197  20.788  0.00  0.00    +0.000 A 
ATOM      5  C   UNL     1       2.226   6.292  20.124  0.00  0.00    +0.000 A 
ATOM      6  C   UNL     1       3.350   6.062  19.294  0.00  0.00    +0.000 A 
ENDROOT
BRANCH   5   7
ATOM      7  C   UNL     1       1.636   7.631  20.325  0.00  0.00    +0.000 A 
ATOM      8  N   UNL     1       1.061   8.092  21.428  0.00  0.00    +0.000 NA
ATOM      9  C   UNL     1       0.652   9.381  21.149  0.00  0.00    +0.000 A 
ATOM     10  C   UNL     1      -0.005  10.334  21.949  0.00  0.00    +0.000 A 
ATOM     11  C   UNL     1      -0.337  11.576  21.382  0.00  0.00    +0.000 A 
ATOM     12  C   UNL     1      -0.018  11.867  20.054  0.00  0.00    +0.000 A 
ATOM     13  C   UNL     1       0.655  10.946  19.254  0.00  0.00    +0.000 A 
ATOM     14  C   UNL     1       0.971   9.717  19.841  0.00  0.00    +0.000 A 
ATOM     15  N   UNL     1       1.618   8.612  19.359  0.00  0.00    +0.000 N 
ATOM     16  H   UNL     1       2.012   8.530  18.438  0.00  0.00    +0.000 HD
ENDBRANCH   5   7
BRANCH   1  19
ATOM     17  O   UNL     1       6.762   5.339  19.649  0.00  0.00    +0.000 OA
ATOM     18  C   UNL     1       6.333   4.977  18.555  0.00  0.00    +0.000 C 
ATOM     19  N   UNL     1       5.022   4.602  18.279  0.00  0.00    +0.000 N 
ATOM     20  H   UNL     1       4.890   4.024  17.451  0.00  0.00    +0.000 HD
BRANCH  18  21
ATOM     21  C   UNL     1       7.305   4.826  17.378  0.00  0.00    +0.000 C 
BRANCH  21  22
ATOM     22  N   UNL     1       6.819   3.918  16.354  0.00  0.00    +0.000 N 
ATOM     23  C   UNL     1       6.655   4.380  15.078  0.00  0.00    +0.000 C 
ATOM     24  O   UNL     1       6.854   5.550  14.774  0.00  0.00    +0.000 OA
ATOM     25  N   UNL     1       6.286   3.395  14.193  0.00  0.00    +0.000 N 
ATOM     26  H   UNL     1       6.216   3.162  16.652  0.00  0.00    +0.000 HD
ATOM     27  H   UNL     1       6.436   2.439  14.486  0.00  0.00    +0.000 HD
BRANCH  25  28
ATOM     28  C   UNL     1       6.243   3.662  12.785  0.00  0.00    +0.000 C 
ATOM     29  C   UNL     1       4.932   3.569  12.055  0.00  0.00    +0.000 C 
ATOM     30  C   UNL     1       6.024   2.580  11.765  0.00  0.00    +0.000 C 
ENDBRANCH  25  28
ENDBRANCH  21  22
ENDBRANCH  18  21
ENDBRANCH   1  19
TORSDOF 5
ENDMDL
MODEL 3
REMARK VINA RESULT:      -8.2      0.985      1.561
REMARK  Name = 
REMARK  5 active torsions:
REMARK  status: ('A' for Active; 'I' for Inactive)
REMARK    1  A    between atoms: C_2  and  C_3
REMARK    2  A    between atoms: C_3  and  N_4
REMARK    3  A    between atoms: N_7  and  C_8
REMARK    4  A    between atoms: N_11  and  C_12
REMARK    5  A    between atoms: C_16  and  C_17
REMARK                            x       y       z     vdW  Elec       q    Type
REMARK                         _______ _______ _______ _____ _____    ______ ____
ROOT
ATOM      1  C   UNL     1       3.867   5.669  18.996  0.00  0.00    +0.000 A 
ATOM      2  C   UNL     1       3.391   4.419  19.398  0.00  0.00    +0.000 A 
ATOM      3  C   UNL     1       2.225   4.306  20.157  0.00  0.00    +0.000 A 
ATOM      4  C   UNL     1       1.537   5.449  20.562  0.00  0.00    +0.000 A 
ATOM      5  C   UNL     1       2.021   6.724  20.243  0.00  0.00    +0.000 A 
ATOM      6  C   UNL     1       3.187   6.816  19.446  0.00  0.00    +0.000 A 
ENDROOT
BRANCH   5   7
ATOM      7  C   UNL     1       1.302   7.908  20.756  0.00  0.00    +0.000 A 
ATOM      8  N   UNL     1       0.786   8.065  21.968  0.00  0.00    +0.000 NA
ATOM      9  C   UNL     1       0.207   9.317  21.990  0.00  0.00    +0.000 A 
ATOM     10  C   UNL     1      -0.475  10.001  23.013  0.00  0.00    +0.000 A 
ATOM     11  C   UNL     1      -1.001  11.275  22.739  0.00  0.00    +0.000 A 
ATOM     12  C   UNL     1      -0.846  11.860  21.480  0.00  0.00    +0.000 A 
ATOM     13  C   UNL     1      -0.151  11.209  20.462  0.00  0.00    +0.000 A 
ATOM     14  C   UNL     1       0.359   9.942  20.760  0.00  0.00    +0.000 A 
ATOM     15  N   UNL     1       1.080   9.048  20.016  0.00  0.00    +0.000 N 
ATOM     16  H   UNL     1       1.390   9.200  19.073  0.00  0.00    +0.000 HD
ENDBRANCH   5   7
BRANCH   1  19
ATOM     17  O   UNL     1       6.716   5.476  19.744  0.00  0.00    +0.000 OA
ATOM     18  C   UNL     1       6.338   5.807  18.622  0.00  0.00    +0.000 C 
ATOM     19  N   UNL     1       5.020   5.820  18.178  0.00  0.00    +0.000 N 
ATOM     20  H   UNL     1       4.891   5.789  17.168  0.00  0.00    +0.000 HD
BRANCH  18  21
ATOM     21  C   UNL     1       7.379   6.164  17.554  0.00  0.00    +0.000 C 
BRANCH  21  22
ATOM     22  N   UNL     1       6.858   6.072  16.202  0.00  0.00    +0.000 N 
ATOM     23  C   UNL     1       7.017   4.907  15.504  0.00  0.00    +0.000 C 
ATOM     24  O   UNL     1       7.631   3.950  15.961  0.00  0.00    +0.000 OA
ATOM     25  N   UNL     1       6.393   4.923  14.280  0.00  0.00    +0.000 N 
ATOM     26  H   UNL     1       6.808   6.928  15.664  0.00  0.00    +0.000 HD
ATOM     27  H   UNL     1       5.687   5.632  14.137  0.00  0.00    +0.000 HD
BRANCH  25  28
ATOM     28  C   UNL     1       6.306   3.727  13.494  0.00  0.00    +0.000 C 
ATOM     29  C   UNL     1       6.833   3.728  12.086  0.00  0.00    +0.000 C 
ATOM     30  C   UNL     1       5.359   3.591  12.334  0.00  0.00    +0.000 C 
ENDBRANCH  25  28
ENDBRANCH  21  22
ENDBRANCH  18  21
ENDBRANCH   1  19
TORSDOF 5
ENDMDL
MODEL 4
REMARK VINA RESULT:      -7.9      4.225      8.739
REMARK  Name = 
REMARK  5 active torsions:
REMARK  status: ('A' for Active; 'I' for Inactive)
REMARK    1  A    between atoms: C_2  and  C_3
REMARK    2  A    between atoms: C_3  and  N_4
REMARK    3  A    between atoms: N_7  and  C_8
REMARK    4  A    between atoms: N_11  and  C_12
REMARK    5  A    between atoms: C_16  and  C_17
REMARK                            x       y       z     vdW  Elec       q    Type
REMARK                         _______ _______ _______ _____ _____    ______ ____
ROOT
ATOM      1  C   UNL     1       0.769   9.545  19.544  0.00  0.00    +0.000 A 
ATOM      2  C   UNL     1       0.517   9.039  20.821  0.00  0.00    +0.000 A 
ATOM      3  C   UNL     1       1.167   7.891  21.278  0.00  0.00    +0.000 A 
ATOM      4  C   UNL     1       2.052   7.206  20.447  0.00  0.00    +0.000 A 
ATOM      5  C   UNL     1       2.276   7.637  19.133  0.00  0.00    +0.000 A 
ATOM      6  C   UNL     1       1.632   8.821  18.700  0.00  0.00    +0.000 A 
ENDROOT
BRANCH   5   7
ATOM      7  C   UNL     1       3.164   6.840  18.262  0.00  0.00    +0.000 A 
ATOM      8  N   UNL     1       3.995   7.299  17.336  0.00  0.00    +0.000 NA
ATOM      9  C   UNL     1       4.605   6.196  16.773  0.00  0.00    +0.000 A 
ATOM     10  C   UNL     1       5.570   6.095  15.755  0.00  0.00    +0.000 A 
ATOM     11  C   UNL     1       5.992   4.817  15.351  0.00  0.00    +0.000 A 
ATOM     12  C   UNL     1       5.473   3.666  15.949  0.00  0.00    +0.000 A 
ATOM     13  C   UNL     1       4.536   3.748  16.978  0.00  0.00    +0.000 A 
ATOM     14  C   UNL     1       4.131   5.030  17.359  0.00  0.00    +0.000 A 
ATOM     15  N   UNL     1       3.252   5.467  18.313  0.00  0.00    +0.000 N 
ATOM     16  H   UNL     1       2.746   4.873  18.946  0.00  0.00    +0.000 HD
ENDBRANCH   5   7
BRANCH   1  19
ATOM     17  O   UNL     1       0.774  12.241  20.745  0.00  0.00    +0.000 OA
ATOM     18  C   UNL     1       0.133  11.958  19.734  0.00  0.00    +0.000 C 
ATOM     19  N   UNL     1       0.167  10.740  19.063  0.00  0.00    +0.000 N 
ATOM     20  H   UNL     1      -0.137  10.759  18.092  0.00  0.00    +0.000 HD
BRANCH  18  21
ATOM     21  C   UNL     1      -0.728  13.035  19.065  0.00  0.00    +0.000 C 
BRANCH  21  22
ATOM     22  N   UNL     1      -1.057  12.722  17.685  0.00  0.00    +0.000 N 
ATOM     23  C   UNL     1      -2.038  11.805  17.425  0.00  0.00    +0.000 C 
ATOM     24  O   UNL     1      -2.617  11.196  18.317  0.00  0.00    +0.000 OA
ATOM     25  N   UNL     1      -2.314  11.678  16.086  0.00  0.00    +0.000 N 
ATOM     26  H   UNL     1      -0.319  12.814  17.000  0.00  0.00    +0.000 HD
ATOM     27  H   UNL     1      -1.993  12.423  15.481  0.00  0.00    +0.000 HD
BRANCH  25  28
ATOM     28  C   UNL     1      -3.432  10.897  15.645  0.00  0.00    +0.000 C 
ATOM     29  C   UNL     1      -3.294   9.403  15.542  0.00  0.00    +0.000 C 
ATOM     30  C   UNL     1      -3.469  10.227  14.299  0.00  0.00    +0.000 C 
ENDBRANCH  25  28
ENDBRANCH  21  22
ENDBRANCH  18  21
ENDBRANCH   1  19
TORSDOF 5
ENDMDL
MODEL 5
REMARK VINA RESULT:      -7.9      4.586      7.835
REMARK  Name = 
REMARK  5 active torsions:
REMARK  status: ('A' for Active; 'I' for Inactive)
REMARK    1  A    between atoms: C_2  and  C_3
REMARK    2  A    between atoms: C_3  and  N_4
REMARK    3  A    between atoms: N_7  and  C_8
REMARK    4  A    between atoms: N_11  and  C_12
REMARK    5  A    between atoms: C_16  and  C_17
REMARK                            x       y       z     vdW  Elec       q    Type
REMARK                         _______ _______ _______ _____ _____    ______ ____
ROOT
ATOM      1  C   UNL     1       6.860   6.221  16.512  0.00  0.00    +0.000 A 
ATOM      2  C   UNL     1       7.223   5.415  15.430  0.00  0.00    +0.000 A 
ATOM      3  C   UNL     1       6.518   4.246  15.139  0.00  0.00    +0.000 A 
ATOM      4  C   UNL     1       5.459   3.843  15.951  0.00  0.00    +0.000 A 
ATOM      5  C   UNL     1       5.110   4.583  17.087  0.00  0.00    +0.000 A 
ATOM      6  C   UNL     1       5.817   5.781  17.348  0.00  0.00    +0.000 A 
ENDROOT
BRANCH   5   7
ATOM      7  C   UNL     1       4.031   4.079  17.962  0.00  0.00    +0.000 A 
ATOM      8  N   UNL     1       2.847   3.617  17.583  0.00  0.00    +0.000 NA
ATOM      9  C   UNL     1       2.172   3.272  18.736  0.00  0.00    +0.000 A 
ATOM     10  C   UNL     1       0.888   2.730  18.927  0.00  0.00    +0.000 A 
ATOM     11  C   UNL     1       0.437   2.509  20.239  0.00  0.00    +0.000 A 
ATOM     12  C   UNL     1       1.246   2.811  21.337  0.00  0.00    +0.000 A 
ATOM     13  C   UNL     1       2.531   3.324  21.167  0.00  0.00    +0.000 A 
ATOM     14  C   UNL     1       2.954   3.537  19.852  0.00  0.00    +0.000 A 
ATOM     15  N   UNL     1       4.128   4.012  19.334  0.00  0.00    +0.000 N 
ATOM     16  H   UNL     1       4.932   4.277  19.875  0.00  0.00    +0.000 HD
ENDBRANCH   5   7
BRANCH   1  19
ATOM     17  O   UNL     1       8.337   6.994  18.947  0.00  0.00    +0.000 OA
ATOM     18  C   UNL     1       8.118   7.771  18.020  0.00  0.00    +0.000 C 
ATOM     19  N   UNL     1       7.520   7.444  16.808  0.00  0.00    +0.000 N 
ATOM     20  H   UNL     1       7.705   8.081  16.035  0.00  0.00    +0.000 HD
BRANCH  18  21
ATOM     21  C   UNL     1       8.607   9.221  18.125  0.00  0.00    +0.000 C 
BRANCH  21  22
ATOM     22  N   UNL     1       8.991   9.593  19.475  0.00  0.00    +0.000 N 
ATOM     23  C   UNL     1       9.220  10.910  19.764  0.00  0.00    +0.000 C 
ATOM     24  O   UNL     1       9.162  11.787  18.909  0.00  0.00    +0.000 OA
ATOM     25  N   UNL     1       9.478  11.132  21.095  0.00  0.00    +0.000 N 
ATOM     26  H   UNL     1       9.498   8.907  20.019  0.00  0.00    +0.000 HD
ATOM     27  H   UNL     1       9.213  10.399  21.739  0.00  0.00    +0.000 HD
BRANCH  25  28
ATOM     28  C   UNL     1       9.563  12.469  21.605  0.00  0.00    +0.000 C 
ATOM     29  C   UNL     1       9.064  12.763  22.992  0.00  0.00    +0.000 C 
ATOM     30  C   UNL     1       8.352  13.337  21.802  0.00  0.00    +0.000 C 
ENDBRANCH  25  28
ENDBRANCH  21  22
ENDBRANCH  18  21
ENDBRANCH   1  19
TORSDOF 5
ENDMDL
MODEL 6
REMARK VINA RESULT:      -7.8      1.050      1.212
REMARK  Name = 
REMARK  5 active torsions:
REMARK  status: ('A' for Active; 'I' for Inactive)
REMARK    1  A    between atoms: C_2  and  C_3
REMARK    2  A    between atoms: C_3  and  N_4
REMARK    3  A    between atoms: N_7  and  C_8
REMARK    4  A    between atoms: N_11  and  C_12
REMARK    5  A    between atoms: C_16  and  C_17
REMARK                            x       y       z     vdW  Elec       q    Type
REMARK                         _______ _______ _______ _____ _____    ______ ____
ROOT
ATOM      1  C   UNL     1       3.689   5.978  19.029  0.00  0.00    +0.000 A 
ATOM      2  C   UNL     1       3.315   4.752  19.584  0.00  0.00    +0.000 A 
ATOM      3  C   UNL     1       2.213   4.657  20.436  0.00  0.00    +0.000 A 
ATOM      4  C   UNL     1       1.490   5.798  20.779  0.00  0.00    +0.000 A 
ATOM      5  C   UNL     1       1.876   7.058  20.304  0.00  0.00    +0.000 A 
ATOM      6  C   UNL     1       2.977   7.128  19.416  0.00  0.00    +0.000 A 
ENDROOT
BRANCH   5   7
ATOM      7  C   UNL     1       1.127   8.250  20.753  0.00  0.00    +0.000 A 
ATOM      8  N   UNL     1       0.922   9.367  20.068  0.00  0.00    +0.000 NA
ATOM      9  C   UNL     1       0.184  10.199  20.885  0.00  0.00    +0.000 A 
ATOM     10  C   UNL     1      -0.315  11.497  20.671  0.00  0.00    +0.000 A 
ATOM     11  C   UNL     1      -1.015  12.130  21.711  0.00  0.00    +0.000 A 
ATOM     12  C   UNL     1      -1.222  11.487  22.934  0.00  0.00    +0.000 A 
ATOM     13  C   UNL     1      -0.758  10.191  23.155  0.00  0.00    +0.000 A 
ATOM     14  C   UNL     1      -0.062   9.585  22.105  0.00  0.00    +0.000 A 
ATOM     15  N   UNL     1       0.513   8.349  21.981  0.00  0.00    +0.000 N 
ATOM     16  H   UNL     1       0.494   7.631  22.683  0.00  0.00    +0.000 HD
ENDBRANCH   5   7
BRANCH   1  19
ATOM     17  O   UNL     1       6.531   5.276  19.407  0.00  0.00    +0.000 OA
ATOM     18  C   UNL     1       6.107   5.839  18.398  0.00  0.00    +0.000 C 
ATOM     19  N   UNL     1       4.771   6.105  18.117  0.00  0.00    +0.000 N 
ATOM     20  H   UNL     1       4.547   6.261  17.136  0.00  0.00    +0.000 HD
BRANCH  18  21
ATOM     21  C   UNL     1       7.088   6.223  17.285  0.00  0.00    +0.000 C 
BRANCH  21  22
ATOM     22  N   UNL     1       6.522   6.077  15.955  0.00  0.00    +0.000 N 
ATOM     23  C   UNL     1       6.623   4.872  15.317  0.00  0.00    +0.000 C 
ATOM     24  O   UNL     1       7.222   3.921  15.806  0.00  0.00    +0.000 OA
ATOM     25  N   UNL     1       5.961   4.843  14.113  0.00  0.00    +0.000 N 
ATOM     26  H   UNL     1       6.481   6.904  15.374  0.00  0.00    +0.000 HD
ATOM     27  H   UNL     1       5.273   5.567  13.954  0.00  0.00    +0.000 HD
BRANCH  25  28
ATOM     28  C   UNL     1       5.812   3.611  13.395  0.00  0.00    +0.000 C 
ATOM     29  C   UNL     1       6.553   3.417  12.101  0.00  0.00    +0.000 C 
ATOM     30  C   UNL     1       5.055   3.519  12.099  0.00  0.00    +0.000 C 
ENDBRANCH  25  28
ENDBRANCH  21  22
ENDBRANCH  18  21
ENDBRANCH   1  19
TORSDOF 5
ENDMDL
MODEL 7
REMARK VINA RESULT:      -7.8      1.080      1.156
REMARK  Name = 
REMARK  5 active torsions:
REMARK  status: ('A' for Active; 'I' for Inactive)
REMARK    1  A    between atoms: C_2  and  C_3
REMARK    2  A    between atoms: C_3  and  N_4
REMARK    3  A    between atoms: N_7  and  C_8
REMARK    4  A    between atoms: N_11  and  C_12
REMARK    5  A    between atoms: C_16  and  C_17
REMARK                            x       y       z     vdW  Elec       q    Type
REMARK                         _______ _______ _______ _____ _____    ______ ____
ROOT
ATOM      1  C   UNL     1       4.219   5.030  19.121  0.00  0.00    +0.000 A 
ATOM      2  C   UNL     1       3.599   3.838  19.502  0.00  0.00    +0.000 A 
ATOM      3  C   UNL     1       2.341   3.847  20.109  0.00  0.00    +0.000 A 
ATOM      4  C   UNL     1       1.701   5.055  20.381  0.00  0.00    +0.000 A 
ATOM      5  C   UNL     1       2.321   6.275  20.082  0.00  0.00    +0.000 A 
ATOM      6  C   UNL     1       3.582   6.243  19.439  0.00  0.00    +0.000 A 
ENDROOT
BRANCH   5   7
ATOM      7  C   UNL     1       1.640   7.532  20.456  0.00  0.00    +0.000 A 
ATOM      8  N   UNL     1       1.478   8.607  19.697  0.00  0.00    +0.000 NA
ATOM      9  C   UNL     1       0.797   9.531  20.464  0.00  0.00    +0.000 A 
ATOM     10  C   UNL     1       0.359  10.834  20.166  0.00  0.00    +0.000 A 
ATOM     11  C   UNL     1      -0.291  11.573  21.169  0.00  0.00    +0.000 A 
ATOM     12  C   UNL     1      -0.507  11.028  22.436  0.00  0.00    +0.000 A 
ATOM     13  C   UNL     1      -0.104   9.729  22.742  0.00  0.00    +0.000 A 
ATOM     14  C   UNL     1       0.543   9.017  21.728  0.00  0.00    +0.000 A 
ATOM     15  N   UNL     1       1.053   7.748  21.683  0.00  0.00    +0.000 N 
ATOM     16  H   UNL     1       1.012   7.082  22.435  0.00  0.00    +0.000 HD
ENDBRANCH   5   7
BRANCH   1  19
ATOM     17  O   UNL     1       5.253   7.008  17.190  0.00  0.00    +0.000 OA
ATOM     18  C   UNL     1       5.856   5.977  17.482  0.00  0.00    +0.000 C 
ATOM     19  N   UNL     1       5.474   5.058  18.453  0.00  0.00    +0.000 N 
ATOM     20  H   UNL     1       6.213   4.454  18.809  0.00  0.00    +0.000 HD
BRANCH  18  21
ATOM     21  C   UNL     1       7.198   5.674  16.804  0.00  0.00    +0.000 C 
BRANCH  21  22
ATOM     22  N   UNL     1       7.069   5.429  15.378  0.00  0.00    +0.000 N 
ATOM     23  C   UNL     1       6.434   4.297  14.951  0.00  0.00    +0.000 C 
ATOM     24  O   UNL     1       6.012   3.450  15.730  0.00  0.00    +0.000 OA
ATOM     25  N   UNL     1       6.296   4.240  13.585  0.00  0.00    +0.000 N 
ATOM     26  H   UNL     1       7.787   5.810  14.775  0.00  0.00    +0.000 HD
ATOM     27  H   UNL     1       6.413   5.107  13.078  0.00  0.00    +0.000 HD
BRANCH  25  28
ATOM     28  C   UNL     1       5.500   3.214  12.977  0.00  0.00    +0.000 C 
ATOM     29  C   UNL     1       5.965   2.581  11.695  0.00  0.00    +0.000 C 
ATOM     30  C   UNL     1       4.731   3.437  11.704  0.00  0.00    +0.000 C 
ENDBRANCH  25  28
ENDBRANCH  21  22
ENDBRANCH  18  21
ENDBRANCH   1  19
TORSDOF 5
ENDMDL
MODEL 8
REMARK VINA RESULT:      -7.7      2.860      4.322
REMARK  Name = 
REMARK  5 active torsions:
REMARK  status: ('A' for Active; 'I' for Inactive)
REMARK    1  A    between atoms: C_2  and  C_3
REMARK    2  A    between atoms: C_3  and  N_4
REMARK    3  A    between atoms: N_7  and  C_8
REMARK    4  A    between atoms: N_11  and  C_12
REMARK    5  A    between atoms: C_16  and  C_17
REMARK                            x       y       z     vdW  Elec       q    Type
REMARK                         _______ _______ _______ _____ _____    ______ ____
ROOT
ATOM      1  C   UNL     1       3.744   5.704  18.631  0.00  0.00    +0.000 A 
ATOM      2  C   UNL     1       3.304   4.435  19.016  0.00  0.00    +0.000 A 
ATOM      3  C   UNL     1       2.190   4.284  19.844  0.00  0.00    +0.000 A 
ATOM      4  C   UNL     1       1.521   5.404  20.333  0.00  0.00    +0.000 A 
ATOM      5  C   UNL     1       1.973   6.695  20.031  0.00  0.00    +0.000 A 
ATOM      6  C   UNL     1       3.086   6.827  19.165  0.00  0.00    +0.000 A 
ENDROOT
BRANCH   5   7
ATOM      7  C   UNL     1       1.280   7.853  20.632  0.00  0.00    +0.000 A 
ATOM      8  N   UNL     1       0.800   7.943  21.865  0.00  0.00    +0.000 NA
ATOM      9  C   UNL     1       0.233   9.196  21.976  0.00  0.00    +0.000 A 
ATOM     10  C   UNL     1      -0.414   9.824  23.055  0.00  0.00    +0.000 A 
ATOM     11  C   UNL     1      -0.936  11.116  22.871  0.00  0.00    +0.000 A 
ATOM     12  C   UNL     1      -0.811  11.771  21.644  0.00  0.00    +0.000 A 
ATOM     13  C   UNL     1      -0.150  11.176  20.570  0.00  0.00    +0.000 A 
ATOM     14  C   UNL     1       0.357   9.890  20.780  0.00  0.00    +0.000 A 
ATOM     15  N   UNL     1       1.048   9.035  19.966  0.00  0.00    +0.000 N 
ATOM     16  H   UNL     1       1.333   9.239  19.024  0.00  0.00    +0.000 HD
ENDBRANCH   5   7
BRANCH   1  19
ATOM     17  O   UNL     1       6.564   4.901  18.966  0.00  0.00    +0.000 OA
ATOM     18  C   UNL     1       6.166   5.571  18.014  0.00  0.00    +0.000 C 
ATOM     19  N   UNL     1       4.841   5.896  17.747  0.00  0.00    +0.000 N 
ATOM     20  H   UNL     1       4.632   6.154  16.784  0.00  0.00    +0.000 HD
BRANCH  18  21
ATOM     21  C   UNL     1       7.169   6.042  16.955  0.00  0.00    +0.000 C 
BRANCH  21  22
ATOM     22  N   UNL     1       7.287   7.488  16.889  0.00  0.00    +0.000 N 
ATOM     23  C   UNL     1       7.990   8.145  17.861  0.00  0.00    +0.000 C 
ATOM     24  O   UNL     1       8.484   7.561  18.819  0.00  0.00    +0.000 OA
ATOM     25  N   UNL     1       8.105   9.493  17.624  0.00  0.00    +0.000 N 
ATOM     26  H   UNL     1       6.533   7.995  16.443  0.00  0.00    +0.000 HD
ATOM     27  H   UNL     1       7.920   9.808  16.681  0.00  0.00    +0.000 HD
BRANCH  25  28
ATOM     28  C   UNL     1       8.957  10.305  18.443  0.00  0.00    +0.000 C 
ATOM     29  C   UNL     1       8.985  11.793  18.231  0.00  0.00    +0.000 C 
ATOM     30  C   UNL     1      10.197  10.967  17.909  0.00  0.00    +0.000 C 
ENDBRANCH  25  28
ENDBRANCH  21  22
ENDBRANCH  18  21
ENDBRANCH   1  19
TORSDOF 5
ENDMDL
MODEL 9
REMARK VINA RESULT:      -7.7      0.979      1.638
REMARK  Name = 
REMARK  5 active torsions:
REMARK  status: ('A' for Active; 'I' for Inactive)
REMARK    1  A    between atoms: C_2  and  C_3
REMARK    2  A    between atoms: C_3  and  N_4
REMARK    3  A    between atoms: N_7  and  C_8
REMARK    4  A    between atoms: N_11  and  C_12
REMARK    5  A    between atoms: C_16  and  C_17
REMARK                            x       y       z     vdW  Elec       q    Type
REMARK                         _______ _______ _______ _____ _____    ______ ____
ROOT
ATOM      1  C   UNL     1       3.628   5.650  18.967  0.00  0.00    +0.000 A 
ATOM      2  C   UNL     1       3.127   4.750  19.910  0.00  0.00    +0.000 A 
ATOM      3  C   UNL     1       2.046   5.092  20.725  0.00  0.00    +0.000 A 
ATOM      4  C   UNL     1       1.474   6.360  20.637  0.00  0.00    +0.000 A 
ATOM      5  C   UNL     1       1.994   7.318  19.758  0.00  0.00    +0.000 A 
ATOM      6  C   UNL     1       3.069   6.941  18.918  0.00  0.00    +0.000 A 
ENDROOT
BRANCH   5   7
ATOM      7  C   UNL     1       1.406   8.674  19.751  0.00  0.00    +0.000 A 
ATOM      8  N   UNL     1       0.395   9.108  20.491  0.00  0.00    +0.000 NA
ATOM      9  C   UNL     1       0.188  10.427  20.140  0.00  0.00    +0.000 A 
ATOM     10  C   UNL     1      -0.744  11.371  20.607  0.00  0.00    +0.000 A 
ATOM     11  C   UNL     1      -0.750  12.654  20.035  0.00  0.00    +0.000 A 
ATOM     12  C   UNL     1       0.156  12.994  19.027  0.00  0.00    +0.000 A 
ATOM     13  C   UNL     1       1.105  12.081  18.570  0.00  0.00    +0.000 A 
ATOM     14  C   UNL     1       1.086  10.811  19.154  0.00  0.00    +0.000 A 
ATOM     15  N   UNL     1       1.860   9.700  18.953  0.00  0.00    +0.000 N 
ATOM     16  H   UNL     1       2.634   9.644  18.315  0.00  0.00    +0.000 HD
ENDBRANCH   5   7
BRANCH   1  19
ATOM     17  O   UNL     1       6.371   4.767  19.608  0.00  0.00    +0.000 OA
ATOM     18  C   UNL     1       5.991   4.998  18.461  0.00  0.00    +0.000 C 
ATOM     19  N   UNL     1       4.691   5.318  18.084  0.00  0.00    +0.000 N 
ATOM     20  H   UNL     1       4.459   5.155  17.105  0.00  0.00    +0.000 HD
BRANCH  18  21
ATOM     21  C   UNL     1       6.979   4.850  17.298  0.00  0.00    +0.000 C 
BRANCH  21  22
ATOM     22  N   UNL     1       6.513   3.935  16.272  0.00  0.00    +0.000 N 
ATOM     23  C   UNL     1       6.370   4.388  14.990  0.00  0.00    +0.000 C 
ATOM     24  O   UNL     1       6.572   5.558  14.683  0.00  0.00    +0.000 OA
ATOM     25  N   UNL     1       6.019   3.398  14.105  0.00  0.00    +0.000 N 
ATOM     26  H   UNL     1       5.907   3.179  16.563  0.00  0.00    +0.000 HD
ATOM     27  H   UNL     1       6.165   2.444  14.406  0.00  0.00    +0.000 HD
BRANCH  25  28
ATOM     28  C   UNL     1       6.000   3.657  12.695  0.00  0.00    +0.000 C 
ATOM     29  C   UNL     1       5.337   2.672  11.772  0.00  0.00    +0.000 C 
ATOM     30  C   UNL     1       6.825   2.866  11.718  0.00  0.00    +0.000 C 
ENDBRANCH  25  28
ENDBRANCH  21  22
ENDBRANCH  18  21
ENDBRANCH   1  19
TORSDOF 5
ENDMDL
