MODEL 1
REMARK VINA RESULT:      -8.3      0.000      0.000
REMARK  Name = 
REMARK  6 active torsions:
REMARK  status: ('A' for Active; 'I' for Inactive)
REMARK    1  A    between atoms: C_2  and  C_3
REMARK    2  A    between atoms: C_2  and  C_9
REMARK    3  A    between atoms: N_7  and  C_8
REMARK    4  A    between atoms: C_13  and  N_14
REMARK    5  A    between atoms: C_21  and  C_22
REMARK    6  A    between atoms: C_28  and  C_29
REMARK                            x       y       z     vdW  Elec       q    Type
REMARK                         _______ _______ _______ _____ _____    ______ ____
ROOT
ATOM      1  C   UNL     1       0.763   9.257  19.789  0.00  0.00    +0.000 A 
ATOM      2  C   UNL     1       0.515   8.436  20.901  0.00  0.00    +0.000 A 
ATOM      3  C   UNL     1       1.328   7.339  21.160  0.00  0.00    +0.000 A 
ATOM      4  C   UNL     1       2.270   6.953  20.218  0.00  0.00    +0.000 A 
ATOM      5  C   UNL     1       2.320   7.601  18.972  0.00  0.00    +0.000 A 
ATOM      6  C   UNL     1       1.729   8.872  18.838  0.00  0.00    +0.000 A 
ATOM      7  C   UNL     1       2.172   9.802  17.738  0.00  0.00    +0.000 C 
ENDROOT
BRANCH   5   8
ATOM      8  N   UNL     1       2.478   6.774  17.774  0.00  0.00    +0.000 N 
ATOM      9  C   UNL     1       1.650   5.546  17.886  0.00  0.00    +0.000 C 
ATOM     10  C   UNL     1       2.603   4.574  18.523  0.00  0.00    +0.000 A 
ATOM     11  C   UNL     1       3.894   4.969  18.153  0.00  0.00    +0.000 A 
ATOM     12  C   UNL     1       5.034   4.403  18.700  0.00  0.00    +0.000 A 
ATOM     13  C   UNL     1       4.861   3.412  19.663  0.00  0.00    +0.000 A 
ATOM     14  C   UNL     1       3.566   3.017  20.055  0.00  0.00    +0.000 A 
ATOM     15  C   UNL     1       2.408   3.595  19.491  0.00  0.00    +0.000 A 
ATOM     16  C   UNL     1       3.791   6.309  17.532  0.00  0.00    +0.000 C 
ATOM     17  O   UNL     1       4.753   6.930  17.101  0.00  0.00    +0.000 OA
BRANCH  15  18
ATOM     18  C   UNL     1       1.057   3.214  20.045  0.00  0.00    +0.000 C 
ATOM     19  F   UNL     1       0.297   4.270  20.435  0.00  0.00    +0.000 F 
ATOM     20  F   UNL     1       0.304   2.531  19.141  0.00  0.00    +0.000 F 
ATOM     21  F   UNL     1       1.155   2.404  21.138  0.00  0.00    +0.000 F 
ENDBRANCH  15  18
ENDBRANCH   5   8
BRANCH   1  23
ATOM     22  C   UNL     1      -1.218  10.420  19.017  0.00  0.00    +0.000 C 
ATOM     23  C   UNL     1      -0.045  10.481  19.674  0.00  0.00    +0.000 C 
BRANCH  23  24
ATOM     24  C   UNL     1       0.331  11.752  20.389  0.00  0.00    +0.000 C 
ATOM     25  N   UNL     1       1.090  12.659  19.774  0.00  0.00    +0.000 NA
ATOM     26  N   UNL     1       1.254  13.724  20.639  0.00  0.00    +0.000 N 
ATOM     27  C   UNL     1       0.363  13.522  21.775  0.00  0.00    +0.000 C 
ATOM     28  N   UNL     1      -0.067  12.156  21.657  0.00  0.00    +0.000 N 
ATOM     29  C   UNL     1      -1.077  11.628  22.524  0.00  0.00    +0.000 C 
ATOM     30  H   UNL     1       1.073  14.606  20.166  0.00  0.00    +0.000 HD
ENDBRANCH  23  24
ENDBRANCH   1  23
TORSDOF 4
ENDMDL
MODEL 2
REMARK VINA RESULT:      -8.2      1.497      2.006
REMARK  Name = 
REMARK  6 active torsions:
REMARK  status: ('A' for Active; 'I' for Inactive)
REMARK    1  A    between atoms: C_2  and  C_3
REMARK    2  A    between atoms: C_2  and  C_9
REMARK    3  A    between atoms: N_7  and  C_8
REMARK    4  A    between atoms: C_13  and  N_14
REMARK    5  A    between atoms: C_21  and  C_22
REMARK    6  A    between atoms: C_28  and  C_29
REMARK                            x       y       z     vdW  Elec       q    Type
REMARK                         _______ _______ _______ _____ _____    ______ ____
ROOT
ATOM      1  C   UNL     1       0.871   9.325  19.799  0.00  0.00    +0.000 A 
ATOM      2  C   UNL     1       0.540   8.511  20.895  0.00  0.00    +0.000 A 
ATOM      3  C   UNL     1       1.260   7.350  21.151  0.00  0.00    +0.000 A 
ATOM      4  C   UNL     1       2.186   6.904  20.219  0.00  0.00    +0.000 A 
ATOM      5  C   UNL     1       2.309   7.564  18.985  0.00  0.00    +0.000 A 
ATOM      6  C   UNL     1       1.822   8.879  18.859  0.00  0.00    +0.000 A 
ATOM      7  C   UNL     1       2.355   9.787  17.781  0.00  0.00    +0.000 C 
ENDROOT
BRANCH   5   8
ATOM      8  N   UNL     1       2.423   6.744  17.776  0.00  0.00    +0.000 N 
ATOM      9  C   UNL     1       1.595   5.518  17.909  0.00  0.00    +0.000 C 
ATOM     10  C   UNL     1       2.566   4.539  18.508  0.00  0.00    +0.000 A 
ATOM     11  C   UNL     1       3.845   4.932  18.098  0.00  0.00    +0.000 A 
ATOM     12  C   UNL     1       5.001   4.358  18.602  0.00  0.00    +0.000 A 
ATOM     13  C   UNL     1       4.856   3.362  19.565  0.00  0.00    +0.000 A 
ATOM     14  C   UNL     1       3.574   2.969  19.998  0.00  0.00    +0.000 A 
ATOM     15  C   UNL     1       2.400   3.554  19.477  0.00  0.00    +0.000 A 
ATOM     16  C   UNL     1       3.726   6.276  17.488  0.00  0.00    +0.000 C 
ATOM     17  O   UNL     1       4.675   6.896  17.029  0.00  0.00    +0.000 OA
BRANCH  15  18
ATOM     18  C   UNL     1       1.067   3.174  20.073  0.00  0.00    +0.000 C 
ATOM     19  F   UNL     1       0.322   4.231  20.490  0.00  0.00    +0.000 F 
ATOM     20  F   UNL     1       0.284   2.495  19.192  0.00  0.00    +0.000 F 
ATOM     21  F   UNL     1       1.199   2.362  21.161  0.00  0.00    +0.000 F 
ENDBRANCH  15  18
ENDBRANCH   5   8
BRANCH   1  23
ATOM     22  C   UNL     1       0.693  11.692  20.289  0.00  0.00    +0.000 C 
ATOM     23  C   UNL     1       0.163  10.610  19.690  0.00  0.00    +0.000 C 
BRANCH  23  24
ATOM     24  C   UNL     1      -1.051  10.776  18.813  0.00  0.00    +0.000 C 
ATOM     25  N   UNL     1      -1.195  10.014  17.729  0.00  0.00    +0.000 NA
ATOM     26  N   UNL     1      -2.396  10.354  17.135  0.00  0.00    +0.000 N 
ATOM     27  C   UNL     1      -3.111  11.242  18.043  0.00  0.00    +0.000 C 
ATOM     28  N   UNL     1      -2.128  11.628  19.018  0.00  0.00    +0.000 N 
ATOM     29  C   UNL     1      -2.499  12.394  20.170  0.00  0.00    +0.000 C 
ATOM     30  H   UNL     1      -2.936   9.523  16.911  0.00  0.00    +0.000 HD
ENDBRANCH  23  24
ENDBRANCH   1  23
TORSDOF 4
ENDMDL
MODEL 3
REMARK VINA RESULT:      -8.0      0.827      1.339
REMARK  Name = 
REMARK  6 active torsions:
REMARK  status: ('A' for Active; 'I' for Inactive)
REMARK    1  A    between atoms: C_2  and  C_3
REMARK    2  A    between atoms: C_2  and  C_9
REMARK    3  A    between atoms: N_7  and  C_8
REMARK    4  A    between atoms: C_13  and  N_14
REMARK    5  A    between atoms: C_21  and  C_22
REMARK    6  A    between atoms: C_28  and  C_29
REMARK                            x       y       z     vdW  Elec       q    Type
REMARK                         _______ _______ _______ _____ _____    ______ ____
ROOT
ATOM      1  C   UNL     1       1.057   9.205  19.546  0.00  0.00    +0.000 A 
ATOM      2  C   UNL     1       0.742   8.480  20.707  0.00  0.00    +0.000 A 
ATOM      3  C   UNL     1       1.458   7.335  21.036  0.00  0.00    +0.000 A 
ATOM      4  C   UNL     1       2.360   6.810  20.122  0.00  0.00    +0.000 A 
ATOM      5  C   UNL     1       2.462   7.372  18.838  0.00  0.00    +0.000 A 
ATOM      6  C   UNL     1       1.983   8.679  18.623  0.00  0.00    +0.000 A 
ATOM      7  C   UNL     1       2.501   9.496  17.467  0.00  0.00    +0.000 C 
ENDROOT
BRANCH   5   8
ATOM      8  N   UNL     1       2.543   6.461  17.694  0.00  0.00    +0.000 N 
ATOM      9  C   UNL     1       1.655   5.290  17.908  0.00  0.00    +0.000 C 
ATOM     10  C   UNL     1       2.573   4.312  18.586  0.00  0.00    +0.000 A 
ATOM     11  C   UNL     1       3.872   4.611  18.161  0.00  0.00    +0.000 A 
ATOM     12  C   UNL     1       4.995   4.020  18.717  0.00  0.00    +0.000 A 
ATOM     13  C   UNL     1       4.796   3.106  19.748  0.00  0.00    +0.000 A 
ATOM     14  C   UNL     1       3.493   2.808  20.196  0.00  0.00    +0.000 A 
ATOM     15  C   UNL     1       2.353   3.410  19.623  0.00  0.00    +0.000 A 
ATOM     16  C   UNL     1       3.823   5.910  17.454  0.00  0.00    +0.000 C 
ATOM     17  O   UNL     1       4.804   6.448  16.959  0.00  0.00    +0.000 OA
BRANCH  15  18
ATOM     18  C   UNL     1       0.999   3.140  20.233  0.00  0.00    +0.000 C 
ATOM     19  F   UNL     1       0.305   4.259  20.565  0.00  0.00    +0.000 F 
ATOM     20  F   UNL     1       0.189   2.438  19.396  0.00  0.00    +0.000 F 
ATOM     21  F   UNL     1       1.085   2.403  21.377  0.00  0.00    +0.000 F 
ENDBRANCH  15  18
ENDBRANCH   5   8
BRANCH   1  23
ATOM     22  C   UNL     1      -0.818  10.485  18.697  0.00  0.00    +0.000 C 
ATOM     23  C   UNL     1       0.357  10.485  19.353  0.00  0.00    +0.000 C 
BRANCH  23  24
ATOM     24  C   UNL     1       0.844  11.761  19.988  0.00  0.00    +0.000 C 
ATOM     25  N   UNL     1       0.540  12.027  21.258  0.00  0.00    +0.000 NA
ATOM     26  N   UNL     1       1.133  13.232  21.587  0.00  0.00    +0.000 N 
ATOM     27  C   UNL     1       2.017  13.611  20.493  0.00  0.00    +0.000 C 
ATOM     28  N   UNL     1       1.656  12.731  19.415  0.00  0.00    +0.000 N 
ATOM     29  C   UNL     1       2.416  12.707  18.202  0.00  0.00    +0.000 C 
ATOM     30  H   UNL     1       1.629  13.162  22.471  0.00  0.00    +0.000 HD
ENDBRANCH  23  24
ENDBRANCH   1  23
TORSDOF 4
ENDMDL
MODEL 4
REMARK VINA RESULT:      -8.0      0.783      1.314
REMARK  Name = 
REMARK  6 active torsions:
REMARK  status: ('A' for Active; 'I' for Inactive)
REMARK    1  A    between atoms: C_2  and  C_3
REMARK    2  A    between atoms: C_2  and  C_9
REMARK    3  A    between atoms: N_7  and  C_8
REMARK    4  A    between atoms: C_13  and  N_14
REMARK    5  A    between atoms: C_21  and  C_22
REMARK    6  A    between atoms: C_28  and  C_29
REMARK                            x       y       z     vdW  Elec       q    Type
REMARK                         _______ _______ _______ _____ _____    ______ ____
ROOT
ATOM      1  C   UNL     1       0.787   9.298  19.814  0.00  0.00    +0.000 A 
ATOM      2  C   UNL     1       0.542   8.474  20.925  0.00  0.00    +0.000 A 
ATOM      3  C   UNL     1       1.343   7.364  21.167  0.00  0.00    +0.000 A 
ATOM      4  C   UNL     1       2.268   6.971  20.211  0.00  0.00    +0.000 A 
ATOM      5  C   UNL     1       2.311   7.625  18.968  0.00  0.00    +0.000 A 
ATOM      6  C   UNL     1       1.736   8.905  18.848  0.00  0.00    +0.000 A 
ATOM      7  C   UNL     1       2.177   9.835  17.747  0.00  0.00    +0.000 C 
ENDROOT
BRANCH   5   8
ATOM      8  N   UNL     1       2.442   6.803  17.763  0.00  0.00    +0.000 N 
ATOM      9  C   UNL     1       1.614   5.576  17.887  0.00  0.00    +0.000 C 
ATOM     10  C   UNL     1       2.579   4.600  18.500  0.00  0.00    +0.000 A 
ATOM     11  C   UNL     1       3.862   4.994  18.105  0.00  0.00    +0.000 A 
ATOM     12  C   UNL     1       5.012   4.423  18.625  0.00  0.00    +0.000 A 
ATOM     13  C   UNL     1       4.857   3.429  19.588  0.00  0.00    +0.000 A 
ATOM     14  C   UNL     1       3.570   3.034  20.006  0.00  0.00    +0.000 A 
ATOM     15  C   UNL     1       2.402   3.616  19.469  0.00  0.00    +0.000 A 
ATOM     16  C   UNL     1       3.749   6.336  17.492  0.00  0.00    +0.000 C 
ATOM     17  O   UNL     1       4.702   6.957  17.043  0.00  0.00    +0.000 OA
BRANCH  15  18
ATOM     18  C   UNL     1       1.063   3.235  20.049  0.00  0.00    +0.000 C 
ATOM     19  F   UNL     1       0.255   2.559  19.191  0.00  0.00    +0.000 F 
ATOM     20  F   UNL     1       1.185   2.439  21.146  0.00  0.00    +0.000 F 
ATOM     21  F   UNL     1       0.345   4.323  20.454  0.00  0.00    +0.000 F 
ENDBRANCH  15  18
ENDBRANCH   5   8
BRANCH   1  23
ATOM     22  C   UNL     1      -1.315  10.437  19.424  0.00  0.00    +0.000 C 
ATOM     23  C   UNL     1      -0.006  10.533  19.716  0.00  0.00    +0.000 C 
BRANCH  23  24
ATOM     24  C   UNL     1       0.571  11.878  20.074  0.00  0.00    +0.000 C 
ATOM     25  N   UNL     1       1.456  11.977  21.066  0.00  0.00    +0.000 NA
ATOM     26  N   UNL     1       1.836  13.303  21.156  0.00  0.00    +0.000 N 
ATOM     27  C   UNL     1       1.287  14.008  20.005  0.00  0.00    +0.000 C 
ATOM     28  N   UNL     1       0.332  13.092  19.443  0.00  0.00    +0.000 N 
ATOM     29  C   UNL     1      -0.315  13.379  18.198  0.00  0.00    +0.000 C 
ATOM     30  H   UNL     1       2.847  13.387  21.207  0.00  0.00    +0.000 HD
ENDBRANCH  23  24
ENDBRANCH   1  23
TORSDOF 4
ENDMDL
MODEL 5
REMARK VINA RESULT:      -8.0      0.529      1.333
REMARK  Name = 
REMARK  6 active torsions:
REMARK  status: ('A' for Active; 'I' for Inactive)
REMARK    1  A    between atoms: C_2  and  C_3
REMARK    2  A    between atoms: C_2  and  C_9
REMARK    3  A    between atoms: N_7  and  C_8
REMARK    4  A    between atoms: C_13  and  N_14
REMARK    5  A    between atoms: C_21  and  C_22
REMARK    6  A    between atoms: C_28  and  C_29
REMARK                            x       y       z     vdW  Elec       q    Type
REMARK                         _______ _______ _______ _____ _____    ______ ____
ROOT
ATOM      1  C   UNL     1       0.641   9.251  19.766  0.00  0.00    +0.000 A 
ATOM      2  C   UNL     1       0.421   8.433  20.887  0.00  0.00    +0.000 A 
ATOM      3  C   UNL     1       1.281   7.377  21.166  0.00  0.00    +0.000 A 
ATOM      4  C   UNL     1       2.249   7.024  20.238  0.00  0.00    +0.000 A 
ATOM      5  C   UNL     1       2.281   7.659  18.984  0.00  0.00    +0.000 A 
ATOM      6  C   UNL     1       1.633   8.900  18.829  0.00  0.00    +0.000 A 
ATOM      7  C   UNL     1       2.042   9.836  17.721  0.00  0.00    +0.000 C 
ENDROOT
BRANCH   5   8
ATOM      8  N   UNL     1       2.488   6.826  17.798  0.00  0.00    +0.000 N 
ATOM      9  C   UNL     1       1.672   5.588  17.892  0.00  0.00    +0.000 C 
ATOM     10  C   UNL     1       2.616   4.633  18.567  0.00  0.00    +0.000 A 
ATOM     11  C   UNL     1       3.913   5.041  18.237  0.00  0.00    +0.000 A 
ATOM     12  C   UNL     1       5.041   4.493  18.824  0.00  0.00    +0.000 A 
ATOM     13  C   UNL     1       4.848   3.507  19.788  0.00  0.00    +0.000 A 
ATOM     14  C   UNL     1       3.546   3.098  20.141  0.00  0.00    +0.000 A 
ATOM     15  C   UNL     1       2.401   3.658  19.536  0.00  0.00    +0.000 A 
ATOM     16  C   UNL     1       3.814   6.375  17.602  0.00  0.00    +0.000 C 
ATOM     17  O   UNL     1       4.781   7.005  17.198  0.00  0.00    +0.000 OA
BRANCH  15  18
ATOM     18  C   UNL     1       1.037   3.264  20.048  0.00  0.00    +0.000 C 
ATOM     19  F   UNL     1       1.064   2.459  21.142  0.00  0.00    +0.000 F 
ATOM     20  F   UNL     1       0.290   4.343  20.403  0.00  0.00    +0.000 F 
ATOM     21  F   UNL     1       0.306   2.593  19.112  0.00  0.00    +0.000 F 
ENDBRANCH  15  18
ENDBRANCH   5   8
BRANCH   1  23
ATOM     22  C   UNL     1      -1.262  10.379  18.778  0.00  0.00    +0.000 C 
ATOM     23  C   UNL     1      -0.222  10.434  19.630  0.00  0.00    +0.000 C 
BRANCH  23  24
ATOM     24  C   UNL     1      -0.060  11.642  20.514  0.00  0.00    +0.000 C 
ATOM     25  N   UNL     1      -0.742  11.724  21.657  0.00  0.00    +0.000 NA
ATOM     26  N   UNL     1      -0.385  12.908  22.275  0.00  0.00    +0.000 N 
ATOM     27  C   UNL     1       0.739  13.475  21.542  0.00  0.00    +0.000 C 
ATOM     28  N   UNL     1       0.789  12.724  20.317  0.00  0.00    +0.000 N 
ATOM     29  C   UNL     1       1.867  12.900  19.392  0.00  0.00    +0.000 C 
ATOM     30  H   UNL     1      -0.162  12.752  23.254  0.00  0.00    +0.000 HD
ENDBRANCH  23  24
ENDBRANCH   1  23
TORSDOF 4
ENDMDL
MODEL 6
REMARK VINA RESULT:      -7.8      3.368      7.613
REMARK  Name = 
REMARK  6 active torsions:
REMARK  status: ('A' for Active; 'I' for Inactive)
REMARK    1  A    between atoms: C_2  and  C_3
REMARK    2  A    between atoms: C_2  and  C_9
REMARK    3  A    between atoms: N_7  and  C_8
REMARK    4  A    between atoms: C_13  and  N_14
REMARK    5  A    between atoms: C_21  and  C_22
REMARK    6  A    between atoms: C_28  and  C_29
REMARK                            x       y       z     vdW  Elec       q    Type
REMARK                         _______ _______ _______ _____ _____    ______ ____
ROOT
ATOM      1  C   UNL     1       2.313   7.040  18.571  0.00  0.00    +0.000 A 
ATOM      2  C   UNL     1       2.369   7.952  17.505  0.00  0.00    +0.000 A 
ATOM      3  C   UNL     1       2.184   9.311  17.732  0.00  0.00    +0.000 A 
ATOM      4  C   UNL     1       1.766   9.741  18.982  0.00  0.00    +0.000 A 
ATOM      5  C   UNL     1       1.428   8.799  19.969  0.00  0.00    +0.000 A 
ATOM      6  C   UNL     1       1.900   7.478  19.845  0.00  0.00    +0.000 A 
ATOM      7  C   UNL     1       2.009   6.594  21.060  0.00  0.00    +0.000 C 
ENDROOT
BRANCH   5   8
ATOM      8  N   UNL     1       0.218   9.036  20.759  0.00  0.00    +0.000 N 
ATOM      9  C   UNL     1      -0.984   8.965  19.889  0.00  0.00    +0.000 C 
ATOM     10  C   UNL     1      -1.147  10.394  19.451  0.00  0.00    +0.000 A 
ATOM     11  C   UNL     1      -0.597  11.194  20.459  0.00  0.00    +0.000 A 
ATOM     12  C   UNL     1      -0.418  12.560  20.314  0.00  0.00    +0.000 A 
ATOM     13  C   UNL     1      -0.796  13.132  19.103  0.00  0.00    +0.000 A 
ATOM     14  C   UNL     1      -1.338  12.335  18.074  0.00  0.00    +0.000 A 
ATOM     15  C   UNL     1      -1.522  10.944  18.229  0.00  0.00    +0.000 A 
ATOM     16  C   UNL     1       0.144  10.304  21.381  0.00  0.00    +0.000 C 
ATOM     17  O   UNL     1       0.741  10.703  22.371  0.00  0.00    +0.000 OA
BRANCH  15  18
ATOM     18  C   UNL     1      -1.989  10.132  17.046  0.00  0.00    +0.000 C 
ATOM     19  F   UNL     1      -2.287  10.871  15.946  0.00  0.00    +0.000 F 
ATOM     20  F   UNL     1      -1.056   9.228  16.642  0.00  0.00    +0.000 F 
ATOM     21  F   UNL     1      -3.114   9.412  17.324  0.00  0.00    +0.000 F 
ENDBRANCH  15  18
ENDBRANCH   5   8
BRANCH   1  23
ATOM     22  C   UNL     1       1.713   4.816  17.817  0.00  0.00    +0.000 C 
ATOM     23  C   UNL     1       2.671   5.645  18.270  0.00  0.00    +0.000 C 
BRANCH  23  24
ATOM     24  C   UNL     1       4.097   5.163  18.317  0.00  0.00    +0.000 C 
ATOM     25  N   UNL     1       4.471   4.288  19.251  0.00  0.00    +0.000 NA
ATOM     26  N   UNL     1       5.807   4.000  19.044  0.00  0.00    +0.000 N 
ATOM     27  C   UNL     1       6.204   4.595  17.774  0.00  0.00    +0.000 C 
ATOM     28  N   UNL     1       5.125   5.483  17.439  0.00  0.00    +0.000 N 
ATOM     29  C   UNL     1       5.088   6.146  16.170  0.00  0.00    +0.000 C 
ATOM     30  H   UNL     1       5.968   2.997  19.062  0.00  0.00    +0.000 HD
ENDBRANCH  23  24
ENDBRANCH   1  23
TORSDOF 4
ENDMDL
MODEL 7
REMARK VINA RESULT:      -7.8      3.458      7.641
REMARK  Name = 
REMARK  6 active torsions:
REMARK  status: ('A' for Active; 'I' for Inactive)
REMARK    1  A    between atoms: C_2  and  C_3
REMARK    2  A    between atoms: C_2  and  C_9
REMARK    3  A    between atoms: N_7  and  C_8
REMARK    4  A    between atoms: C_13  and  N_14
REMARK    5  A    between atoms: C_21  and  C_22
REMARK    6  A    between atoms: C_28  and  C_29
REMARK                            x       y       z     vdW  Elec       q    Type
REMARK                         _______ _______ _______ _____ _____    ______ ____
ROOT
ATOM      1  C   UNL     1       2.379   6.824  18.624  0.00  0.00    +0.000 A 
ATOM      2  C   UNL     1       2.342   7.825  17.640  0.00  0.00    +0.000 A 
ATOM      3  C   UNL     1       2.155   9.155  17.998  0.00  0.00    +0.000 A 
ATOM      4  C   UNL     1       1.824   9.468  19.308  0.00  0.00    +0.000 A 
ATOM      5  C   UNL     1       1.574   8.438  20.231  0.00  0.00    +0.000 A 
ATOM      6  C   UNL     1       2.056   7.143  19.959  0.00  0.00    +0.000 A 
ATOM      7  C   UNL     1       2.266   6.160  21.081  0.00  0.00    +0.000 C 
ENDROOT
BRANCH   5   8
ATOM      8  N   UNL     1       0.423   8.581  21.124  0.00  0.00    +0.000 N 
ATOM      9  C   UNL     1      -0.820   8.773  20.333  0.00  0.00    +0.000 C 
ATOM     10  C   UNL     1      -0.893  10.270  20.211  0.00  0.00    +0.000 A 
ATOM     11  C   UNL     1      -0.238  10.801  21.328  0.00  0.00    +0.000 A 
ATOM     12  C   UNL     1       0.038  12.153  21.458  0.00  0.00    +0.000 A 
ATOM     13  C   UNL     1      -0.350  12.992  20.418  0.00  0.00    +0.000 A 
ATOM     14  C   UNL     1      -0.997  12.466  19.280  0.00  0.00    +0.000 A 
ATOM     15  C   UNL     1      -1.279  11.089  19.155  0.00  0.00    +0.000 A 
ATOM     16  C   UNL     1       0.474   9.691  21.999  0.00  0.00    +0.000 C 
ATOM     17  O   UNL     1       1.144   9.832  23.013  0.00  0.00    +0.000 OA
BRANCH  15  18
ATOM     18  C   UNL     1      -1.860  10.577  17.859  0.00  0.00    +0.000 C 
ATOM     19  F   UNL     1      -2.998   9.850  18.007  0.00  0.00    +0.000 F 
ATOM     20  F   UNL     1      -2.176  11.586  17.003  0.00  0.00    +0.000 F 
ATOM     21  F   UNL     1      -0.990   9.772  17.184  0.00  0.00    +0.000 F 
ENDBRANCH  15  18
ENDBRANCH   5   8
BRANCH   1  23
ATOM     22  C   UNL     1       1.769   4.685  17.663  0.00  0.00    +0.000 C 
ATOM     23  C   UNL     1       2.734   5.468  18.178  0.00  0.00    +0.000 C 
BRANCH  23  24
ATOM     24  C   UNL     1       4.162   4.989  18.148  0.00  0.00    +0.000 C 
ATOM     25  N   UNL     1       4.559   4.032  18.987  0.00  0.00    +0.000 NA
ATOM     26  N   UNL     1       5.891   3.771  18.725  0.00  0.00    +0.000 N 
ATOM     27  C   UNL     1       6.258   4.485  17.509  0.00  0.00    +0.000 C 
ATOM     28  N   UNL     1       5.169   5.396  17.282  0.00  0.00    +0.000 N 
ATOM     29  C   UNL     1       5.103   6.176  16.083  0.00  0.00    +0.000 C 
ATOM     30  H   UNL     1       6.054   2.771  18.644  0.00  0.00    +0.000 HD
ENDBRANCH  23  24
ENDBRANCH   1  23
TORSDOF 4
ENDMDL
MODEL 8
REMARK VINA RESULT:      -7.8      3.336      7.544
REMARK  Name = 
REMARK  6 active torsions:
REMARK  status: ('A' for Active; 'I' for Inactive)
REMARK    1  A    between atoms: C_2  and  C_3
REMARK    2  A    between atoms: C_2  and  C_9
REMARK    3  A    between atoms: N_7  and  C_8
REMARK    4  A    between atoms: C_13  and  N_14
REMARK    5  A    between atoms: C_21  and  C_22
REMARK    6  A    between atoms: C_28  and  C_29
REMARK                            x       y       z     vdW  Elec       q    Type
REMARK                         _______ _______ _______ _____ _____    ______ ____
ROOT
ATOM      1  C   UNL     1       2.159   6.108  18.652  0.00  0.00    +0.000 A 
ATOM      2  C   UNL     1       2.244   7.051  17.616  0.00  0.00    +0.000 A 
ATOM      3  C   UNL     1       2.332   8.408  17.905  0.00  0.00    +0.000 A 
ATOM      4  C   UNL     1       2.152   8.838  19.211  0.00  0.00    +0.000 A 
ATOM      5  C   UNL     1       1.776   7.918  20.205  0.00  0.00    +0.000 A 
ATOM      6  C   UNL     1       1.989   6.544  19.982  0.00  0.00    +0.000 A 
ATOM      7  C   UNL     1       2.087   5.592  21.146  0.00  0.00    +0.000 C 
ENDROOT
BRANCH   5   8
ATOM      8  N   UNL     1       0.733   8.318  21.152  0.00  0.00    +0.000 N 
ATOM      9  C   UNL     1      -0.532   8.608  20.429  0.00  0.00    +0.000 C 
ATOM     10  C   UNL     1      -0.408  10.079  20.144  0.00  0.00    +0.000 A 
ATOM     11  C   UNL     1       0.403  10.621  21.147  0.00  0.00    +0.000 A 
ATOM     12  C   UNL     1       0.872  11.923  21.106  0.00  0.00    +0.000 A 
ATOM     13  C   UNL     1       0.519  12.699  20.005  0.00  0.00    +0.000 A 
ATOM     14  C   UNL     1      -0.285  12.160  18.981  0.00  0.00    +0.000 A 
ATOM     15  C   UNL     1      -0.764  10.833  19.030  0.00  0.00    +0.000 A 
ATOM     16  C   UNL     1       1.009   9.493  21.890  0.00  0.00    +0.000 C 
ATOM     17  O   UNL     1       1.773   9.638  22.834  0.00  0.00    +0.000 OA
BRANCH  15  18
ATOM     18  C   UNL     1      -1.514  10.282  17.843  0.00  0.00    +0.000 C 
ATOM     19  F   UNL     1      -2.661   9.627  18.163  0.00  0.00    +0.000 F 
ATOM     20  F   UNL     1      -1.879  11.257  16.967  0.00  0.00    +0.000 F 
ATOM     21  F   UNL     1      -0.768   9.394  17.125  0.00  0.00    +0.000 F 
ENDBRANCH  15  18
ENDBRANCH   5   8
BRANCH   1  23
ATOM     22  C   UNL     1       1.378   4.238  17.324  0.00  0.00    +0.000 C 
ATOM     23  C   UNL     1       2.225   4.690  18.266  0.00  0.00    +0.000 C 
BRANCH  23  24
ATOM     24  C   UNL     1       3.300   3.774  18.788  0.00  0.00    +0.000 C 
ATOM     25  N   UNL     1       4.584   4.095  18.621  0.00  0.00    +0.000 NA
ATOM     26  N   UNL     1       5.344   3.104  19.214  0.00  0.00    +0.000 N 
ATOM     27  C   UNL     1       4.444   2.234  19.961  0.00  0.00    +0.000 C 
ATOM     28  N   UNL     1       3.130   2.596  19.505  0.00  0.00    +0.000 N 
ATOM     29  C   UNL     1       1.961   2.049  20.126  0.00  0.00    +0.000 C 
ATOM     30  H   UNL     1       6.063   3.507  19.808  0.00  0.00    +0.000 HD
ENDBRANCH  23  24
ENDBRANCH   1  23
TORSDOF 4
ENDMDL
MODEL 9
REMARK VINA RESULT:      -7.7      3.468      4.607
REMARK  Name = 
REMARK  6 active torsions:
REMARK  status: ('A' for Active; 'I' for Inactive)
REMARK    1  A    between atoms: C_2  and  C_3
REMARK    2  A    between atoms: C_2  and  C_9
REMARK    3  A    between atoms: N_7  and  C_8
REMARK    4  A    between atoms: C_13  and  N_14
REMARK    5  A    between atoms: C_21  and  C_22
REMARK    6  A    between atoms: C_28  and  C_29
REMARK                            x       y       z     vdW  Elec       q    Type
REMARK                         _______ _______ _______ _____ _____    ______ ____
ROOT
ATOM      1  C   UNL     1       1.980   7.988  19.437  0.00  0.00    +0.000 A 
ATOM      2  C   UNL     1       2.588   8.646  18.356  0.00  0.00    +0.000 A 
ATOM      3  C   UNL     1       3.203   7.917  17.344  0.00  0.00    +0.000 A 
ATOM      4  C   UNL     1       3.372   6.549  17.498  0.00  0.00    +0.000 A 
ATOM      5  C   UNL     1       3.023   5.933  18.712  0.00  0.00    +0.000 A 
ATOM      6  C   UNL     1       2.141   6.596  19.587  0.00  0.00    +0.000 A 
ATOM      7  C   UNL     1       1.357   5.814  20.610  0.00  0.00    +0.000 C 
ENDROOT
BRANCH   5   8
ATOM      8  N   UNL     1       3.947   4.943  19.270  0.00  0.00    +0.000 N 
ATOM      9  C   UNL     1       5.310   5.523  19.388  0.00  0.00    +0.000 C 
ATOM     10  C   UNL     1       5.927   5.162  18.066  0.00  0.00    +0.000 A 
ATOM     11  C   UNL     1       5.290   3.996  17.625  0.00  0.00    +0.000 A 
ATOM     12  C   UNL     1       5.486   3.472  16.358  0.00  0.00    +0.000 A 
ATOM     13  C   UNL     1       6.345   4.159  15.504  0.00  0.00    +0.000 A 
ATOM     14  C   UNL     1       6.980   5.343  15.931  0.00  0.00    +0.000 A 
ATOM     15  C   UNL     1       6.780   5.869  17.224  0.00  0.00    +0.000 A 
ATOM     16  C   UNL     1       4.114   3.772  18.496  0.00  0.00    +0.000 C 
ATOM     17  O   UNL     1       3.348   2.828  18.367  0.00  0.00    +0.000 OA
BRANCH  15  18
ATOM     18  C   UNL     1       7.392   7.204  17.573  0.00  0.00    +0.000 C 
ATOM     19  F   UNL     1       8.133   7.198  18.711  0.00  0.00    +0.000 F 
ATOM     20  F   UNL     1       8.221   7.660  16.595  0.00  0.00    +0.000 F 
ATOM     21  F   UNL     1       6.450   8.175  17.749  0.00  0.00    +0.000 F 
ENDBRANCH  15  18
ENDBRANCH   5   8
BRANCH   1  23
ATOM     22  C   UNL     1       1.439   8.668  21.699  0.00  0.00    +0.000 C 
ATOM     23  C   UNL     1       1.221   8.823  20.380  0.00  0.00    +0.000 C 
BRANCH  23  24
ATOM     24  C   UNL     1       0.322   9.937  19.911  0.00  0.00    +0.000 C 
ATOM     25  N   UNL     1      -0.896   9.654  19.447  0.00  0.00    +0.000 NA
ATOM     26  N   UNL     1      -1.506  10.850  19.117  0.00  0.00    +0.000 N 
ATOM     27  C   UNL     1      -0.664  11.934  19.607  0.00  0.00    +0.000 C 
ATOM     28  N   UNL     1       0.582  11.300  19.942  0.00  0.00    +0.000 N 
ATOM     29  C   UNL     1       1.623  12.031  20.600  0.00  0.00    +0.000 C 
ATOM     30  H   UNL     1      -2.445  10.895  19.502  0.00  0.00    +0.000 HD
ENDBRANCH  23  24
ENDBRANCH   1  23
TORSDOF 4
ENDMDL
