MODEL 1
REMARK VINA RESULT:      -8.7      0.000      0.000
REMARK  Name = 
REMARK  4 active torsions:
REMARK  status: ('A' for Active; 'I' for Inactive)
REMARK    1  A    between atoms: C_2  and  C_11
REMARK    2  A    between atoms: N_3  and  C_4
REMARK    3  A    between atoms: C_4  and  C_5
REMARK    4  A    between atoms: C_14  and  N_15
REMARK                            x       y       z     vdW  Elec       q    Type
REMARK                         _______ _______ _______ _____ _____    ______ ____
ROOT
ATOM      1  C   UNL     1       3.763   6.201  18.160  0.00  0.00    +0.000 A 
ATOM      2  C   UNL     1       3.630   7.379  17.426  0.00  0.00    +0.000 A 
ATOM      3  C   UNL     1       2.758   8.361  17.864  0.00  0.00    +0.000 A 
ATOM      4  C   UNL     1       2.027   8.184  19.051  0.00  0.00    +0.000 A 
ATOM      5  C   UNL     1       2.229   7.063  19.857  0.00  0.00    +0.000 A 
ATOM      6  C   UNL     1       3.095   6.056  19.392  0.00  0.00    +0.000 A 
ENDROOT
BRANCH   4   7
ATOM      7  N   UNL     1       1.007   9.131  19.293  0.00  0.00    +0.000 N 
ATOM      8  C   UNL     1       0.909  10.290  18.548  0.00  0.00    +0.000 A 
ATOM      9  N   UNL     1       0.429  11.294  19.238  0.00  0.00    +0.000 NA
ATOM     10  C   UNL     1       0.128  10.752  20.457  0.00  0.00    +0.000 A 
ATOM     11  C   UNL     1      -0.302  11.414  21.613  0.00  0.00    +0.000 A 
ATOM     12  C   UNL     1      -0.598  10.655  22.747  0.00  0.00    +0.000 A 
ATOM     13  C   UNL     1      -0.497   9.263  22.717  0.00  0.00    +0.000 A 
ATOM     14  C   UNL     1      -0.018   8.583  21.587  0.00  0.00    +0.000 A 
ATOM     15  C   UNL     1       0.328   9.366  20.477  0.00  0.00    +0.000 A 
ENDBRANCH   4   7
BRANCH   1  17
ATOM     16  O   UNL     1       4.358   3.962  17.776  0.00  0.00    +0.000 OA
ATOM     17  C   UNL     1       4.596   5.142  17.540  0.00  0.00    +0.000 C 
ATOM     18  N   UNL     1       5.674   5.561  16.800  0.00  0.00    +0.000 N 
ATOM     19  H   UNL     1       5.955   6.533  16.798  0.00  0.00    +0.000 HD
BRANCH  18  20
ATOM     20  C   UNL     1       6.694   4.612  16.401  0.00  0.00    +0.000 C 
BRANCH  20  21
ATOM     21  C   UNL     1       6.854   4.572  14.900  0.00  0.00    +0.000 A 
ATOM     22  C   UNL     1       6.061   3.716  14.138  0.00  0.00    +0.000 A 
ATOM     23  C   UNL     1       6.237   3.696  12.757  0.00  0.00    +0.000 A 
ATOM     24  C   UNL     1       7.186   4.529  12.183  0.00  0.00    +0.000 A 
ATOM     25  C   UNL     1       7.930   5.352  13.011  0.00  0.00    +0.000 A 
ATOM     26  N   UNL     1       7.786   5.398  14.352  0.00  0.00    +0.000 NA
ENDBRANCH  20  21
ENDBRANCH  18  20
ENDBRANCH   1  17
TORSDOF 4
ENDMDL
MODEL 2
REMARK VINA RESULT:      -8.5      3.597      8.775
REMARK  Name = 
REMARK  4 active torsions:
REMARK  status: ('A' for Active; 'I' for Inactive)
REMARK    1  A    between atoms: C_2  and  C_11
REMARK    2  A    between atoms: N_3  and  C_4
REMARK    3  A    between atoms: C_4  and  C_5
REMARK    4  A    between atoms: C_14  and  N_15
REMARK                            x       y       z     vdW  Elec       q    Type
REMARK                         _______ _______ _______ _____ _____    ______ ____
ROOT
ATOM      1  C   UNL     1       1.104   9.449  19.263  0.00  0.00    +0.000 A 
ATOM      2  C   UNL     1       1.374   8.653  20.375  0.00  0.00    +0.000 A 
ATOM      3  C   UNL     1       2.077   7.472  20.214  0.00  0.00    +0.000 A 
ATOM      4  C   UNL     1       2.536   7.085  18.943  0.00  0.00    +0.000 A 
ATOM      5  C   UNL     1       2.374   7.922  17.838  0.00  0.00    +0.000 A 
ATOM      6  C   UNL     1       1.634   9.107  18.003  0.00  0.00    +0.000 A 
ENDROOT
BRANCH   4   7
ATOM      7  N   UNL     1       3.041   5.769  18.844  0.00  0.00    +0.000 N 
ATOM      8  C   UNL     1       4.076   5.458  17.984  0.00  0.00    +0.000 A 
ATOM      9  N   UNL     1       3.991   4.240  17.514  0.00  0.00    +0.000 NA
ATOM     10  C   UNL     1       2.904   3.707  18.149  0.00  0.00    +0.000 A 
ATOM     11  C   UNL     1       2.294   2.468  17.923  0.00  0.00    +0.000 A 
ATOM     12  C   UNL     1       1.211   2.100  18.723  0.00  0.00    +0.000 A 
ATOM     13  C   UNL     1       0.766   2.939  19.747  0.00  0.00    +0.000 A 
ATOM     14  C   UNL     1       1.328   4.207  19.957  0.00  0.00    +0.000 A 
ATOM     15  C   UNL     1       2.378   4.582  19.107  0.00  0.00    +0.000 A 
ENDBRANCH   4   7
BRANCH   1  17
ATOM     16  O   UNL     1      -0.414  10.697  20.549  0.00  0.00    +0.000 OA
ATOM     17  C   UNL     1       0.215  10.613  19.499  0.00  0.00    +0.000 C 
ATOM     18  N   UNL     1       0.070  11.497  18.459  0.00  0.00    +0.000 N 
ATOM     19  H   UNL     1       0.442  11.284  17.542  0.00  0.00    +0.000 HD
BRANCH  18  20
ATOM     20  C   UNL     1      -0.983  12.492  18.493  0.00  0.00    +0.000 C 
BRANCH  20  21
ATOM     21  C   UNL     1      -2.308  11.910  18.064  0.00  0.00    +0.000 A 
ATOM     22  C   UNL     1      -2.415  11.246  16.844  0.00  0.00    +0.000 A 
ATOM     23  C   UNL     1      -3.652  10.726  16.473  0.00  0.00    +0.000 A 
ATOM     24  C   UNL     1      -4.734  10.878  17.326  0.00  0.00    +0.000 A 
ATOM     25  C   UNL     1      -4.543  11.547  18.523  0.00  0.00    +0.000 A 
ATOM     26  N   UNL     1      -3.359  12.063  18.916  0.00  0.00    +0.000 NA
ENDBRANCH  20  21
ENDBRANCH  18  20
ENDBRANCH   1  17
TORSDOF 4
ENDMDL
MODEL 3
REMARK VINA RESULT:      -8.5      2.139      3.145
REMARK  Name = 
REMARK  4 active torsions:
REMARK  status: ('A' for Active; 'I' for Inactive)
REMARK    1  A    between atoms: C_2  and  C_11
REMARK    2  A    between atoms: N_3  and  C_4
REMARK    3  A    between atoms: C_4  and  C_5
REMARK    4  A    between atoms: C_14  and  N_15
REMARK                            x       y       z     vdW  Elec       q    Type
REMARK                         _______ _______ _______ _____ _____    ______ ____
ROOT
ATOM      1  C   UNL     1       2.346   7.227  19.165  0.00  0.00    +0.000 A 
ATOM      2  C   UNL     1       2.325   7.936  17.965  0.00  0.00    +0.000 A 
ATOM      3  C   UNL     1       1.628   9.129  17.891  0.00  0.00    +0.000 A 
ATOM      4  C   UNL     1       0.963   9.636  19.020  0.00  0.00    +0.000 A 
ATOM      5  C   UNL     1       1.066   9.000  20.258  0.00  0.00    +0.000 A 
ATOM      6  C   UNL     1       1.752   7.773  20.320  0.00  0.00    +0.000 A 
ENDROOT
BRANCH   4   7
ATOM      7  N   UNL     1       0.101  10.731  18.788  0.00  0.00    +0.000 N 
ATOM      8  C   UNL     1       0.149  11.865  19.577  0.00  0.00    +0.000 A 
ATOM      9  N   UNL     1      -1.020  12.439  19.704  0.00  0.00    +0.000 NA
ATOM     10  C   UNL     1      -1.849  11.699  18.906  0.00  0.00    +0.000 A 
ATOM     11  C   UNL     1      -3.238  11.806  18.770  0.00  0.00    +0.000 A 
ATOM     12  C   UNL     1      -3.886  10.973  17.858  0.00  0.00    +0.000 A 
ATOM     13  C   UNL     1      -3.160  10.074  17.075  0.00  0.00    +0.000 A 
ATOM     14  C   UNL     1      -1.774   9.913  17.231  0.00  0.00    +0.000 A 
ATOM     15  C   UNL     1      -1.149  10.719  18.193  0.00  0.00    +0.000 A 
ENDBRANCH   4   7
BRANCH   1  17
ATOM     16  O   UNL     1       3.535   5.438  20.114  0.00  0.00    +0.000 OA
ATOM     17  C   UNL     1       2.982   5.887  19.116  0.00  0.00    +0.000 C 
ATOM     18  N   UNL     1       2.999   5.259  17.896  0.00  0.00    +0.000 N 
ATOM     19  H   UNL     1       2.715   5.748  17.056  0.00  0.00    +0.000 HD
BRANCH  18  20
ATOM     20  C   UNL     1       3.836   4.094  17.690  0.00  0.00    +0.000 C 
BRANCH  20  21
ATOM     21  C   UNL     1       5.024   4.415  16.815  0.00  0.00    +0.000 A 
ATOM     22  C   UNL     1       5.082   3.923  15.513  0.00  0.00    +0.000 A 
ATOM     23  C   UNL     1       6.193   4.230  14.732  0.00  0.00    +0.000 A 
ATOM     24  C   UNL     1       7.201   5.018  15.268  0.00  0.00    +0.000 A 
ATOM     25  C   UNL     1       7.064   5.469  16.570  0.00  0.00    +0.000 A 
ATOM     26  N   UNL     1       6.002   5.193  17.354  0.00  0.00    +0.000 NA
ENDBRANCH  20  21
ENDBRANCH  18  20
ENDBRANCH   1  17
TORSDOF 4
ENDMDL
MODEL 4
REMARK VINA RESULT:      -8.5      2.589      8.786
REMARK  Name = 
REMARK  4 active torsions:
REMARK  status: ('A' for Active; 'I' for Inactive)
REMARK    1  A    between atoms: C_2  and  C_11
REMARK    2  A    between atoms: N_3  and  C_4
REMARK    3  A    between atoms: C_4  and  C_5
REMARK    4  A    between atoms: C_14  and  N_15
REMARK                            x       y       z     vdW  Elec       q    Type
REMARK                         _______ _______ _______ _____ _____    ______ ____
ROOT
ATOM      1  C   UNL     1       1.840   8.006  19.498  0.00  0.00    +0.000 A 
ATOM      2  C   UNL     1       2.566   8.114  18.313  0.00  0.00    +0.000 A 
ATOM      3  C   UNL     1       3.447   7.107  17.959  0.00  0.00    +0.000 A 
ATOM      4  C   UNL     1       3.595   5.972  18.775  0.00  0.00    +0.000 A 
ATOM      5  C   UNL     1       2.795   5.793  19.904  0.00  0.00    +0.000 A 
ATOM      6  C   UNL     1       1.923   6.833  20.275  0.00  0.00    +0.000 A 
ENDROOT
BRANCH   4   7
ATOM      7  N   UNL     1       4.671   5.115  18.451  0.00  0.00    +0.000 N 
ATOM      8  C   UNL     1       5.737   4.942  19.311  0.00  0.00    +0.000 A 
ATOM      9  N   UNL     1       6.862   4.717  18.679  0.00  0.00    +0.000 NA
ATOM     10  C   UNL     1       6.503   4.663  17.360  0.00  0.00    +0.000 A 
ATOM     11  C   UNL     1       7.340   4.566  16.242  0.00  0.00    +0.000 A 
ATOM     12  C   UNL     1       6.757   4.479  14.977  0.00  0.00    +0.000 A 
ATOM     13  C   UNL     1       5.369   4.459  14.834  0.00  0.00    +0.000 A 
ATOM     14  C   UNL     1       4.512   4.607  15.935  0.00  0.00    +0.000 A 
ATOM     15  C   UNL     1       5.116   4.749  17.192  0.00  0.00    +0.000 A 
ENDBRANCH   4   7
BRANCH   1  17
ATOM     16  O   UNL     1       0.612   9.303  21.024  0.00  0.00    +0.000 OA
ATOM     17  C   UNL     1       1.039   9.196  19.879  0.00  0.00    +0.000 C 
ATOM     18  N   UNL     1       0.734  10.079  18.874  0.00  0.00    +0.000 N 
ATOM     19  H   UNL     1       0.929   9.852  17.907  0.00  0.00    +0.000 HD
BRANCH  18  20
ATOM     20  C   UNL     1      -0.268  11.104  19.087  0.00  0.00    +0.000 C 
BRANCH  20  21
ATOM     21  C   UNL     1      -1.489  10.871  18.229  0.00  0.00    +0.000 A 
ATOM     22  C   UNL     1      -1.448   9.931  17.201  0.00  0.00    +0.000 A 
ATOM     23  C   UNL     1      -2.587   9.744  16.423  0.00  0.00    +0.000 A 
ATOM     24  C   UNL     1      -3.724  10.489  16.696  0.00  0.00    +0.000 A 
ATOM     25  C   UNL     1      -3.683  11.400  17.738  0.00  0.00    +0.000 A 
ATOM     26  N   UNL     1      -2.598  11.606  18.513  0.00  0.00    +0.000 NA
ENDBRANCH  20  21
ENDBRANCH  18  20
ENDBRANCH   1  17
TORSDOF 4
ENDMDL
MODEL 5
REMARK VINA RESULT:      -8.5      2.856      4.220
REMARK  Name = 
REMARK  4 active torsions:
REMARK  status: ('A' for Active; 'I' for Inactive)
REMARK    1  A    between atoms: C_2  and  C_11
REMARK    2  A    between atoms: N_3  and  C_4
REMARK    3  A    between atoms: C_4  and  C_5
REMARK    4  A    between atoms: C_14  and  N_15
REMARK                            x       y       z     vdW  Elec       q    Type
REMARK                         _______ _______ _______ _____ _____    ______ ____
ROOT
ATOM      1  C   UNL     1       2.005   7.822  19.241  0.00  0.00    +0.000 A 
ATOM      2  C   UNL     1       1.907   8.548  18.056  0.00  0.00    +0.000 A 
ATOM      3  C   UNL     1       1.090   9.665  18.006  0.00  0.00    +0.000 A 
ATOM      4  C   UNL     1       0.382  10.079  19.147  0.00  0.00    +0.000 A 
ATOM      5  C   UNL     1       0.555   9.432  20.371  0.00  0.00    +0.000 A 
ATOM      6  C   UNL     1       1.362   8.281  20.408  0.00  0.00    +0.000 A 
ENDROOT
BRANCH   4   7
ATOM      7  N   UNL     1      -0.588  11.085  18.939  0.00  0.00    +0.000 N 
ATOM      8  C   UNL     1      -0.802  12.082  19.870  0.00  0.00    +0.000 A 
ATOM      9  N   UNL     1      -2.047  12.485  19.899  0.00  0.00    +0.000 NA
ATOM     10  C   UNL     1      -2.654  11.781  18.895  0.00  0.00    +0.000 A 
ATOM     11  C   UNL     1      -4.015  11.739  18.571  0.00  0.00    +0.000 A 
ATOM     12  C   UNL     1      -4.416  10.982  17.470  0.00  0.00    +0.000 A 
ATOM     13  C   UNL     1      -3.476  10.307  16.690  0.00  0.00    +0.000 A 
ATOM     14  C   UNL     1      -2.113  10.293  17.027  0.00  0.00    +0.000 A 
ATOM     15  C   UNL     1      -1.737  11.013  18.169  0.00  0.00    +0.000 A 
ENDBRANCH   4   7
BRANCH   1  17
ATOM     16  O   UNL     1       2.982   5.904  20.182  0.00  0.00    +0.000 OA
ATOM     17  C   UNL     1       2.774   6.555  19.164  0.00  0.00    +0.000 C 
ATOM     18  N   UNL     1       3.305   6.232  17.940  0.00  0.00    +0.000 N 
ATOM     19  H   UNL     1       3.285   6.894  17.175  0.00  0.00    +0.000 HD
BRANCH  18  20
ATOM     20  C   UNL     1       4.296   5.180  17.833  0.00  0.00    +0.000 C 
BRANCH  20  21
ATOM     21  C   UNL     1       5.684   5.696  18.128  0.00  0.00    +0.000 A 
ATOM     22  C   UNL     1       6.235   6.702  17.338  0.00  0.00    +0.000 A 
ATOM     23  C   UNL     1       7.520   7.152  17.630  0.00  0.00    +0.000 A 
ATOM     24  C   UNL     1       8.207   6.593  18.698  0.00  0.00    +0.000 A 
ATOM     25  C   UNL     1       7.586   5.600  19.436  0.00  0.00    +0.000 A 
ATOM     26  N   UNL     1       6.342   5.141  19.182  0.00  0.00    +0.000 NA
ENDBRANCH  20  21
ENDBRANCH  18  20
ENDBRANCH   1  17
TORSDOF 4
ENDMDL
MODEL 6
REMARK VINA RESULT:      -8.4      2.489      3.791
REMARK  Name = 
REMARK  4 active torsions:
REMARK  status: ('A' for Active; 'I' for Inactive)
REMARK    1  A    between atoms: C_2  and  C_11
REMARK    2  A    between atoms: N_3  and  C_4
REMARK    3  A    between atoms: C_4  and  C_5
REMARK    4  A    between atoms: C_14  and  N_15
REMARK                            x       y       z     vdW  Elec       q    Type
REMARK                         _______ _______ _______ _____ _____    ______ ____
ROOT
ATOM      1  C   UNL     1       1.814   7.627  19.895  0.00  0.00    +0.000 A 
ATOM      2  C   UNL     1       1.947   8.344  18.707  0.00  0.00    +0.000 A 
ATOM      3  C   UNL     1       1.187   9.485  18.511  0.00  0.00    +0.000 A 
ATOM      4  C   UNL     1       0.305   9.932  19.509  0.00  0.00    +0.000 A 
ATOM      5  C   UNL     1       0.242   9.293  20.748  0.00  0.00    +0.000 A 
ATOM      6  C   UNL     1       0.994   8.118  20.930  0.00  0.00    +0.000 A 
ENDROOT
BRANCH   4   7
ATOM      7  N   UNL     1      -0.582  10.965  19.131  0.00  0.00    +0.000 N 
ATOM      8  C   UNL     1      -0.817  12.049  19.954  0.00  0.00    +0.000 A 
ATOM      9  N   UNL     1      -2.034  12.516  19.834  0.00  0.00    +0.000 NA
ATOM     10  C   UNL     1      -2.591  11.760  18.839  0.00  0.00    +0.000 A 
ATOM     11  C   UNL     1      -3.918  11.760  18.395  0.00  0.00    +0.000 A 
ATOM     12  C   UNL     1      -4.265  10.933  17.326  0.00  0.00    +0.000 A 
ATOM     13  C   UNL     1      -3.301  10.145  16.695  0.00  0.00    +0.000 A 
ATOM     14  C   UNL     1      -1.977  10.089  17.156  0.00  0.00    +0.000 A 
ATOM     15  C   UNL     1      -1.661  10.885  18.266  0.00  0.00    +0.000 A 
ENDBRANCH   4   7
BRANCH   1  17
ATOM     16  O   UNL     1       2.258   5.516  20.823  0.00  0.00    +0.000 OA
ATOM     17  C   UNL     1       2.545   6.337  19.958  0.00  0.00    +0.000 C 
ATOM     18  N   UNL     1       3.591   6.179  19.085  0.00  0.00    +0.000 N 
ATOM     19  H   UNL     1       3.925   6.957  18.529  0.00  0.00    +0.000 HD
BRANCH  18  20
ATOM     20  C   UNL     1       4.529   5.088  19.263  0.00  0.00    +0.000 C 
BRANCH  20  21
ATOM     21  C   UNL     1       5.420   4.923  18.056  0.00  0.00    +0.000 A 
ATOM     22  C   UNL     1       4.896   5.087  16.776  0.00  0.00    +0.000 A 
ATOM     23  C   UNL     1       5.742   4.921  15.682  0.00  0.00    +0.000 A 
ATOM     24  C   UNL     1       7.074   4.605  15.898  0.00  0.00    +0.000 A 
ATOM     25  C   UNL     1       7.517   4.463  17.203  0.00  0.00    +0.000 A 
ATOM     26  N   UNL     1       6.726   4.618  18.286  0.00  0.00    +0.000 NA
ENDBRANCH  20  21
ENDBRANCH  18  20
ENDBRANCH   1  17
TORSDOF 4
ENDMDL
MODEL 7
REMARK VINA RESULT:      -8.3      2.078      3.276
REMARK  Name = 
REMARK  4 active torsions:
REMARK  status: ('A' for Active; 'I' for Inactive)
REMARK    1  A    between atoms: C_2  and  C_11
REMARK    2  A    between atoms: N_3  and  C_4
REMARK    3  A    between atoms: C_4  and  C_5
REMARK    4  A    between atoms: C_14  and  N_15
REMARK                            x       y       z     vdW  Elec       q    Type
REMARK                         _______ _______ _______ _____ _____    ______ ____
ROOT
ATOM      1  C   UNL     1       2.280   7.047  19.385  0.00  0.00    +0.000 A 
ATOM      2  C   UNL     1       2.345   7.778  18.200  0.00  0.00    +0.000 A 
ATOM      3  C   UNL     1       1.754   9.028  18.136  0.00  0.00    +0.000 A 
ATOM      4  C   UNL     1       1.112   9.569  19.263  0.00  0.00    +0.000 A 
ATOM      5  C   UNL     1       1.135   8.903  20.489  0.00  0.00    +0.000 A 
ATOM      6  C   UNL     1       1.711   7.620  20.540  0.00  0.00    +0.000 A 
ENDROOT
BRANCH   4   7
ATOM      7  N   UNL     1       0.352  10.739  19.037  0.00  0.00    +0.000 N 
ATOM      8  C   UNL     1       0.542  11.878  19.795  0.00  0.00    +0.000 A 
ATOM      9  N   UNL     1      -0.559  12.567  19.953  0.00  0.00    +0.000 NA
ATOM     10  C   UNL     1      -1.488  11.896  19.206  0.00  0.00    +0.000 A 
ATOM     11  C   UNL     1      -2.864  12.136  19.120  0.00  0.00    +0.000 A 
ATOM     12  C   UNL     1      -3.627  11.352  18.254  0.00  0.00    +0.000 A 
ATOM     13  C   UNL     1      -3.024  10.370  17.467  0.00  0.00    +0.000 A 
ATOM     14  C   UNL     1      -1.655  10.076  17.574  0.00  0.00    +0.000 A 
ATOM     15  C   UNL     1      -0.916  10.837  18.491  0.00  0.00    +0.000 A 
ENDBRANCH   4   7
BRANCH   1  17
ATOM     16  O   UNL     1       3.175   5.100  20.346  0.00  0.00    +0.000 OA
ATOM     17  C   UNL     1       2.800   5.659  19.320  0.00  0.00    +0.000 C 
ATOM     18  N   UNL     1       2.924   5.106  18.070  0.00  0.00    +0.000 N 
ATOM     19  H   UNL     1       2.797   5.670  17.239  0.00  0.00    +0.000 HD
BRANCH  18  20
ATOM     20  C   UNL     1       3.678   3.882  17.889  0.00  0.00    +0.000 C 
BRANCH  20  21
ATOM     21  C   UNL     1       5.032   4.153  17.279  0.00  0.00    +0.000 A 
ATOM     22  C   UNL     1       6.115   4.466  18.099  0.00  0.00    +0.000 A 
ATOM     23  C   UNL     1       7.349   4.717  17.508  0.00  0.00    +0.000 A 
ATOM     24  C   UNL     1       7.467   4.642  16.128  0.00  0.00    +0.000 A 
ATOM     25  C   UNL     1       6.343   4.321  15.385  0.00  0.00    +0.000 A 
ATOM     26  N   UNL     1       5.132   4.071  15.925  0.00  0.00    +0.000 NA
ENDBRANCH  20  21
ENDBRANCH  18  20
ENDBRANCH   1  17
TORSDOF 4
ENDMDL
MODEL 8
REMARK VINA RESULT:      -8.3      2.955      8.876
REMARK  Name = 
REMARK  4 active torsions:
REMARK  status: ('A' for Active; 'I' for Inactive)
REMARK    1  A    between atoms: C_2  and  C_11
REMARK    2  A    between atoms: N_3  and  C_4
REMARK    3  A    between atoms: C_4  and  C_5
REMARK    4  A    between atoms: C_14  and  N_15
REMARK                            x       y       z     vdW  Elec       q    Type
REMARK                         _______ _______ _______ _____ _____    ______ ____
ROOT
ATOM      1  C   UNL     1       1.437   8.619  19.403  0.00  0.00    +0.000 A 
ATOM      2  C   UNL     1       1.757   7.623  20.324  0.00  0.00    +0.000 A 
ATOM      3  C   UNL     1       2.681   6.650  19.983  0.00  0.00    +0.000 A 
ATOM      4  C   UNL     1       3.310   6.676  18.726  0.00  0.00    +0.000 A 
ATOM      5  C   UNL     1       3.087   7.727  17.836  0.00  0.00    +0.000 A 
ATOM      6  C   UNL     1       2.125   8.696  18.176  0.00  0.00    +0.000 A 
ENDROOT
BRANCH   4   7
ATOM      7  N   UNL     1       4.059   5.528  18.388  0.00  0.00    +0.000 N 
ATOM      8  C   UNL     1       4.516   4.655  19.356  0.00  0.00    +0.000 A 
ATOM      9  N   UNL     1       5.653   4.094  19.032  0.00  0.00    +0.000 NA
ATOM     10  C   UNL     1       5.911   4.556  17.771  0.00  0.00    +0.000 A 
ATOM     11  C   UNL     1       7.063   4.364  17.000  0.00  0.00    +0.000 A 
ATOM     12  C   UNL     1       7.099   4.891  15.708  0.00  0.00    +0.000 A 
ATOM     13  C   UNL     1       5.996   5.569  15.186  0.00  0.00    +0.000 A 
ATOM     14  C   UNL     1       4.851   5.819  15.959  0.00  0.00    +0.000 A 
ATOM     15  C   UNL     1       4.856   5.330  17.273  0.00  0.00    +0.000 A 
ENDBRANCH   4   7
BRANCH   1  17
ATOM     16  O   UNL     1      -0.214   9.397  20.882  0.00  0.00    +0.000 OA
ATOM     17  C   UNL     1       0.328   9.526  19.789  0.00  0.00    +0.000 C 
ATOM     18  N   UNL     1      -0.101  10.414  18.834  0.00  0.00    +0.000 N 
ATOM     19  H   UNL     1       0.233  10.351  17.880  0.00  0.00    +0.000 HD
BRANCH  18  20
ATOM     20  C   UNL     1      -1.347  11.132  19.017  0.00  0.00    +0.000 C 
BRANCH  20  21
ATOM     21  C   UNL     1      -2.278  10.929  17.846  0.00  0.00    +0.000 A 
ATOM     22  C   UNL     1      -1.950  10.017  16.845  0.00  0.00    +0.000 A 
ATOM     23  C   UNL     1      -2.826   9.857  15.775  0.00  0.00    +0.000 A 
ATOM     24  C   UNL     1      -3.995  10.602  15.739  0.00  0.00    +0.000 A 
ATOM     25  C   UNL     1      -4.248  11.485  16.775  0.00  0.00    +0.000 A 
ATOM     26  N   UNL     1      -3.423  11.664  17.828  0.00  0.00    +0.000 NA
ENDBRANCH  20  21
ENDBRANCH  18  20
ENDBRANCH   1  17
TORSDOF 4
ENDMDL
MODEL 9
REMARK VINA RESULT:      -8.3      0.980      2.048
REMARK  Name = 
REMARK  4 active torsions:
REMARK  status: ('A' for Active; 'I' for Inactive)
REMARK    1  A    between atoms: C_2  and  C_11
REMARK    2  A    between atoms: N_3  and  C_4
REMARK    3  A    between atoms: C_4  and  C_5
REMARK    4  A    between atoms: C_14  and  N_15
REMARK                            x       y       z     vdW  Elec       q    Type
REMARK                         _______ _______ _______ _____ _____    ______ ____
ROOT
ATOM      1  C   UNL     1       3.704   6.208  17.952  0.00  0.00    +0.000 A 
ATOM      2  C   UNL     1       3.164   5.851  19.186  0.00  0.00    +0.000 A 
ATOM      3  C   UNL     1       2.346   6.744  19.857  0.00  0.00    +0.000 A 
ATOM      4  C   UNL     1       2.044   7.994  19.290  0.00  0.00    +0.000 A 
ATOM      5  C   UNL     1       2.482   8.324  18.007  0.00  0.00    +0.000 A 
ATOM      6  C   UNL     1       3.336   7.425  17.343  0.00  0.00    +0.000 A 
ENDROOT
BRANCH   4   7
ATOM      7  N   UNL     1       1.393   8.915  20.141  0.00  0.00    +0.000 N 
ATOM      8  C   UNL     1       0.708   8.497  21.265  0.00  0.00    +0.000 A 
ATOM      9  N   UNL     1      -0.319   9.261  21.542  0.00  0.00    +0.000 NA
ATOM     10  C   UNL     1      -0.256  10.262  20.612  0.00  0.00    +0.000 A 
ATOM     11  C   UNL     1      -1.185  11.282  20.378  0.00  0.00    +0.000 A 
ATOM     12  C   UNL     1      -0.900  12.234  19.398  0.00  0.00    +0.000 A 
ATOM     13  C   UNL     1       0.301  12.186  18.689  0.00  0.00    +0.000 A 
ATOM     14  C   UNL     1       1.223  11.144  18.869  0.00  0.00    +0.000 A 
ATOM     15  C   UNL     1       0.893  10.166  19.818  0.00  0.00    +0.000 A 
ENDBRANCH   4   7
BRANCH   1  17
ATOM     16  O   UNL     1       4.612   4.065  17.640  0.00  0.00    +0.000 OA
ATOM     17  C   UNL     1       4.690   5.260  17.377  0.00  0.00    +0.000 C 
ATOM     18  N   UNL     1       5.716   5.807  16.647  0.00  0.00    +0.000 N 
ATOM     19  H   UNL     1       5.860   6.809  16.624  0.00  0.00    +0.000 HD
BRANCH  18  20
ATOM     20  C   UNL     1       6.866   5.000  16.293  0.00  0.00    +0.000 C 
BRANCH  20  21
ATOM     21  C   UNL     1       6.933   4.756  14.804  0.00  0.00    +0.000 A 
ATOM     22  C   UNL     1       6.094   3.814  14.215  0.00  0.00    +0.000 A 
ATOM     23  C   UNL     1       6.184   3.606  12.841  0.00  0.00    +0.000 A 
ATOM     24  C   UNL     1       7.096   4.344  12.103  0.00  0.00    +0.000 A 
ATOM     25  C   UNL     1       7.892   5.264  12.765  0.00  0.00    +0.000 A 
ATOM     26  N   UNL     1       7.831   5.492  14.094  0.00  0.00    +0.000 NA
ENDBRANCH  20  21
ENDBRANCH  18  20
ENDBRANCH   1  17
TORSDOF 4
ENDMDL
