MODEL 1
REMARK VINA RESULT:      -8.5      0.000      0.000
REMARK  Name = 
REMARK  5 active torsions:
REMARK  status: ('A' for Active; 'I' for Inactive)
REMARK    1  A    between atoms: C_1  and  C_2
REMARK    2  A    between atoms: C_10  and  S_11
REMARK    3  A    between atoms: S_11  and  N_14
REMARK    4  A    between atoms: N_14  and  C_15
REMARK    5  A    between atoms: C_21  and  C_22
REMARK                            x       y       z     vdW  Elec       q    Type
REMARK                         _______ _______ _______ _____ _____    ______ ____
ROOT
ATOM      1  S   UNL     1       0.873   8.943  21.089  0.00  0.00    +0.000 S 
ATOM      2  O   UNL     1      -0.473   8.427  21.191  0.00  0.00    +0.000 OA
ATOM      3  O   UNL     1       1.725   9.064  22.255  0.00  0.00    +0.000 OA
ENDROOT
BRANCH   1  13
ATOM      4  C   UNL     1       2.113   3.782  21.518  0.00  0.00    +0.000 C 
ATOM      5  C   UNL     1       2.922   3.497  20.284  0.00  0.00    +0.000 C 
ATOM      6  O   UNL     1       3.378   2.360  20.114  0.00  0.00    +0.000 OA
ATOM      7  N   UNL     1       3.130   4.492  19.355  0.00  0.00    +0.000 N 
ATOM      8  C   UNL     1       3.833   4.162  18.105  0.00  0.00    +0.000 C 
ATOM      9  C   UNL     1       4.006   5.456  17.311  0.00  0.00    +0.000 C 
ATOM     10  C   UNL     1       3.183   6.419  18.111  0.00  0.00    +0.000 A 
ATOM     11  C   UNL     1       2.920   7.746  17.789  0.00  0.00    +0.000 A 
ATOM     12  C   UNL     1       2.194   8.516  18.695  0.00  0.00    +0.000 A 
ATOM     13  C   UNL     1       1.754   7.944  19.899  0.00  0.00    +0.000 A 
ATOM     14  C   UNL     1       2.037   6.608  20.219  0.00  0.00    +0.000 A 
ATOM     15  C   UNL     1       2.738   5.841  19.307  0.00  0.00    +0.000 A 
ENDBRANCH   1  13
BRANCH   1  16
ATOM     16  N   UNL     1       0.836  10.476  20.372  0.00  0.00    +0.000 N 
ATOM     17  H   UNL     1       1.666  10.654  19.810  0.00  0.00    +0.000 HD
BRANCH  16  18
ATOM     18  C   UNL     1      -0.406  10.967  19.885  0.00  0.00    +0.000 A 
ATOM     19  C   UNL     1      -1.172  11.813  20.693  0.00  0.00    +0.000 A 
ATOM     20  C   UNL     1      -2.434  12.258  20.279  0.00  0.00    +0.000 A 
ATOM     21  C   UNL     1      -2.889  11.774  19.055  0.00  0.00    +0.000 A 
ATOM     22  O   UNL     1      -4.099  12.045  18.495  0.00  0.00    +0.000 OA
ATOM     23  C   UNL     1      -4.159  11.357  17.326  0.00  0.00    +0.000 A 
ATOM     24  C   UNL     1      -2.996  10.645  17.109  0.00  0.00    +0.000 A 
ATOM     25  C   UNL     1      -2.679   9.765  15.959  0.00  0.00    +0.000 C 
ATOM     26  C   UNL     1      -2.162  10.923  18.232  0.00  0.00    +0.000 A 
ATOM     27  C   UNL     1      -0.877  10.527  18.643  0.00  0.00    +0.000 A 
ENDBRANCH  16  18
ENDBRANCH   1  16
TORSDOF 3
ENDMDL
MODEL 2
REMARK VINA RESULT:      -8.1      2.865      4.618
REMARK  Name = 
REMARK  5 active torsions:
REMARK  status: ('A' for Active; 'I' for Inactive)
REMARK    1  A    between atoms: C_1  and  C_2
REMARK    2  A    between atoms: C_10  and  S_11
REMARK    3  A    between atoms: S_11  and  N_14
REMARK    4  A    between atoms: N_14  and  C_15
REMARK    5  A    between atoms: C_21  and  C_22
REMARK                            x       y       z     vdW  Elec       q    Type
REMARK                         _______ _______ _______ _____ _____    ______ ____
ROOT
ATOM      1  S   UNL     1       1.876   4.551  20.653  0.00  0.00    +0.000 S 
ATOM      2  O   UNL     1       0.465   4.645  20.353  0.00  0.00    +0.000 OA
ATOM      3  O   UNL     1       2.376   3.612  21.637  0.00  0.00    +0.000 OA
ENDROOT
BRANCH   1  13
ATOM      4  C   UNL     1       7.006   5.507  19.591  0.00  0.00    +0.000 C 
ATOM      5  C   UNL     1       7.158   5.120  18.147  0.00  0.00    +0.000 C 
ATOM      6  O   UNL     1       8.259   5.256  17.602  0.00  0.00    +0.000 OA
ATOM      7  N   UNL     1       6.082   4.605  17.457  0.00  0.00    +0.000 N 
ATOM      8  C   UNL     1       6.283   4.134  16.078  0.00  0.00    +0.000 C 
ATOM      9  C   UNL     1       4.922   3.707  15.528  0.00  0.00    +0.000 C 
ATOM     10  C   UNL     1       4.059   3.788  16.751  0.00  0.00    +0.000 A 
ATOM     11  C   UNL     1       2.720   3.422  16.841  0.00  0.00    +0.000 A 
ATOM     12  C   UNL     1       2.054   3.639  18.047  0.00  0.00    +0.000 A 
ATOM     13  C   UNL     1       2.740   4.218  19.126  0.00  0.00    +0.000 A 
ATOM     14  C   UNL     1       4.087   4.595  19.018  0.00  0.00    +0.000 A 
ATOM     15  C   UNL     1       4.749   4.358  17.827  0.00  0.00    +0.000 A 
ENDBRANCH   1  13
BRANCH   1  16
ATOM     16  N   UNL     1       2.456   6.072  21.116  0.00  0.00    +0.000 N 
ATOM     17  H   UNL     1       3.466   6.072  21.243  0.00  0.00    +0.000 HD
BRANCH  16  18
ATOM     18  C   UNL     1       1.866   7.228  20.535  0.00  0.00    +0.000 A 
ATOM     19  C   UNL     1       2.191   7.576  19.221  0.00  0.00    +0.000 A 
ATOM     20  C   UNL     1       1.687   8.746  18.639  0.00  0.00    +0.000 A 
ATOM     21  C   UNL     1       0.897   9.551  19.455  0.00  0.00    +0.000 A 
ATOM     22  O   UNL     1       0.351  10.746  19.101  0.00  0.00    +0.000 OA
ATOM     23  C   UNL     1      -0.316  11.216  20.187  0.00  0.00    +0.000 A 
ATOM     24  C   UNL     1      -0.220  10.336  21.247  0.00  0.00    +0.000 A 
ATOM     25  C   UNL     1      -0.797  10.492  22.603  0.00  0.00    +0.000 C 
ATOM     26  C   UNL     1       0.563   9.244  20.768  0.00  0.00    +0.000 A 
ATOM     27  C   UNL     1       1.038   8.040  21.318  0.00  0.00    +0.000 A 
ENDBRANCH  16  18
ENDBRANCH   1  16
TORSDOF 3
ENDMDL
MODEL 3
REMARK VINA RESULT:      -7.9      0.768      1.761
REMARK  Name = 
REMARK  5 active torsions:
REMARK  status: ('A' for Active; 'I' for Inactive)
REMARK    1  A    between atoms: C_1  and  C_2
REMARK    2  A    between atoms: C_10  and  S_11
REMARK    3  A    between atoms: S_11  and  N_14
REMARK    4  A    between atoms: N_14  and  C_15
REMARK    5  A    between atoms: C_21  and  C_22
REMARK                            x       y       z     vdW  Elec       q    Type
REMARK                         _______ _______ _______ _____ _____    ______ ____
ROOT
ATOM      1  S   UNL     1       0.844   9.088  20.934  0.00  0.00    +0.000 S 
ATOM      2  O   UNL     1      -0.408   8.417  21.203  0.00  0.00    +0.000 OA
ATOM      3  O   UNL     1       1.749   9.454  22.006  0.00  0.00    +0.000 OA
ENDROOT
BRANCH   1  13
ATOM      4  C   UNL     1       2.069   3.931  21.454  0.00  0.00    +0.000 C 
ATOM      5  C   UNL     1       2.926   3.637  20.255  0.00  0.00    +0.000 C 
ATOM      6  O   UNL     1       3.388   2.500  20.112  0.00  0.00    +0.000 OA
ATOM      7  N   UNL     1       3.169   4.626  19.326  0.00  0.00    +0.000 N 
ATOM      8  C   UNL     1       3.921   4.285  18.108  0.00  0.00    +0.000 C 
ATOM      9  C   UNL     1       4.124   5.573  17.310  0.00  0.00    +0.000 C 
ATOM     10  C   UNL     1       3.269   6.542  18.069  0.00  0.00    +0.000 A 
ATOM     11  C   UNL     1       3.019   7.866  17.726  0.00  0.00    +0.000 A 
ATOM     12  C   UNL     1       2.257   8.643  18.598  0.00  0.00    +0.000 A 
ATOM     13  C   UNL     1       1.770   8.080  19.788  0.00  0.00    +0.000 A 
ATOM     14  C   UNL     1       2.042   6.747  20.130  0.00  0.00    +0.000 A 
ATOM     15  C   UNL     1       2.779   5.973  19.252  0.00  0.00    +0.000 A 
ENDBRANCH   1  13
BRANCH   1  16
ATOM     16  N   UNL     1       0.546  10.509  20.065  0.00  0.00    +0.000 N 
ATOM     17  H   UNL     1       1.379  10.845  19.587  0.00  0.00    +0.000 HD
BRANCH  16  18
ATOM     18  C   UNL     1      -0.698  10.643  19.391  0.00  0.00    +0.000 A 
ATOM     19  C   UNL     1      -0.852  10.083  18.119  0.00  0.00    +0.000 A 
ATOM     20  C   UNL     1      -2.038  10.256  17.393  0.00  0.00    +0.000 A 
ATOM     21  C   UNL     1      -3.017  11.047  17.988  0.00  0.00    +0.000 A 
ATOM     22  O   UNL     1      -4.215  11.377  17.435  0.00  0.00    +0.000 OA
ATOM     23  C   UNL     1      -4.855  12.182  18.322  0.00  0.00    +0.000 A 
ATOM     24  C   UNL     1      -4.091  12.376  19.455  0.00  0.00    +0.000 A 
ATOM     25  C   UNL     1      -4.431  13.198  20.641  0.00  0.00    +0.000 C 
ATOM     26  C   UNL     1      -2.895  11.629  19.244  0.00  0.00    +0.000 A 
ATOM     27  C   UNL     1      -1.716  11.404  19.977  0.00  0.00    +0.000 A 
ENDBRANCH  16  18
ENDBRANCH   1  16
TORSDOF 3
ENDMDL
MODEL 4
REMARK VINA RESULT:      -7.7      3.007      7.989
REMARK  Name = 
REMARK  5 active torsions:
REMARK  status: ('A' for Active; 'I' for Inactive)
REMARK    1  A    between atoms: C_1  and  C_2
REMARK    2  A    between atoms: C_10  and  S_11
REMARK    3  A    between atoms: S_11  and  N_14
REMARK    4  A    between atoms: N_14  and  C_15
REMARK    5  A    between atoms: C_21  and  C_22
REMARK                            x       y       z     vdW  Elec       q    Type
REMARK                         _______ _______ _______ _____ _____    ______ ____
ROOT
ATOM      1  S   UNL     1       2.037   4.848  20.140  0.00  0.00    +0.000 S 
ATOM      2  O   UNL     1       3.053   4.777  21.165  0.00  0.00    +0.000 OA
ATOM      3  O   UNL     1       0.671   4.438  20.402  0.00  0.00    +0.000 OA
ENDROOT
BRANCH   1  13
ATOM      4  C   UNL     1       0.365   9.137  22.817  0.00  0.00    +0.000 C 
ATOM      5  C   UNL     1       0.443  10.250  21.810  0.00  0.00    +0.000 C 
ATOM      6  O   UNL     1       0.090  11.387  22.143  0.00  0.00    +0.000 OA
ATOM      7  N   UNL     1       0.922   9.996  20.543  0.00  0.00    +0.000 N 
ATOM      8  C   UNL     1       1.090  11.121  19.610  0.00  0.00    +0.000 C 
ATOM      9  C   UNL     1       1.540  10.548  18.266  0.00  0.00    +0.000 C 
ATOM     10  C   UNL     1       1.790   9.112  18.613  0.00  0.00    +0.000 A 
ATOM     11  C   UNL     1       2.303   8.136  17.766  0.00  0.00    +0.000 A 
ATOM     12  C   UNL     1       2.397   6.829  18.242  0.00  0.00    +0.000 A 
ATOM     13  C   UNL     1       1.973   6.531  19.546  0.00  0.00    +0.000 A 
ATOM     14  C   UNL     1       1.444   7.522  20.387  0.00  0.00    +0.000 A 
ATOM     15  C   UNL     1       1.374   8.821  19.918  0.00  0.00    +0.000 A 
ENDBRANCH   1  13
BRANCH   1  16
ATOM     16  N   UNL     1       2.540   3.967  18.785  0.00  0.00    +0.000 N 
ATOM     17  H   UNL     1       1.803   3.884  18.089  0.00  0.00    +0.000 HD
BRANCH  16  18
ATOM     18  C   UNL     1       3.870   4.146  18.316  0.00  0.00    +0.000 A 
ATOM     19  C   UNL     1       4.869   4.528  19.218  0.00  0.00    +0.000 A 
ATOM     20  C   UNL     1       6.175   4.785  18.781  0.00  0.00    +0.000 A 
ATOM     21  C   UNL     1       6.400   4.685  17.411  0.00  0.00    +0.000 A 
ATOM     22  O   UNL     1       7.577   4.938  16.779  0.00  0.00    +0.000 OA
ATOM     23  C   UNL     1       7.364   4.755  15.451  0.00  0.00    +0.000 A 
ATOM     24  C   UNL     1       6.059   4.376  15.206  0.00  0.00    +0.000 A 
ATOM     25  C   UNL     1       5.433   4.096  13.892  0.00  0.00    +0.000 C 
ATOM     26  C   UNL     1       5.430   4.321  16.485  0.00  0.00    +0.000 A 
ATOM     27  C   UNL     1       4.137   4.019  16.948  0.00  0.00    +0.000 A 
ENDBRANCH  16  18
ENDBRANCH   1  16
TORSDOF 3
ENDMDL
MODEL 5
REMARK VINA RESULT:      -7.7      2.906      8.080
REMARK  Name = 
REMARK  5 active torsions:
REMARK  status: ('A' for Active; 'I' for Inactive)
REMARK    1  A    between atoms: C_1  and  C_2
REMARK    2  A    between atoms: C_10  and  S_11
REMARK    3  A    between atoms: S_11  and  N_14
REMARK    4  A    between atoms: N_14  and  C_15
REMARK    5  A    between atoms: C_21  and  C_22
REMARK                            x       y       z     vdW  Elec       q    Type
REMARK                         _______ _______ _______ _____ _____    ______ ____
ROOT
ATOM      1  S   UNL     1       2.717   5.720  19.544  0.00  0.00    +0.000 S 
ATOM      2  O   UNL     1       4.009   5.781  20.188  0.00  0.00    +0.000 OA
ATOM      3  O   UNL     1       1.606   5.011  20.148  0.00  0.00    +0.000 OA
ENDROOT
BRANCH   1  13
ATOM      4  C   UNL     1       0.555   9.065  23.078  0.00  0.00    +0.000 C 
ATOM      5  C   UNL     1       0.211  10.282  22.265  0.00  0.00    +0.000 C 
ATOM      6  O   UNL     1      -0.337  11.241  22.822  0.00  0.00    +0.000 OA
ATOM      7  N   UNL     1       0.524  10.323  20.924  0.00  0.00    +0.000 N 
ATOM      8  C   UNL     1       0.276  11.565  20.175  0.00  0.00    +0.000 C 
ATOM      9  C   UNL     1       0.623  11.303  18.710  0.00  0.00    +0.000 C 
ATOM     10  C   UNL     1       1.251   9.944  18.782  0.00  0.00    +0.000 A 
ATOM     11  C   UNL     1       1.832   9.247  17.729  0.00  0.00    +0.000 A 
ATOM     12  C   UNL     1       2.300   7.955  17.968  0.00  0.00    +0.000 A 
ATOM     13  C   UNL     1       2.172   7.394  19.248  0.00  0.00    +0.000 A 
ATOM     14  C   UNL     1       1.571   8.103  20.299  0.00  0.00    +0.000 A 
ATOM     15  C   UNL     1       1.128   9.392  20.063  0.00  0.00    +0.000 A 
ENDBRANCH   1  13
BRANCH   1  16
ATOM     16  N   UNL     1       2.893   5.077  17.988  0.00  0.00    +0.000 N 
ATOM     17  H   UNL     1       2.070   5.241  17.412  0.00  0.00    +0.000 HD
BRANCH  16  18
ATOM     18  C   UNL     1       4.165   5.167  17.358  0.00  0.00    +0.000 A 
ATOM     19  C   UNL     1       5.165   5.950  17.942  0.00  0.00    +0.000 A 
ATOM     20  C   UNL     1       6.406   6.122  17.315  0.00  0.00    +0.000 A 
ATOM     21  C   UNL     1       6.559   5.514  16.072  0.00  0.00    +0.000 A 
ATOM     22  O   UNL     1       7.662   5.594  15.280  0.00  0.00    +0.000 OA
ATOM     23  C   UNL     1       7.393   4.891  14.150  0.00  0.00    +0.000 A 
ATOM     24  C   UNL     1       6.127   4.342  14.197  0.00  0.00    +0.000 A 
ATOM     25  C   UNL     1       5.461   3.521  13.158  0.00  0.00    +0.000 C 
ATOM     26  C   UNL     1       5.584   4.739  15.455  0.00  0.00    +0.000 A 
ATOM     27  C   UNL     1       4.363   4.538  16.123  0.00  0.00    +0.000 A 
ENDBRANCH  16  18
ENDBRANCH   1  16
TORSDOF 3
ENDMDL
MODEL 6
REMARK VINA RESULT:      -7.7      1.134      2.506
REMARK  Name = 
REMARK  5 active torsions:
REMARK  status: ('A' for Active; 'I' for Inactive)
REMARK    1  A    between atoms: C_1  and  C_2
REMARK    2  A    between atoms: C_10  and  S_11
REMARK    3  A    between atoms: S_11  and  N_14
REMARK    4  A    between atoms: N_14  and  C_15
REMARK    5  A    between atoms: C_21  and  C_22
REMARK                            x       y       z     vdW  Elec       q    Type
REMARK                         _______ _______ _______ _____ _____    ______ ____
ROOT
ATOM      1  S   UNL     1       0.862   8.903  21.213  0.00  0.00    +0.000 S 
ATOM      2  O   UNL     1      -0.468   8.357  21.352  0.00  0.00    +0.000 OA
ATOM      3  O   UNL     1       1.746   9.036  22.355  0.00  0.00    +0.000 OA
ENDROOT
BRANCH   1  13
ATOM      4  C   UNL     1       2.160   3.748  21.539  0.00  0.00    +0.000 C 
ATOM      5  C   UNL     1       2.948   3.490  20.286  0.00  0.00    +0.000 C 
ATOM      6  O   UNL     1       3.411   2.361  20.089  0.00  0.00    +0.000 OA
ATOM      7  N   UNL     1       3.128   4.502  19.368  0.00  0.00    +0.000 N 
ATOM      8  C   UNL     1       3.810   4.197  18.100  0.00  0.00    +0.000 C 
ATOM      9  C   UNL     1       3.955   5.505  17.322  0.00  0.00    +0.000 C 
ATOM     10  C   UNL     1       3.138   6.447  18.153  0.00  0.00    +0.000 A 
ATOM     11  C   UNL     1       2.857   7.776  17.856  0.00  0.00    +0.000 A 
ATOM     12  C   UNL     1       2.141   8.526  18.788  0.00  0.00    +0.000 A 
ATOM     13  C   UNL     1       1.729   7.931  19.991  0.00  0.00    +0.000 A 
ATOM     14  C   UNL     1       2.031   6.593  20.285  0.00  0.00    +0.000 A 
ATOM     15  C   UNL     1       2.722   5.847  19.348  0.00  0.00    +0.000 A 
ENDBRANCH   1  13
BRANCH   1  16
ATOM     16  N   UNL     1       0.771  10.439  20.508  0.00  0.00    +0.000 N 
ATOM     17  H   UNL     1       1.401  10.533  19.714  0.00  0.00    +0.000 HD
BRANCH  16  18
ATOM     18  C   UNL     1      -0.501  11.068  20.417  0.00  0.00    +0.000 A 
ATOM     19  C   UNL     1      -1.157  11.109  19.183  0.00  0.00    +0.000 A 
ATOM     20  C   UNL     1      -2.377  11.782  19.037  0.00  0.00    +0.000 A 
ATOM     21  C   UNL     1      -2.861  12.437  20.166  0.00  0.00    +0.000 A 
ATOM     22  O   UNL     1      -3.997  13.183  20.226  0.00  0.00    +0.000 OA
ATOM     23  C   UNL     1      -4.089  13.668  21.490  0.00  0.00    +0.000 A 
ATOM     24  C   UNL     1      -3.029  13.239  22.264  0.00  0.00    +0.000 A 
ATOM     25  C   UNL     1      -2.763  13.561  23.686  0.00  0.00    +0.000 C 
ATOM     26  C   UNL     1      -2.231  12.428  21.405  0.00  0.00    +0.000 A 
ATOM     27  C   UNL     1      -1.032  11.706  21.544  0.00  0.00    +0.000 A 
ENDBRANCH  16  18
ENDBRANCH   1  16
TORSDOF 3
ENDMDL
MODEL 7
REMARK VINA RESULT:      -7.6      2.497      3.468
REMARK  Name = 
REMARK  5 active torsions:
REMARK  status: ('A' for Active; 'I' for Inactive)
REMARK    1  A    between atoms: C_1  and  C_2
REMARK    2  A    between atoms: C_10  and  S_11
REMARK    3  A    between atoms: S_11  and  N_14
REMARK    4  A    between atoms: N_14  and  C_15
REMARK    5  A    between atoms: C_21  and  C_22
REMARK                            x       y       z     vdW  Elec       q    Type
REMARK                         _______ _______ _______ _____ _____    ______ ____
ROOT
ATOM      1  S   UNL     1       0.444   9.028  21.322  0.00  0.00    +0.000 S 
ATOM      2  O   UNL     1      -0.613   8.134  21.735  0.00  0.00    +0.000 OA
ATOM      3  O   UNL     1       1.367   9.599  22.283  0.00  0.00    +0.000 OA
ENDROOT
BRANCH   1  13
ATOM      4  C   UNL     1       2.129   3.978  21.462  0.00  0.00    +0.000 C 
ATOM      5  C   UNL     1       2.978   3.842  20.229  0.00  0.00    +0.000 C 
ATOM      6  O   UNL     1       3.534   2.762  19.999  0.00  0.00    +0.000 OA
ATOM      7  N   UNL     1       3.109   4.908  19.365  0.00  0.00    +0.000 N 
ATOM      8  C   UNL     1       3.856   4.717  18.112  0.00  0.00    +0.000 C 
ATOM      9  C   UNL     1       3.924   6.068  17.400  0.00  0.00    +0.000 C 
ATOM     10  C   UNL     1       3.009   6.904  18.241  0.00  0.00    +0.000 A 
ATOM     11  C   UNL     1       2.634   8.221  17.995  0.00  0.00    +0.000 A 
ATOM     12  C   UNL     1       1.830   8.867  18.933  0.00  0.00    +0.000 A 
ATOM     13  C   UNL     1       1.426   8.185  20.091  0.00  0.00    +0.000 A 
ATOM     14  C   UNL     1       1.821   6.862  20.335  0.00  0.00    +0.000 A 
ATOM     15  C   UNL     1       2.600   6.217  19.391  0.00  0.00    +0.000 A 
ENDBRANCH   1  13
BRANCH   1  16
ATOM     16  N   UNL     1      -0.221  10.334  20.476  0.00  0.00    +0.000 N 
ATOM     17  H   UNL     1      -0.920  10.035  19.799  0.00  0.00    +0.000 HD
BRANCH  16  18
ATOM     18  C   UNL     1      -0.464  11.545  21.181  0.00  0.00    +0.000 A 
ATOM     19  C   UNL     1       0.469  12.583  21.100  0.00  0.00    +0.000 A 
ATOM     20  C   UNL     1       0.301  13.763  21.837  0.00  0.00    +0.000 A 
ATOM     21  C   UNL     1      -0.808  13.814  22.677  0.00  0.00    +0.000 A 
ATOM     22  O   UNL     1      -1.128  14.842  23.508  0.00  0.00    +0.000 OA
ATOM     23  C   UNL     1      -2.258  14.483  24.170  0.00  0.00    +0.000 A 
ATOM     24  C   UNL     1      -2.688  13.233  23.773  0.00  0.00    +0.000 A 
ATOM     25  C   UNL     1      -3.870  12.487  24.268  0.00  0.00    +0.000 C 
ATOM     26  C   UNL     1      -1.748  12.797  22.792  0.00  0.00    +0.000 A 
ATOM     27  C   UNL     1      -1.589  11.642  22.007  0.00  0.00    +0.000 A 
ENDBRANCH  16  18
ENDBRANCH   1  16
TORSDOF 3
ENDMDL
MODEL 8
REMARK VINA RESULT:      -7.6      0.919      1.245
REMARK  Name = 
REMARK  5 active torsions:
REMARK  status: ('A' for Active; 'I' for Inactive)
REMARK    1  A    between atoms: C_1  and  C_2
REMARK    2  A    between atoms: C_10  and  S_11
REMARK    3  A    between atoms: S_11  and  N_14
REMARK    4  A    between atoms: N_14  and  C_15
REMARK    5  A    between atoms: C_21  and  C_22
REMARK                            x       y       z     vdW  Elec       q    Type
REMARK                         _______ _______ _______ _____ _____    ______ ____
ROOT
ATOM      1  S   UNL     1       0.874   8.973  21.180  0.00  0.00    +0.000 S 
ATOM      2  O   UNL     1      -0.455   8.431  21.338  0.00  0.00    +0.000 OA
ATOM      3  O   UNL     1       1.765   9.129  22.313  0.00  0.00    +0.000 OA
ENDROOT
BRANCH   1  13
ATOM      4  C   UNL     1       2.089   3.802  21.560  0.00  0.00    +0.000 C 
ATOM      5  C   UNL     1       2.880   3.520  20.314  0.00  0.00    +0.000 C 
ATOM      6  O   UNL     1       3.327   2.382  20.130  0.00  0.00    +0.000 OA
ATOM      7  N   UNL     1       3.082   4.521  19.388  0.00  0.00    +0.000 N 
ATOM      8  C   UNL     1       3.766   4.194  18.127  0.00  0.00    +0.000 C 
ATOM      9  C   UNL     1       3.936   5.492  17.338  0.00  0.00    +0.000 C 
ATOM     10  C   UNL     1       3.129   6.454  18.156  0.00  0.00    +0.000 A 
ATOM     11  C   UNL     1       2.870   7.785  17.845  0.00  0.00    +0.000 A 
ATOM     12  C   UNL     1       2.161   8.554  18.767  0.00  0.00    +0.000 A 
ATOM     13  C   UNL     1       1.733   7.977  19.972  0.00  0.00    +0.000 A 
ATOM     14  C   UNL     1       2.012   6.637  20.280  0.00  0.00    +0.000 A 
ATOM     15  C   UNL     1       2.697   5.872  19.354  0.00  0.00    +0.000 A 
ENDBRANCH   1  13
BRANCH   1  16
ATOM     16  N   UNL     1       0.779  10.495  20.446  0.00  0.00    +0.000 N 
ATOM     17  H   UNL     1       1.259  10.516  19.548  0.00  0.00    +0.000 HD
BRANCH  16  18
ATOM     18  C   UNL     1      -0.434  11.228  20.561  0.00  0.00    +0.000 A 
ATOM     19  C   UNL     1      -0.721  11.892  21.757  0.00  0.00    +0.000 A 
ATOM     20  C   UNL     1      -1.938  12.564  21.935  0.00  0.00    +0.000 A 
ATOM     21  C   UNL     1      -2.846  12.488  20.882  0.00  0.00    +0.000 A 
ATOM     22  O   UNL     1      -4.094  13.028  20.869  0.00  0.00    +0.000 OA
ATOM     23  C   UNL     1      -4.657  12.701  19.678  0.00  0.00    +0.000 A 
ATOM     24  C   UNL     1      -3.786  11.960  18.904  0.00  0.00    +0.000 A 
ATOM     25  C   UNL     1      -4.030  11.405  17.551  0.00  0.00    +0.000 C 
ATOM     26  C   UNL     1      -2.599  11.828  19.684  0.00  0.00    +0.000 A 
ATOM     27  C   UNL     1      -1.353  11.201  19.506  0.00  0.00    +0.000 A 
ENDBRANCH  16  18
ENDBRANCH   1  16
TORSDOF 3
ENDMDL
MODEL 9
REMARK VINA RESULT:      -7.6      3.859      8.743
REMARK  Name = 
REMARK  5 active torsions:
REMARK  status: ('A' for Active; 'I' for Inactive)
REMARK    1  A    between atoms: C_1  and  C_2
REMARK    2  A    between atoms: C_10  and  S_11
REMARK    3  A    between atoms: S_11  and  N_14
REMARK    4  A    between atoms: N_14  and  C_15
REMARK    5  A    between atoms: C_21  and  C_22
REMARK                            x       y       z     vdW  Elec       q    Type
REMARK                         _______ _______ _______ _____ _____    ______ ____
ROOT
ATOM      1  S   UNL     1       4.181   3.073  18.777  0.00  0.00    +0.000 S 
ATOM      2  O   UNL     1       5.556   3.317  19.150  0.00  0.00    +0.000 OA
ATOM      3  O   UNL     1       3.536   1.806  19.063  0.00  0.00    +0.000 OA
ENDROOT
BRANCH   1  13
ATOM      4  C   UNL     1       3.422   8.020  16.959  0.00  0.00    +0.000 C 
ATOM      5  C   UNL     1       2.575   8.671  18.016  0.00  0.00    +0.000 C 
ATOM      6  O   UNL     1       2.248   9.856  17.879  0.00  0.00    +0.000 OA
ATOM      7  N   UNL     1       2.160   7.942  19.109  0.00  0.00    +0.000 N 
ATOM      8  C   UNL     1       1.244   8.569  20.075  0.00  0.00    +0.000 C 
ATOM      9  C   UNL     1       1.025   7.581  21.220  0.00  0.00    +0.000 C 
ATOM     10  C   UNL     1       1.702   6.351  20.696  0.00  0.00    +0.000 A 
ATOM     11  C   UNL     1       1.735   5.103  21.309  0.00  0.00    +0.000 A 
ATOM     12  C   UNL     1       2.482   4.090  20.709  0.00  0.00    +0.000 A 
ATOM     13  C   UNL     1       3.177   4.350  19.518  0.00  0.00    +0.000 A 
ATOM     14  C   UNL     1       3.147   5.617  18.917  0.00  0.00    +0.000 A 
ATOM     15  C   UNL     1       2.387   6.613  19.503  0.00  0.00    +0.000 A 
ENDBRANCH   1  13
BRANCH   1  16
ATOM     16  N   UNL     1       3.993   3.331  17.115  0.00  0.00    +0.000 N 
ATOM     17  H   UNL     1       3.056   3.653  16.883  0.00  0.00    +0.000 HD
BRANCH  16  18
ATOM     18  C   UNL     1       5.080   3.891  16.389  0.00  0.00    +0.000 A 
ATOM     19  C   UNL     1       5.838   4.912  16.971  0.00  0.00    +0.000 A 
ATOM     20  C   UNL     1       6.870   5.539  16.260  0.00  0.00    +0.000 A 
ATOM     21  C   UNL     1       7.056   5.122  14.945  0.00  0.00    +0.000 A 
ATOM     22  O   UNL     1       7.967   5.631  14.072  0.00  0.00    +0.000 OA
ATOM     23  C   UNL     1       7.801   4.974  12.895  0.00  0.00    +0.000 A 
ATOM     24  C   UNL     1       6.796   4.032  12.990  0.00  0.00    +0.000 A 
ATOM     25  C   UNL     1       6.307   3.125  11.925  0.00  0.00    +0.000 C 
ATOM     26  C   UNL     1       6.314   4.120  14.330  0.00  0.00    +0.000 A 
ATOM     27  C   UNL     1       5.316   3.469  15.076  0.00  0.00    +0.000 A 
ENDBRANCH  16  18
ENDBRANCH   1  16
TORSDOF 3
ENDMDL
