MODEL 1
REMARK VINA RESULT:      -8.7      0.000      0.000
REMARK  Name = 
REMARK  5 active torsions:
REMARK  status: ('A' for Active; 'I' for Inactive)
REMARK    1  A    between atoms: C_8  and  S_9
REMARK    2  A    between atoms: S_9  and  N_12
REMARK    3  A    between atoms: N_12  and  C_13
REMARK    4  A    between atoms: C_13  and  C_14
REMARK    5  A    between atoms: C_17  and  C_18
REMARK                            x       y       z     vdW  Elec       q    Type
REMARK                         _______ _______ _______ _____ _____    ______ ____
ROOT
ATOM      1  S   UNL     1       4.229   3.736  19.052  0.00  0.00    +0.000 S 
ATOM      2  O   UNL     1       3.018   3.197  18.480  0.00  0.00    +0.000 OA
ATOM      3  O   UNL     1       5.052   2.984  19.971  0.00  0.00    +0.000 OA
ENDROOT
BRANCH   1  11
ATOM      4  O   UNL     1       6.591   3.432  12.003  0.00  0.00    +0.000 OA
ATOM      5  C   UNL     1       6.659   3.964  13.107  0.00  0.00    +0.000 C 
ATOM      6  C   UNL     1       7.502   5.207  13.388  0.00  0.00    +0.000 C 
ATOM      7  O   UNL     1       7.868   5.512  14.726  0.00  0.00    +0.000 OA
ATOM      8  C   UNL     1       6.973   5.084  15.666  0.00  0.00    +0.000 A 
ATOM      9  C   UNL     1       7.111   5.633  16.940  0.00  0.00    +0.000 A 
ATOM     10  C   UNL     1       6.261   5.229  17.970  0.00  0.00    +0.000 A 
ATOM     11  C   UNL     1       5.278   4.266  17.715  0.00  0.00    +0.000 A 
ATOM     12  C   UNL     1       5.155   3.682  16.448  0.00  0.00    +0.000 A 
ATOM     13  C   UNL     1       6.001   4.106  15.425  0.00  0.00    +0.000 A 
ATOM     14  N   UNL     1       5.899   3.527  14.158  0.00  0.00    +0.000 N 
ATOM     15  H   UNL     1       5.279   2.748  13.980  0.00  0.00    +0.000 HD
ENDBRANCH   1  11
BRANCH   1  16
ATOM     16  N   UNL     1       3.866   5.204  19.809  0.00  0.00    +0.000 NA
ATOM     17  H   UNL     1       4.215   6.001  19.275  0.00  0.00    +0.000 HD
BRANCH  16  18
ATOM     18  C   UNL     1       2.530   5.345  20.399  0.00  0.00    +0.000 C 
BRANCH  18  19
ATOM     19  C   UNL     1       1.828   6.596  19.855  0.00  0.00    +0.000 C 
ATOM     20  C   UNL     1       2.574   7.234  18.672  0.00  0.00    +0.000 C 
ATOM     21  C   UNL     1       1.847   8.484  18.166  0.00  0.00    +0.000 C 
ATOM     22  C   UNL     1       1.610   9.512  19.287  0.00  0.00    +0.000 C 
ATOM     23  C   UNL     1       0.949   8.870  20.520  0.00  0.00    +0.000 C 
ATOM     24  C   UNL     1       1.684   7.622  20.987  0.00  0.00    +0.000 C 
BRANCH  22  25
ATOM     25  C   UNL     1       0.778  10.699  18.828  0.00  0.00    +0.000 A 
ATOM     26  C   UNL     1      -0.574  10.549  18.479  0.00  0.00    +0.000 A 
ATOM     27  C   UNL     1      -1.357  11.656  18.153  0.00  0.00    +0.000 A 
ATOM     28  C   UNL     1      -0.796  12.930  18.163  0.00  0.00    +0.000 A 
ATOM     29  C   UNL     1       0.549  13.095  18.489  0.00  0.00    +0.000 A 
ATOM     30  C   UNL     1       1.332  11.986  18.818  0.00  0.00    +0.000 A 
ENDBRANCH  22  25
ENDBRANCH  18  19
ENDBRANCH  16  18
ENDBRANCH   1  16
TORSDOF 5
ENDMDL
MODEL 2
REMARK VINA RESULT:      -8.7      5.275      9.347
REMARK  Name = 
REMARK  5 active torsions:
REMARK  status: ('A' for Active; 'I' for Inactive)
REMARK    1  A    between atoms: C_8  and  S_9
REMARK    2  A    between atoms: S_9  and  N_12
REMARK    3  A    between atoms: N_12  and  C_13
REMARK    4  A    between atoms: C_13  and  C_14
REMARK    5  A    between atoms: C_17  and  C_18
REMARK                            x       y       z     vdW  Elec       q    Type
REMARK                         _______ _______ _______ _____ _____    ______ ____
ROOT
ATOM      1  S   UNL     1       0.805  12.359  20.789  0.00  0.00    +0.000 S 
ATOM      2  O   UNL     1       1.846  12.441  19.792  0.00  0.00    +0.000 OA
ATOM      3  O   UNL     1       0.622  13.373  21.802  0.00  0.00    +0.000 OA
ENDROOT
BRANCH   1  11
ATOM      4  O   UNL     1      -3.281  10.974  14.727  0.00  0.00    +0.000 OA
ATOM      5  C   UNL     1      -3.243  11.212  15.931  0.00  0.00    +0.000 C 
ATOM      6  C   UNL     1      -4.480  11.202  16.828  0.00  0.00    +0.000 C 
ATOM      7  O   UNL     1      -4.440  11.880  18.075  0.00  0.00    +0.000 OA
ATOM      8  C   UNL     1      -3.200  11.937  18.647  0.00  0.00    +0.000 A 
ATOM      9  C   UNL     1      -3.161  12.291  19.995  0.00  0.00    +0.000 A 
ATOM     10  C   UNL     1      -1.936  12.405  20.650  0.00  0.00    +0.000 A 
ATOM     11  C   UNL     1      -0.751  12.171  19.944  0.00  0.00    +0.000 A 
ATOM     12  C   UNL     1      -0.777  11.851  18.581  0.00  0.00    +0.000 A 
ATOM     13  C   UNL     1      -2.010  11.725  17.941  0.00  0.00    +0.000 A 
ATOM     14  N   UNL     1      -2.055  11.417  16.580  0.00  0.00    +0.000 N 
ATOM     15  H   UNL     1      -1.214  11.359  16.022  0.00  0.00    +0.000 HD
ENDBRANCH   1  11
BRANCH   1  16
ATOM     16  N   UNL     1       0.941  10.879  21.597  0.00  0.00    +0.000 NA
ATOM     17  H   UNL     1       0.758  10.977  22.597  0.00  0.00    +0.000 HD
BRANCH  16  18
ATOM     18  C   UNL     1       0.370   9.699  20.940  0.00  0.00    +0.000 C 
BRANCH  18  19
ATOM     19  C   UNL     1       1.449   8.943  20.154  0.00  0.00    +0.000 C 
ATOM     20  C   UNL     1       1.299   9.098  18.631  0.00  0.00    +0.000 C 
ATOM     21  C   UNL     1       2.388   8.322  17.885  0.00  0.00    +0.000 C 
ATOM     22  C   UNL     1       2.422   6.836  18.286  0.00  0.00    +0.000 C 
ATOM     23  C   UNL     1       2.476   6.659  19.814  0.00  0.00    +0.000 C 
ATOM     24  C   UNL     1       1.393   7.456  20.528  0.00  0.00    +0.000 C 
BRANCH  22  25
ATOM     25  C   UNL     1       3.579   6.082  17.649  0.00  0.00    +0.000 A 
ATOM     26  C   UNL     1       3.616   4.679  17.640  0.00  0.00    +0.000 A 
ATOM     27  C   UNL     1       4.629   3.994  16.970  0.00  0.00    +0.000 A 
ATOM     28  C   UNL     1       5.625   4.703  16.304  0.00  0.00    +0.000 A 
ATOM     29  C   UNL     1       5.613   6.096  16.319  0.00  0.00    +0.000 A 
ATOM     30  C   UNL     1       4.597   6.783  16.988  0.00  0.00    +0.000 A 
ENDBRANCH  22  25
ENDBRANCH  18  19
ENDBRANCH  16  18
ENDBRANCH   1  16
TORSDOF 5
ENDMDL
MODEL 3
REMARK VINA RESULT:      -8.5      1.664      2.089
REMARK  Name = 
REMARK  5 active torsions:
REMARK  status: ('A' for Active; 'I' for Inactive)
REMARK    1  A    between atoms: C_8  and  S_9
REMARK    2  A    between atoms: S_9  and  N_12
REMARK    3  A    between atoms: N_12  and  C_13
REMARK    4  A    between atoms: C_13  and  C_14
REMARK    5  A    between atoms: C_17  and  C_18
REMARK                            x       y       z     vdW  Elec       q    Type
REMARK                         _______ _______ _______ _____ _____    ______ ____
ROOT
ATOM      1  S   UNL     1       4.217   4.289  18.838  0.00  0.00    +0.000 S 
ATOM      2  O   UNL     1       4.023   2.859  18.894  0.00  0.00    +0.000 OA
ATOM      3  O   UNL     1       4.692   5.051  19.970  0.00  0.00    +0.000 OA
ENDROOT
BRANCH   1  11
ATOM      4  O   UNL     1       6.664   3.170  11.901  0.00  0.00    +0.000 OA
ATOM      5  C   UNL     1       6.735   3.813  12.944  0.00  0.00    +0.000 C 
ATOM      6  C   UNL     1       7.616   5.050  13.108  0.00  0.00    +0.000 C 
ATOM      7  O   UNL     1       7.973   5.482  14.413  0.00  0.00    +0.000 OA
ATOM      8  C   UNL     1       7.051   5.185  15.377  0.00  0.00    +0.000 A 
ATOM      9  C   UNL     1       7.191   5.859  16.589  0.00  0.00    +0.000 A 
ATOM     10  C   UNL     1       6.314   5.594  17.641  0.00  0.00    +0.000 A 
ATOM     11  C   UNL     1       5.302   4.642  17.471  0.00  0.00    +0.000 A 
ATOM     12  C   UNL     1       5.177   3.932  16.271  0.00  0.00    +0.000 A 
ATOM     13  C   UNL     1       6.051   4.218  15.223  0.00  0.00    +0.000 A 
ATOM     14  N   UNL     1       5.947   3.513  14.022  0.00  0.00    +0.000 N 
ATOM     15  H   UNL     1       5.303   2.740  13.916  0.00  0.00    +0.000 HD
ENDBRANCH   1  11
BRANCH   1  16
ATOM     16  N   UNL     1       2.776   5.014  18.330  0.00  0.00    +0.000 NA
ATOM     17  H   UNL     1       2.002   4.797  18.960  0.00  0.00    +0.000 HD
BRANCH  16  18
ATOM     18  C   UNL     1       2.854   6.394  17.841  0.00  0.00    +0.000 C 
BRANCH  18  19
ATOM     19  C   UNL     1       1.867   7.293  18.597  0.00  0.00    +0.000 C 
ATOM     20  C   UNL     1       1.859   8.741  18.080  0.00  0.00    +0.000 C 
ATOM     21  C   UNL     1       0.869   9.606  18.866  0.00  0.00    +0.000 C 
ATOM     22  C   UNL     1       1.137   9.564  20.382  0.00  0.00    +0.000 C 
ATOM     23  C   UNL     1       1.244   8.120  20.903  0.00  0.00    +0.000 C 
ATOM     24  C   UNL     1       2.222   7.282  20.090  0.00  0.00    +0.000 C 
BRANCH  22  25
ATOM     25  C   UNL     1       0.087  10.315  21.184  0.00  0.00    +0.000 A 
ATOM     26  C   UNL     1      -0.316   9.869  22.453  0.00  0.00    +0.000 A 
ATOM     27  C   UNL     1      -1.207  10.614  23.225  0.00  0.00    +0.000 A 
ATOM     28  C   UNL     1      -1.715  11.814  22.735  0.00  0.00    +0.000 A 
ATOM     29  C   UNL     1      -1.340  12.262  21.470  0.00  0.00    +0.000 A 
ATOM     30  C   UNL     1      -0.446  11.517  20.697  0.00  0.00    +0.000 A 
ENDBRANCH  22  25
ENDBRANCH  18  19
ENDBRANCH  16  18
ENDBRANCH   1  16
TORSDOF 5
ENDMDL
MODEL 4
REMARK VINA RESULT:      -8.4      2.310      2.682
REMARK  Name = 
REMARK  5 active torsions:
REMARK  status: ('A' for Active; 'I' for Inactive)
REMARK    1  A    between atoms: C_8  and  S_9
REMARK    2  A    between atoms: S_9  and  N_12
REMARK    3  A    between atoms: N_12  and  C_13
REMARK    4  A    between atoms: C_13  and  C_14
REMARK    5  A    between atoms: C_17  and  C_18
REMARK                            x       y       z     vdW  Elec       q    Type
REMARK                         _______ _______ _______ _____ _____    ______ ____
ROOT
ATOM      1  S   UNL     1       2.538   4.503  19.751  0.00  0.00    +0.000 S 
ATOM      2  O   UNL     1       1.396   4.366  18.878  0.00  0.00    +0.000 OA
ATOM      3  O   UNL     1       2.822   3.559  20.808  0.00  0.00    +0.000 OA
ENDROOT
BRANCH   1  11
ATOM      4  O   UNL     1       6.126   3.805  13.270  0.00  0.00    +0.000 OA
ATOM      5  C   UNL     1       6.154   4.140  14.450  0.00  0.00    +0.000 C 
ATOM      6  C   UNL     1       7.358   4.821  15.100  0.00  0.00    +0.000 C 
ATOM      7  O   UNL     1       7.493   4.796  16.514  0.00  0.00    +0.000 OA
ATOM      8  C   UNL     1       6.307   4.743  17.192  0.00  0.00    +0.000 A 
ATOM      9  C   UNL     1       6.364   5.044  18.552  0.00  0.00    +0.000 A 
ATOM     10  C   UNL     1       5.207   4.983  19.329  0.00  0.00    +0.000 A 
ATOM     11  C   UNL     1       3.996   4.612  18.735  0.00  0.00    +0.000 A 
ATOM     12  C   UNL     1       3.935   4.271  17.377  0.00  0.00    +0.000 A 
ATOM     13  C   UNL     1       5.096   4.351  16.609  0.00  0.00    +0.000 A 
ATOM     14  N   UNL     1       5.056   4.006  15.257  0.00  0.00    +0.000 N 
ATOM     15  H   UNL     1       4.222   3.622  14.833  0.00  0.00    +0.000 HD
ENDBRANCH   1  11
BRANCH   1  16
ATOM     16  N   UNL     1       2.498   6.036  20.463  0.00  0.00    +0.000 NA
ATOM     17  H   UNL     1       3.155   6.109  21.241  0.00  0.00    +0.000 HD
BRANCH  16  18
ATOM     18  C   UNL     1       2.418   7.193  19.564  0.00  0.00    +0.000 C 
BRANCH  18  19
ATOM     19  C   UNL     1       1.275   8.126  19.984  0.00  0.00    +0.000 C 
ATOM     20  C   UNL     1       1.245   9.435  19.178  0.00  0.00    +0.000 C 
ATOM     21  C   UNL     1       0.096  10.341  19.633  0.00  0.00    +0.000 C 
ATOM     22  C   UNL     1       0.145  10.626  21.145  0.00  0.00    +0.000 C 
ATOM     23  C   UNL     1       0.272   9.330  21.966  0.00  0.00    +0.000 C 
ATOM     24  C   UNL     1       1.410   8.445  21.479  0.00  0.00    +0.000 C 
BRANCH  22  25
ATOM     25  C   UNL     1      -1.058  11.417  21.632  0.00  0.00    +0.000 A 
ATOM     26  C   UNL     1      -1.828  12.190  20.748  0.00  0.00    +0.000 A 
ATOM     27  C   UNL     1      -2.986  12.834  21.181  0.00  0.00    +0.000 A 
ATOM     28  C   UNL     1      -3.388  12.722  22.509  0.00  0.00    +0.000 A 
ATOM     29  C   UNL     1      -2.625  11.974  23.405  0.00  0.00    +0.000 A 
ATOM     30  C   UNL     1      -1.466  11.327  22.970  0.00  0.00    +0.000 A 
ENDBRANCH  22  25
ENDBRANCH  18  19
ENDBRANCH  16  18
ENDBRANCH   1  16
TORSDOF 5
ENDMDL
MODEL 5
REMARK VINA RESULT:      -8.4      1.478      2.065
REMARK  Name = 
REMARK  5 active torsions:
REMARK  status: ('A' for Active; 'I' for Inactive)
REMARK    1  A    between atoms: C_8  and  S_9
REMARK    2  A    between atoms: S_9  and  N_12
REMARK    3  A    between atoms: N_12  and  C_13
REMARK    4  A    between atoms: C_13  and  C_14
REMARK    5  A    between atoms: C_17  and  C_18
REMARK                            x       y       z     vdW  Elec       q    Type
REMARK                         _______ _______ _______ _____ _____    ______ ____
ROOT
ATOM      1  S   UNL     1       4.167   2.912  18.727  0.00  0.00    +0.000 S 
ATOM      2  O   UNL     1       3.828   1.593  18.247  0.00  0.00    +0.000 OA
ATOM      3  O   UNL     1       4.767   3.134  20.023  0.00  0.00    +0.000 OA
ENDROOT
BRANCH   1  11
ATOM      4  O   UNL     1       6.831   3.658  11.820  0.00  0.00    +0.000 OA
ATOM      5  C   UNL     1       6.810   4.055  12.981  0.00  0.00    +0.000 C 
ATOM      6  C   UNL     1       7.536   5.314  13.451  0.00  0.00    +0.000 C 
ATOM      7  O   UNL     1       7.821   5.480  14.832  0.00  0.00    +0.000 OA
ATOM      8  C   UNL     1       6.926   4.872  15.668  0.00  0.00    +0.000 A 
ATOM      9  C   UNL     1       6.967   5.269  17.004  0.00  0.00    +0.000 A 
ATOM     10  C   UNL     1       6.112   4.678  17.934  0.00  0.00    +0.000 A 
ATOM     11  C   UNL     1       5.223   3.681  17.518  0.00  0.00    +0.000 A 
ATOM     12  C   UNL     1       5.200   3.249  16.185  0.00  0.00    +0.000 A 
ATOM     13  C   UNL     1       6.049   3.860  15.263  0.00  0.00    +0.000 A 
ATOM     14  N   UNL     1       6.047   3.435  13.933  0.00  0.00    +0.000 N 
ATOM     15  H   UNL     1       5.500   2.638  13.633  0.00  0.00    +0.000 HD
ENDBRANCH   1  11
BRANCH   1  16
ATOM     16  N   UNL     1       2.788   3.888  18.652  0.00  0.00    +0.000 NA
ATOM     17  H   UNL     1       2.291   3.909  19.544  0.00  0.00    +0.000 HD
BRANCH  16  18
ATOM     18  C   UNL     1       2.905   5.165  17.939  0.00  0.00    +0.000 C 
BRANCH  18  19
ATOM     19  C   UNL     1       2.061   6.247  18.625  0.00  0.00    +0.000 C 
ATOM     20  C   UNL     1       2.489   7.673  18.239  0.00  0.00    +0.000 C 
ATOM     21  C   UNL     1       1.630   8.722  18.951  0.00  0.00    +0.000 C 
ATOM     22  C   UNL     1       1.635   8.539  20.480  0.00  0.00    +0.000 C 
ATOM     23  C   UNL     1       1.302   7.091  20.883  0.00  0.00    +0.000 C 
ATOM     24  C   UNL     1       2.161   6.073  20.146  0.00  0.00    +0.000 C 
BRANCH  22  25
ATOM     25  C   UNL     1       0.687   9.492  21.188  0.00  0.00    +0.000 A 
ATOM     26  C   UNL     1       0.110   9.160  22.425  0.00  0.00    +0.000 A 
ATOM     27  C   UNL     1      -0.680  10.077  23.116  0.00  0.00    +0.000 A 
ATOM     28  C   UNL     1      -0.914  11.339  22.576  0.00  0.00    +0.000 A 
ATOM     29  C   UNL     1      -0.364  11.678  21.341  0.00  0.00    +0.000 A 
ATOM     30  C   UNL     1       0.430  10.761  20.650  0.00  0.00    +0.000 A 
ENDBRANCH  22  25
ENDBRANCH  18  19
ENDBRANCH  16  18
ENDBRANCH   1  16
TORSDOF 5
ENDMDL
MODEL 6
REMARK VINA RESULT:      -8.3      1.060      1.225
REMARK  Name = 
REMARK  5 active torsions:
REMARK  status: ('A' for Active; 'I' for Inactive)
REMARK    1  A    between atoms: C_8  and  S_9
REMARK    2  A    between atoms: S_9  and  N_12
REMARK    3  A    between atoms: N_12  and  C_13
REMARK    4  A    between atoms: C_13  and  C_14
REMARK    5  A    between atoms: C_17  and  C_18
REMARK                            x       y       z     vdW  Elec       q    Type
REMARK                         _______ _______ _______ _____ _____    ______ ____
ROOT
ATOM      1  S   UNL     1       4.487   3.879  18.922  0.00  0.00    +0.000 S 
ATOM      2  O   UNL     1       3.966   2.552  18.689  0.00  0.00    +0.000 OA
ATOM      3  O   UNL     1       5.254   4.213  20.100  0.00  0.00    +0.000 OA
ENDROOT
BRANCH   1  11
ATOM      4  O   UNL     1       6.513   3.185  11.797  0.00  0.00    +0.000 OA
ATOM      5  C   UNL     1       6.626   3.783  12.863  0.00  0.00    +0.000 C 
ATOM      6  C   UNL     1       7.464   5.049  13.030  0.00  0.00    +0.000 C 
ATOM      7  O   UNL     1       7.889   5.437  14.328  0.00  0.00    +0.000 OA
ATOM      8  C   UNL     1       7.046   5.055  15.334  0.00  0.00    +0.000 A 
ATOM      9  C   UNL     1       7.238   5.679  16.566  0.00  0.00    +0.000 A 
ATOM     10  C   UNL     1       6.444   5.328  17.657  0.00  0.00    +0.000 A 
ATOM     11  C   UNL     1       5.464   4.341  17.507  0.00  0.00    +0.000 A 
ATOM     12  C   UNL     1       5.288   3.681  16.284  0.00  0.00    +0.000 A 
ATOM     13  C   UNL     1       6.079   4.053  15.197  0.00  0.00    +0.000 A 
ATOM     14  N   UNL     1       5.924   3.400  13.974  0.00  0.00    +0.000 N 
ATOM     15  H   UNL     1       5.307   2.605  13.872  0.00  0.00    +0.000 HD
ENDBRANCH   1  11
BRANCH   1  16
ATOM     16  N   UNL     1       3.212   4.986  18.838  0.00  0.00    +0.000 NA
ATOM     17  H   UNL     1       2.333   4.576  19.159  0.00  0.00    +0.000 HD
BRANCH  16  18
ATOM     18  C   UNL     1       3.486   6.362  19.266  0.00  0.00    +0.000 C 
BRANCH  18  19
ATOM     19  C   UNL     1       2.258   7.253  19.044  0.00  0.00    +0.000 C 
ATOM     20  C   UNL     1       2.495   8.347  17.989  0.00  0.00    +0.000 C 
ATOM     21  C   UNL     1       1.250   9.219  17.804  0.00  0.00    +0.000 C 
ATOM     22  C   UNL     1       0.764   9.829  19.131  0.00  0.00    +0.000 C 
ATOM     23  C   UNL     1       0.612   8.761  20.229  0.00  0.00    +0.000 C 
ATOM     24  C   UNL     1       1.859   7.901  20.377  0.00  0.00    +0.000 C 
BRANCH  22  25
ATOM     25  C   UNL     1      -0.542  10.592  18.984  0.00  0.00    +0.000 A 
ATOM     26  C   UNL     1      -1.478  10.250  17.994  0.00  0.00    +0.000 A 
ATOM     27  C   UNL     1      -2.715  10.888  17.926  0.00  0.00    +0.000 A 
ATOM     28  C   UNL     1      -3.033  11.886  18.843  0.00  0.00    +0.000 A 
ATOM     29  C   UNL     1      -2.109  12.251  19.820  0.00  0.00    +0.000 A 
ATOM     30  C   UNL     1      -0.870  11.610  19.890  0.00  0.00    +0.000 A 
ENDBRANCH  22  25
ENDBRANCH  18  19
ENDBRANCH  16  18
ENDBRANCH   1  16
TORSDOF 5
ENDMDL
MODEL 7
REMARK VINA RESULT:      -8.3      0.863      1.484
REMARK  Name = 
REMARK  5 active torsions:
REMARK  status: ('A' for Active; 'I' for Inactive)
REMARK    1  A    between atoms: C_8  and  S_9
REMARK    2  A    between atoms: S_9  and  N_12
REMARK    3  A    between atoms: N_12  and  C_13
REMARK    4  A    between atoms: C_13  and  C_14
REMARK    5  A    between atoms: C_17  and  C_18
REMARK                            x       y       z     vdW  Elec       q    Type
REMARK                         _______ _______ _______ _____ _____    ______ ____
ROOT
ATOM      1  S   UNL     1       3.583   3.830  19.222  0.00  0.00    +0.000 S 
ATOM      2  O   UNL     1       2.340   3.541  18.548  0.00  0.00    +0.000 OA
ATOM      3  O   UNL     1       4.220   2.883  20.109  0.00  0.00    +0.000 OA
ENDROOT
BRANCH   1  11
ATOM      4  O   UNL     1       6.408   3.549  12.344  0.00  0.00    +0.000 OA
ATOM      5  C   UNL     1       6.455   4.021  13.476  0.00  0.00    +0.000 C 
ATOM      6  C   UNL     1       7.415   5.140  13.878  0.00  0.00    +0.000 C 
ATOM      7  O   UNL     1       7.714   5.341  15.252  0.00  0.00    +0.000 OA
ATOM      8  C   UNL     1       6.708   4.984  16.106  0.00  0.00    +0.000 A 
ATOM      9  C   UNL     1       6.815   5.456  17.413  0.00  0.00    +0.000 A 
ATOM     10  C   UNL     1       5.850   5.114  18.360  0.00  0.00    +0.000 A 
ATOM     11  C   UNL     1       4.783   4.288  17.990  0.00  0.00    +0.000 A 
ATOM     12  C   UNL     1       4.687   3.777  16.689  0.00  0.00    +0.000 A 
ATOM     13  C   UNL     1       5.650   4.140  15.748  0.00  0.00    +0.000 A 
ATOM     14  N   UNL     1       5.575   3.633  14.450  0.00  0.00    +0.000 N 
ATOM     15  H   UNL     1       4.883   2.943  14.190  0.00  0.00    +0.000 HD
ENDBRANCH   1  11
BRANCH   1  16
ATOM     16  N   UNL     1       3.411   5.272  20.089  0.00  0.00    +0.000 NA
ATOM     17  H   UNL     1       4.162   5.931  19.878  0.00  0.00    +0.000 HD
BRANCH  16  18
ATOM     18  C   UNL     1       2.060   5.833  20.199  0.00  0.00    +0.000 C 
BRANCH  18  19
ATOM     19  C   UNL     1       2.089   7.354  20.006  0.00  0.00    +0.000 C 
ATOM     20  C   UNL     1       0.994   8.079  20.806  0.00  0.00    +0.000 C 
ATOM     21  C   UNL     1       1.051   9.593  20.579  0.00  0.00    +0.000 C 
ATOM     22  C   UNL     1       0.977   9.960  19.086  0.00  0.00    +0.000 C 
ATOM     23  C   UNL     1       2.004   9.172  18.253  0.00  0.00    +0.000 C 
ATOM     24  C   UNL     1       1.933   7.674  18.513  0.00  0.00    +0.000 C 
BRANCH  22  25
ATOM     25  C   UNL     1       1.161  11.449  18.838  0.00  0.00    +0.000 A 
ATOM     26  C   UNL     1       0.205  12.383  19.271  0.00  0.00    +0.000 A 
ATOM     27  C   UNL     1       0.426  13.752  19.128  0.00  0.00    +0.000 A 
ATOM     28  C   UNL     1       1.603  14.209  18.542  0.00  0.00    +0.000 A 
ATOM     29  C   UNL     1       2.554  13.295  18.090  0.00  0.00    +0.000 A 
ATOM     30  C   UNL     1       2.335  11.923  18.235  0.00  0.00    +0.000 A 
ENDBRANCH  22  25
ENDBRANCH  18  19
ENDBRANCH  16  18
ENDBRANCH   1  16
TORSDOF 5
ENDMDL
MODEL 8
REMARK VINA RESULT:      -8.3      3.766      7.593
REMARK  Name = 
REMARK  5 active torsions:
REMARK  status: ('A' for Active; 'I' for Inactive)
REMARK    1  A    between atoms: C_8  and  S_9
REMARK    2  A    between atoms: S_9  and  N_12
REMARK    3  A    between atoms: N_12  and  C_13
REMARK    4  A    between atoms: C_13  and  C_14
REMARK    5  A    between atoms: C_17  and  C_18
REMARK                            x       y       z     vdW  Elec       q    Type
REMARK                         _______ _______ _______ _____ _____    ______ ____
ROOT
ATOM      1  S   UNL     1       3.125   4.353  18.803  0.00  0.00    +0.000 S 
ATOM      2  O   UNL     1       3.896   3.977  19.964  0.00  0.00    +0.000 OA
ATOM      3  O   UNL     1       1.997   3.577  18.338  0.00  0.00    +0.000 OA
ENDROOT
BRANCH   1  11
ATOM      4  O   UNL     1       0.644   9.940  23.043  0.00  0.00    +0.000 OA
ATOM      5  C   UNL     1       0.998   9.544  21.937  0.00  0.00    +0.000 C 
ATOM      6  C   UNL     1       1.141  10.462  20.724  0.00  0.00    +0.000 C 
ATOM      7  O   UNL     1       1.135   9.899  19.420  0.00  0.00    +0.000 OA
ATOM      8  C   UNL     1       1.623   8.624  19.355  0.00  0.00    +0.000 A 
ATOM      9  C   UNL     1       1.942   8.153  18.082  0.00  0.00    +0.000 A 
ATOM     10  C   UNL     1       2.415   6.851  17.918  0.00  0.00    +0.000 A 
ATOM     11  C   UNL     1       2.557   6.023  19.037  0.00  0.00    +0.000 A 
ATOM     12  C   UNL     1       2.204   6.474  20.315  0.00  0.00    +0.000 A 
ATOM     13  C   UNL     1       1.747   7.783  20.466  0.00  0.00    +0.000 A 
ATOM     14  N   UNL     1       1.381   8.246  21.731  0.00  0.00    +0.000 N 
ATOM     15  H   UNL     1       1.362   7.632  22.535  0.00  0.00    +0.000 HD
ENDBRANCH   1  11
BRANCH   1  16
ATOM     16  N   UNL     1       4.174   4.526  17.487  0.00  0.00    +0.000 NA
ATOM     17  H   UNL     1       3.861   5.259  16.848  0.00  0.00    +0.000 HD
BRANCH  16  18
ATOM     18  C   UNL     1       5.614   4.468  17.762  0.00  0.00    +0.000 C 
BRANCH  18  19
ATOM     19  C   UNL     1       6.159   5.865  18.086  0.00  0.00    +0.000 C 
ATOM     20  C   UNL     1       5.963   6.866  16.935  0.00  0.00    +0.000 C 
ATOM     21  C   UNL     1       6.528   8.243  17.294  0.00  0.00    +0.000 C 
ATOM     22  C   UNL     1       8.006   8.173  17.717  0.00  0.00    +0.000 C 
ATOM     23  C   UNL     1       8.239   7.107  18.803  0.00  0.00    +0.000 C 
ATOM     24  C   UNL     1       7.652   5.755  18.424  0.00  0.00    +0.000 C 
BRANCH  22  25
ATOM     25  C   UNL     1       8.543   9.511  18.199  0.00  0.00    +0.000 A 
ATOM     26  C   UNL     1       8.213  10.707  17.541  0.00  0.00    +0.000 A 
ATOM     27  C   UNL     1       8.629  11.939  18.044  0.00  0.00    +0.000 A 
ATOM     28  C   UNL     1       9.388  11.993  19.209  0.00  0.00    +0.000 A 
ATOM     29  C   UNL     1       9.740  10.815  19.864  0.00  0.00    +0.000 A 
ATOM     30  C   UNL     1       9.322   9.580  19.362  0.00  0.00    +0.000 A 
ENDBRANCH  22  25
ENDBRANCH  18  19
ENDBRANCH  16  18
ENDBRANCH   1  16
TORSDOF 5
ENDMDL
MODEL 9
REMARK VINA RESULT:      -8.3      3.593      7.074
REMARK  Name = 
REMARK  5 active torsions:
REMARK  status: ('A' for Active; 'I' for Inactive)
REMARK    1  A    between atoms: C_8  and  S_9
REMARK    2  A    between atoms: S_9  and  N_12
REMARK    3  A    between atoms: N_12  and  C_13
REMARK    4  A    between atoms: C_13  and  C_14
REMARK    5  A    between atoms: C_17  and  C_18
REMARK                            x       y       z     vdW  Elec       q    Type
REMARK                         _______ _______ _______ _____ _____    ______ ____
ROOT
ATOM      1  S   UNL     1       3.269   3.539  17.801  0.00  0.00    +0.000 S 
ATOM      2  O   UNL     1       3.648   2.529  18.761  0.00  0.00    +0.000 OA
ATOM      3  O   UNL     1       2.326   3.281  16.737  0.00  0.00    +0.000 OA
ENDROOT
BRANCH   1  11
ATOM      4  O   UNL     1       1.591  10.766  18.359  0.00  0.00    +0.000 OA
ATOM      5  C   UNL     1       1.605   9.653  18.876  0.00  0.00    +0.000 C 
ATOM      6  C   UNL     1       0.979   9.351  20.237  0.00  0.00    +0.000 C 
ATOM      7  O   UNL     1       1.387   8.192  20.949  0.00  0.00    +0.000 OA
ATOM      8  C   UNL     1       1.793   7.156  20.155  0.00  0.00    +0.000 A 
ATOM      9  C   UNL     1       1.888   5.910  20.773  0.00  0.00    +0.000 A 
ATOM     10  C   UNL     1       2.326   4.803  20.047  0.00  0.00    +0.000 A 
ATOM     11  C   UNL     1       2.676   4.956  18.701  0.00  0.00    +0.000 A 
ATOM     12  C   UNL     1       2.620   6.211  18.081  0.00  0.00    +0.000 A 
ATOM     13  C   UNL     1       2.166   7.306  18.815  0.00  0.00    +0.000 A 
ATOM     14  N   UNL     1       2.113   8.566  18.216  0.00  0.00    +0.000 N 
ATOM     15  H   UNL     1       2.471   8.725  17.284  0.00  0.00    +0.000 HD
ENDBRANCH   1  11
BRANCH   1  16
ATOM     16  N   UNL     1       4.669   4.152  17.076  0.00  0.00    +0.000 NA
ATOM     17  H   UNL     1       4.471   4.984  16.518  0.00  0.00    +0.000 HD
BRANCH  16  18
ATOM     18  C   UNL     1       5.890   4.183  17.888  0.00  0.00    +0.000 C 
BRANCH  18  19
ATOM     19  C   UNL     1       6.316   5.630  18.168  0.00  0.00    +0.000 C 
ATOM     20  C   UNL     1       6.106   6.560  16.963  0.00  0.00    +0.000 C 
ATOM     21  C   UNL     1       6.552   7.990  17.280  0.00  0.00    +0.000 C 
ATOM     22  C   UNL     1       8.009   8.049  17.774  0.00  0.00    +0.000 C 
ATOM     23  C   UNL     1       8.264   7.054  18.920  0.00  0.00    +0.000 C 
ATOM     24  C   UNL     1       7.795   5.646  18.580  0.00  0.00    +0.000 C 
BRANCH  22  25
ATOM     25  C   UNL     1       8.424   9.443  18.213  0.00  0.00    +0.000 A 
ATOM     26  C   UNL     1       9.256   9.638  19.328  0.00  0.00    +0.000 A 
ATOM     27  C   UNL     1       9.712  10.911  19.668  0.00  0.00    +0.000 A 
ATOM     28  C   UNL     1       9.336  12.011  18.901  0.00  0.00    +0.000 A 
ATOM     29  C   UNL     1       8.496  11.838  17.803  0.00  0.00    +0.000 A 
ATOM     30  C   UNL     1       8.041  10.563  17.461  0.00  0.00    +0.000 A 
ENDBRANCH  22  25
ENDBRANCH  18  19
ENDBRANCH  16  18
ENDBRANCH   1  16
TORSDOF 5
ENDMDL
