MODEL 1
REMARK VINA RESULT:      -7.5      0.000      0.000
REMARK  Name = 
REMARK  4 active torsions:
REMARK  status: ('A' for Active; 'I' for Inactive)
REMARK    1  A    between atoms: C_2  and  C_3
REMARK    2  A    between atoms: C_17  and  C_18
REMARK    3  A    between atoms: N_21  and  C_22
REMARK    4  A    between atoms: C_22  and  C_23
REMARK                            x       y       z     vdW  Elec       q    Type
REMARK                         _______ _______ _______ _____ _____    ______ ____
ROOT
ATOM      1  O   UNL     1       5.036   1.720  19.515  0.00  0.00    +0.000 OA
ATOM      2  C   UNL     1       4.523   2.844  19.590  0.00  0.00    +0.000 C 
ATOM      3  N   UNL     1       3.464   3.093  20.453  0.00  0.00    +0.000 N 
ATOM      4  C   UNL     1       3.292   2.112  21.537  0.00  0.00    +0.000 C 
ATOM      5  C   UNL     1       1.826   1.766  21.772  0.00  0.00    +0.000 C 
ATOM      6  O   UNL     1       1.093   2.949  22.108  0.00  0.00    +0.000 OA
ATOM      7  C   UNL     1       1.139   3.872  21.010  0.00  0.00    +0.000 C 
ATOM      8  C   UNL     1       2.587   4.304  20.648  0.00  0.00    +0.000 C 
ENDROOT
BRANCH   2   9
ATOM      9  C   UNL     1       5.080   3.885  18.683  0.00  0.00    +0.000 A 
ATOM     10  C   UNL     1       5.791   5.043  19.260  0.00  0.00    +0.000 A 
ATOM     11  C   UNL     1       6.432   5.943  18.488  0.00  0.00    +0.000 A 
ATOM     12  C   UNL     1       6.443   5.758  17.082  0.00  0.00    +0.000 A 
ATOM     13  N   UNL     1       7.118   6.323  16.102  0.00  0.00    +0.000 NA
ATOM     14  N   UNL     1       6.769   5.684  14.929  0.00  0.00    +0.000 NA
ATOM     15  C   UNL     1       5.871   4.769  15.223  0.00  0.00    +0.000 A 
ATOM     16  N   UNL     1       5.632   4.757  16.568  0.00  0.00    +0.000 N 
ATOM     17  C   UNL     1       4.899   3.868  17.352  0.00  0.00    +0.000 A 
ENDBRANCH   2   9
BRANCH   8  18
ATOM     18  C   UNL     1       2.478   5.274  19.515  0.00  0.00    +0.000 A 
ATOM     19  N   UNL     1       2.064   4.865  18.265  0.00  0.00    +0.000 NA
ATOM     20  C   UNL     1       2.109   5.969  17.558  0.00  0.00    +0.000 A 
ATOM     21  N   UNL     1       2.496   7.002  18.354  0.00  0.00    +0.000 N 
ATOM     22  N   UNL     1       2.763   6.579  19.611  0.00  0.00    +0.000 NA
BRANCH  21  23
ATOM     23  C   UNL     1       2.657   8.390  17.975  0.00  0.00    +0.000 C 
BRANCH  23  24
ATOM     24  C   UNL     1       1.498   9.179  18.520  0.00  0.00    +0.000 A 
ATOM     25  C   UNL     1       1.346   9.353  19.902  0.00  0.00    +0.000 A 
ATOM     26  C   UNL     1       0.201   9.963  20.410  0.00  0.00    +0.000 A 
ATOM     27  C   UNL     1      -0.797  10.408  19.543  0.00  0.00    +0.000 A 
ATOM     28  C   UNL     1      -0.653  10.243  18.168  0.00  0.00    +0.000 A 
ATOM     29  C   UNL     1       0.488   9.627  17.655  0.00  0.00    +0.000 A 
ENDBRANCH  23  24
ENDBRANCH  21  23
ENDBRANCH   8  18
TORSDOF 4
ENDMDL
MODEL 2
REMARK VINA RESULT:      -7.3      0.906      1.595
REMARK  Name = 
REMARK  4 active torsions:
REMARK  status: ('A' for Active; 'I' for Inactive)
REMARK    1  A    between atoms: C_2  and  C_3
REMARK    2  A    between atoms: C_17  and  C_18
REMARK    3  A    between atoms: N_21  and  C_22
REMARK    4  A    between atoms: C_22  and  C_23
REMARK                            x       y       z     vdW  Elec       q    Type
REMARK                         _______ _______ _______ _____ _____    ______ ____
ROOT
ATOM      1  O   UNL     1       4.895   1.523  19.347  0.00  0.00    +0.000 OA
ATOM      2  C   UNL     1       4.453   2.675  19.431  0.00  0.00    +0.000 C 
ATOM      3  N   UNL     1       3.479   3.004  20.366  0.00  0.00    +0.000 N 
ATOM      4  C   UNL     1       3.339   2.058  21.485  0.00  0.00    +0.000 C 
ATOM      5  C   UNL     1       1.878   1.802  21.840  0.00  0.00    +0.000 C 
ATOM      6  O   UNL     1       1.241   3.032  22.200  0.00  0.00    +0.000 OA
ATOM      7  C   UNL     1       1.252   3.927  21.078  0.00  0.00    +0.000 C 
ATOM      8  C   UNL     1       2.690   4.267  20.595  0.00  0.00    +0.000 C 
ENDROOT
BRANCH   2   9
ATOM      9  C   UNL     1       4.995   3.662  18.458  0.00  0.00    +0.000 A 
ATOM     10  C   UNL     1       4.568   3.598  17.046  0.00  0.00    +0.000 A 
ATOM     11  C   UNL     1       4.917   4.544  16.152  0.00  0.00    +0.000 A 
ATOM     12  C   UNL     1       5.698   5.644  16.586  0.00  0.00    +0.000 A 
ATOM     13  N   UNL     1       6.028   6.793  16.030  0.00  0.00    +0.000 NA
ATOM     14  N   UNL     1       6.755   7.514  16.957  0.00  0.00    +0.000 NA
ATOM     15  C   UNL     1       6.872   6.774  18.038  0.00  0.00    +0.000 A 
ATOM     16  N   UNL     1       6.215   5.587  17.872  0.00  0.00    +0.000 N 
ATOM     17  C   UNL     1       5.928   4.573  18.783  0.00  0.00    +0.000 A 
ENDBRANCH   2   9
BRANCH   8  18
ATOM     18  C   UNL     1       2.547   5.216  19.449  0.00  0.00    +0.000 A 
ATOM     19  N   UNL     1       1.828   4.872  18.324  0.00  0.00    +0.000 NA
ATOM     20  C   UNL     1       1.942   5.931  17.559  0.00  0.00    +0.000 A 
ATOM     21  N   UNL     1       2.664   6.884  18.208  0.00  0.00    +0.000 N 
ATOM     22  N   UNL     1       3.086   6.442  19.415  0.00  0.00    +0.000 NA
BRANCH  21  23
ATOM     23  C   UNL     1       3.006   8.206  17.726  0.00  0.00    +0.000 C 
BRANCH  23  24
ATOM     24  C   UNL     1       2.082   9.208  18.361  0.00  0.00    +0.000 A 
ATOM     25  C   UNL     1       2.079  10.542  17.932  0.00  0.00    +0.000 A 
ATOM     26  C   UNL     1       1.325  11.496  18.612  0.00  0.00    +0.000 A 
ATOM     27  C   UNL     1       0.566  11.125  19.721  0.00  0.00    +0.000 A 
ATOM     28  C   UNL     1       0.560   9.801  20.153  0.00  0.00    +0.000 A 
ATOM     29  C   UNL     1       1.317   8.843  19.480  0.00  0.00    +0.000 A 
ENDBRANCH  23  24
ENDBRANCH  21  23
ENDBRANCH   8  18
TORSDOF 4
ENDMDL
MODEL 3
REMARK VINA RESULT:      -7.3      8.208     12.319
REMARK  Name = 
REMARK  4 active torsions:
REMARK  status: ('A' for Active; 'I' for Inactive)
REMARK    1  A    between atoms: C_2  and  C_3
REMARK    2  A    between atoms: C_17  and  C_18
REMARK    3  A    between atoms: N_21  and  C_22
REMARK    4  A    between atoms: C_22  and  C_23
REMARK                            x       y       z     vdW  Elec       q    Type
REMARK                         _______ _______ _______ _____ _____    ______ ____
ROOT
ATOM      1  O   UNL     1      -7.219  11.893  23.178  0.00  0.00    +0.000 OA
ATOM      2  C   UNL     1      -6.360  12.543  22.569  0.00  0.00    +0.000 C 
ATOM      3  N   UNL     1      -6.181  12.390  21.200  0.00  0.00    +0.000 N 
ATOM      4  C   UNL     1      -7.311  11.775  20.484  0.00  0.00    +0.000 C 
ATOM      5  C   UNL     1      -6.847  10.767  19.437  0.00  0.00    +0.000 C 
ATOM      6  O   UNL     1      -5.998  11.412  18.482  0.00  0.00    +0.000 OA
ATOM      7  C   UNL     1      -4.823  11.909  19.139  0.00  0.00    +0.000 C 
ATOM      8  C   UNL     1      -5.150  12.945  20.251  0.00  0.00    +0.000 C 
ENDROOT
BRANCH   2   9
ATOM      9  C   UNL     1      -5.520  13.457  23.390  0.00  0.00    +0.000 A 
ATOM     10  C   UNL     1      -4.490  12.889  24.282  0.00  0.00    +0.000 A 
ATOM     11  C   UNL     1      -3.611  13.668  24.943  0.00  0.00    +0.000 A 
ATOM     12  C   UNL     1      -3.664  15.073  24.757  0.00  0.00    +0.000 A 
ATOM     13  N   UNL     1      -2.854  16.059  25.089  0.00  0.00    +0.000 NA
ATOM     14  N   UNL     1      -3.386  17.227  24.580  0.00  0.00    +0.000 NA
ATOM     15  C   UNL     1      -4.517  16.925  23.980  0.00  0.00    +0.000 A 
ATOM     16  N   UNL     1      -4.741  15.579  24.045  0.00  0.00    +0.000 N 
ATOM     17  C   UNL     1      -5.704  14.788  23.423  0.00  0.00    +0.000 A 
ENDBRANCH   2   9
BRANCH   8  18
ATOM     18  C   UNL     1      -3.843  13.388  20.826  0.00  0.00    +0.000 A 
ATOM     19  N   UNL     1      -3.456  14.711  20.777  0.00  0.00    +0.000 NA
ATOM     20  C   UNL     1      -2.278  14.700  21.356  0.00  0.00    +0.000 A 
ATOM     21  N   UNL     1      -1.986  13.437  21.767  0.00  0.00    +0.000 N 
ATOM     22  N   UNL     1      -2.964  12.569  21.418  0.00  0.00    +0.000 NA
BRANCH  21  23
ATOM     23  C   UNL     1      -0.795  12.993  22.461  0.00  0.00    +0.000 C 
BRANCH  23  24
ATOM     24  C   UNL     1      -0.507  11.570  22.068  0.00  0.00    +0.000 A 
ATOM     25  C   UNL     1      -0.202  11.250  20.738  0.00  0.00    +0.000 A 
ATOM     26  C   UNL     1      -0.073   9.917  20.350  0.00  0.00    +0.000 A 
ATOM     27  C   UNL     1      -0.241   8.898  21.286  0.00  0.00    +0.000 A 
ATOM     28  C   UNL     1      -0.540   9.207  22.610  0.00  0.00    +0.000 A 
ATOM     29  C   UNL     1      -0.677  10.538  23.003  0.00  0.00    +0.000 A 
ENDBRANCH  23  24
ENDBRANCH  21  23
ENDBRANCH   8  18
TORSDOF 4
ENDMDL
MODEL 4
REMARK VINA RESULT:      -7.2      5.842     10.062
REMARK  Name = 
REMARK  4 active torsions:
REMARK  status: ('A' for Active; 'I' for Inactive)
REMARK    1  A    between atoms: C_2  and  C_3
REMARK    2  A    between atoms: C_17  and  C_18
REMARK    3  A    between atoms: N_21  and  C_22
REMARK    4  A    between atoms: C_22  and  C_23
REMARK                            x       y       z     vdW  Elec       q    Type
REMARK                         _______ _______ _______ _____ _____    ______ ____
ROOT
ATOM      1  O   UNL     1      -5.235  12.836  21.402  0.00  0.00    +0.000 OA
ATOM      2  C   UNL     1      -4.218  12.786  20.700  0.00  0.00    +0.000 C 
ATOM      3  N   UNL     1      -4.257  12.250  19.418  0.00  0.00    +0.000 N 
ATOM      4  C   UNL     1      -5.597  12.163  18.815  0.00  0.00    +0.000 C 
ATOM      5  C   UNL     1      -5.806  10.851  18.066  0.00  0.00    +0.000 C 
ATOM      6  O   UNL     1      -4.828  10.721  17.028  0.00  0.00    +0.000 OA
ATOM      7  C   UNL     1      -3.516  10.674  17.605  0.00  0.00    +0.000 C 
ATOM      8  C   UNL     1      -3.170  11.953  18.418  0.00  0.00    +0.000 C 
ENDROOT
BRANCH   2   9
ATOM      9  C   UNL     1      -2.962  13.293  21.318  0.00  0.00    +0.000 A 
ATOM     10  C   UNL     1      -2.332  12.527  22.412  0.00  0.00    +0.000 A 
ATOM     11  C   UNL     1      -1.128  12.861  22.916  0.00  0.00    +0.000 A 
ATOM     12  C   UNL     1      -0.437  13.969  22.362  0.00  0.00    +0.000 A 
ATOM     13  N   UNL     1       0.795  14.419  22.489  0.00  0.00    +0.000 NA
ATOM     14  N   UNL     1       0.934  15.505  21.647  0.00  0.00    +0.000 NA
ATOM     15  C   UNL     1      -0.224  15.704  21.055  0.00  0.00    +0.000 A 
ATOM     16  N   UNL     1      -1.127  14.758  21.454  0.00  0.00    +0.000 N 
ATOM     17  C   UNL     1      -2.405  14.469  20.984  0.00  0.00    +0.000 A 
ENDBRANCH   2   9
BRANCH   8  18
ATOM     18  C   UNL     1      -1.778  11.773  18.934  0.00  0.00    +0.000 A 
ATOM     19  N   UNL     1      -0.778  12.665  18.610  0.00  0.00    +0.000 NA
ATOM     20  C   UNL     1       0.273  12.175  19.225  0.00  0.00    +0.000 A 
ATOM     21  N   UNL     1      -0.088  11.062  19.919  0.00  0.00    +0.000 N 
ATOM     22  N   UNL     1      -1.395  10.767  19.731  0.00  0.00    +0.000 NA
BRANCH  21  23
ATOM     23  C   UNL     1       0.762  10.229  20.744  0.00  0.00    +0.000 C 
BRANCH  23  24
ATOM     24  C   UNL     1       1.434   9.205  19.871  0.00  0.00    +0.000 A 
ATOM     25  C   UNL     1       1.607   9.446  18.501  0.00  0.00    +0.000 A 
ATOM     26  C   UNL     1       2.102   8.442  17.670  0.00  0.00    +0.000 A 
ATOM     27  C   UNL     1       2.432   7.196  18.201  0.00  0.00    +0.000 A 
ATOM     28  C   UNL     1       2.267   6.949  19.561  0.00  0.00    +0.000 A 
ATOM     29  C   UNL     1       1.767   7.948  20.396  0.00  0.00    +0.000 A 
ENDBRANCH  23  24
ENDBRANCH  21  23
ENDBRANCH   8  18
TORSDOF 4
ENDMDL
MODEL 5
REMARK VINA RESULT:      -7.1      1.624      2.133
REMARK  Name = 
REMARK  4 active torsions:
REMARK  status: ('A' for Active; 'I' for Inactive)
REMARK    1  A    between atoms: C_2  and  C_3
REMARK    2  A    between atoms: C_17  and  C_18
REMARK    3  A    between atoms: N_21  and  C_22
REMARK    4  A    between atoms: C_22  and  C_23
REMARK                            x       y       z     vdW  Elec       q    Type
REMARK                         _______ _______ _______ _____ _____    ______ ____
ROOT
ATOM      1  O   UNL     1       4.116   1.988  16.947  0.00  0.00    +0.000 OA
ATOM      2  C   UNL     1       3.989   2.988  17.665  0.00  0.00    +0.000 C 
ATOM      3  N   UNL     1       3.024   3.035  18.664  0.00  0.00    +0.000 N 
ATOM      4  C   UNL     1       2.493   1.729  19.086  0.00  0.00    +0.000 C 
ATOM      5  C   UNL     1       0.984   1.764  19.299  0.00  0.00    +0.000 C 
ATOM      6  O   UNL     1       0.655   2.736  20.298  0.00  0.00    +0.000 OA
ATOM      7  C   UNL     1       1.048   4.040  19.850  0.00  0.00    +0.000 C 
ATOM      8  C   UNL     1       2.575   4.146  19.577  0.00  0.00    +0.000 C 
ENDROOT
BRANCH   2   9
ATOM      9  C   UNL     1       4.895   4.131  17.371  0.00  0.00    +0.000 A 
ATOM     10  C   UNL     1       4.601   5.013  16.223  0.00  0.00    +0.000 A 
ATOM     11  C   UNL     1       5.304   6.139  15.990  0.00  0.00    +0.000 A 
ATOM     12  C   UNL     1       6.342   6.497  16.888  0.00  0.00    +0.000 A 
ATOM     13  N   UNL     1       7.058   7.592  17.048  0.00  0.00    +0.000 NA
ATOM     14  N   UNL     1       7.881   7.398  18.140  0.00  0.00    +0.000 NA
ATOM     15  C   UNL     1       7.666   6.182  18.593  0.00  0.00    +0.000 A 
ATOM     16  N   UNL     1       6.695   5.568  17.854  0.00  0.00    +0.000 N 
ATOM     17  C   UNL     1       6.028   4.362  18.056  0.00  0.00    +0.000 A 
ENDBRANCH   2   9
BRANCH   8  18
ATOM     18  C   UNL     1       2.840   5.553  19.144  0.00  0.00    +0.000 A 
ATOM     19  N   UNL     1       3.928   6.252  19.621  0.00  0.00    +0.000 NA
ATOM     20  C   UNL     1       3.814   7.421  19.037  0.00  0.00    +0.000 A 
ATOM     21  N   UNL     1       2.728   7.414  18.217  0.00  0.00    +0.000 N 
ATOM     22  N   UNL     1       2.070   6.234  18.284  0.00  0.00    +0.000 NA
BRANCH  21  23
ATOM     23  C   UNL     1       2.255   8.495  17.377  0.00  0.00    +0.000 C 
BRANCH  23  24
ATOM     24  C   UNL     1       1.801   9.628  18.256  0.00  0.00    +0.000 A 
ATOM     25  C   UNL     1       0.839   9.411  19.252  0.00  0.00    +0.000 A 
ATOM     26  C   UNL     1       0.319  10.486  19.970  0.00  0.00    +0.000 A 
ATOM     27  C   UNL     1       0.759  11.782  19.703  0.00  0.00    +0.000 A 
ATOM     28  C   UNL     1       1.717  12.007  18.718  0.00  0.00    +0.000 A 
ATOM     29  C   UNL     1       2.236  10.935  17.992  0.00  0.00    +0.000 A 
ENDBRANCH  23  24
ENDBRANCH  21  23
ENDBRANCH   8  18
TORSDOF 4
ENDMDL
MODEL 6
REMARK VINA RESULT:      -7.0      7.288     10.165
REMARK  Name = 
REMARK  4 active torsions:
REMARK  status: ('A' for Active; 'I' for Inactive)
REMARK    1  A    between atoms: C_2  and  C_3
REMARK    2  A    between atoms: C_17  and  C_18
REMARK    3  A    between atoms: N_21  and  C_22
REMARK    4  A    between atoms: C_22  and  C_23
REMARK                            x       y       z     vdW  Elec       q    Type
REMARK                         _______ _______ _______ _____ _____    ______ ____
ROOT
ATOM      1  O   UNL     1      -2.849  11.337  16.524  0.00  0.00    +0.000 OA
ATOM      2  C   UNL     1      -2.959  11.582  17.732  0.00  0.00    +0.000 C 
ATOM      3  N   UNL     1      -4.192  11.899  18.290  0.00  0.00    +0.000 N 
ATOM      4  C   UNL     1      -5.363  11.507  17.488  0.00  0.00    +0.000 C 
ATOM      5  C   UNL     1      -6.443  12.583  17.485  0.00  0.00    +0.000 C 
ATOM      6  O   UNL     1      -6.874  12.846  18.825  0.00  0.00    +0.000 OA
ATOM      7  C   UNL     1      -5.774  13.353  19.594  0.00  0.00    +0.000 C 
ATOM      8  C   UNL     1      -4.584  12.356  19.671  0.00  0.00    +0.000 C 
ENDROOT
BRANCH   2   9
ATOM      9  C   UNL     1      -1.703  11.554  18.529  0.00  0.00    +0.000 A 
ATOM     10  C   UNL     1      -0.740  12.666  18.404  0.00  0.00    +0.000 A 
ATOM     11  C   UNL     1       0.345  12.763  19.198  0.00  0.00    +0.000 A 
ATOM     12  C   UNL     1       0.554  11.779  20.197  0.00  0.00    +0.000 A 
ATOM     13  N   UNL     1       1.375  11.696  21.225  0.00  0.00    +0.000 NA
ATOM     14  N   UNL     1       1.080  10.531  21.904  0.00  0.00    +0.000 NA
ATOM     15  C   UNL     1       0.109   9.924  21.257  0.00  0.00    +0.000 A 
ATOM     16  N   UNL     1      -0.276  10.668  20.177  0.00  0.00    +0.000 N 
ATOM     17  C   UNL     1      -1.354  10.517  19.309  0.00  0.00    +0.000 A 
ENDBRANCH   2   9
BRANCH   8  18
ATOM     18  C   UNL     1      -3.533  13.003  20.514  0.00  0.00    +0.000 A 
ATOM     19  N   UNL     1      -2.985  12.347  21.596  0.00  0.00    +0.000 NA
ATOM     20  C   UNL     1      -2.132  13.221  22.077  0.00  0.00    +0.000 A 
ATOM     21  N   UNL     1      -2.139  14.336  21.299  0.00  0.00    +0.000 N 
ATOM     22  N   UNL     1      -3.047  14.233  20.301  0.00  0.00    +0.000 NA
BRANCH  21  23
ATOM     23  C   UNL     1      -1.336  15.529  21.468  0.00  0.00    +0.000 C 
BRANCH  23  24
ATOM     24  C   UNL     1      -1.454  16.373  20.229  0.00  0.00    +0.000 A 
ATOM     25  C   UNL     1      -0.519  16.247  19.193  0.00  0.00    +0.000 A 
ATOM     26  C   UNL     1      -0.549  17.124  18.111  0.00  0.00    +0.000 A 
ATOM     27  C   UNL     1      -1.515  18.128  18.052  0.00  0.00    +0.000 A 
ATOM     28  C   UNL     1      -2.451  18.258  19.075  0.00  0.00    +0.000 A 
ATOM     29  C   UNL     1      -2.422  17.387  20.163  0.00  0.00    +0.000 A 
ENDBRANCH  23  24
ENDBRANCH  21  23
ENDBRANCH   8  18
TORSDOF 4
ENDMDL
MODEL 7
REMARK VINA RESULT:      -6.9      5.439      9.817
REMARK  Name = 
REMARK  4 active torsions:
REMARK  status: ('A' for Active; 'I' for Inactive)
REMARK    1  A    between atoms: C_2  and  C_3
REMARK    2  A    between atoms: C_17  and  C_18
REMARK    3  A    between atoms: N_21  and  C_22
REMARK    4  A    between atoms: C_22  and  C_23
REMARK                            x       y       z     vdW  Elec       q    Type
REMARK                         _______ _______ _______ _____ _____    ______ ____
ROOT
ATOM      1  O   UNL     1      -5.107  12.347  19.868  0.00  0.00    +0.000 OA
ATOM      2  C   UNL     1      -3.910  12.335  19.553  0.00  0.00    +0.000 C 
ATOM      3  N   UNL     1      -3.502  11.897  18.299  0.00  0.00    +0.000 N 
ATOM      4  C   UNL     1      -4.554  11.872  17.270  0.00  0.00    +0.000 C 
ATOM      5  C   UNL     1      -4.477  10.622  16.400  0.00  0.00    +0.000 C 
ATOM      6  O   UNL     1      -3.202  10.557  15.751  0.00  0.00    +0.000 OA
ATOM      7  C   UNL     1      -2.165  10.450  16.737  0.00  0.00    +0.000 C 
ATOM      8  C   UNL     1      -2.135  11.661  17.711  0.00  0.00    +0.000 C 
ENDROOT
BRANCH   2   9
ATOM      9  C   UNL     1      -2.948  12.779  20.599  0.00  0.00    +0.000 A 
ATOM     10  C   UNL     1      -2.691  11.908  21.763  0.00  0.00    +0.000 A 
ATOM     11  C   UNL     1      -1.734  12.192  22.668  0.00  0.00    +0.000 A 
ATOM     12  C   UNL     1      -0.936  13.350  22.483  0.00  0.00    +0.000 A 
ATOM     13  N   UNL     1       0.168  13.786  23.055  0.00  0.00    +0.000 NA
ATOM     14  N   UNL     1       0.541  14.951  22.413  0.00  0.00    +0.000 NA
ATOM     15  C   UNL     1      -0.361  15.206  21.490  0.00  0.00    +0.000 A 
ATOM     16  N   UNL     1      -1.313  14.225  21.475  0.00  0.00    +0.000 N 
ATOM     17  C   UNL     1      -2.352  13.983  20.581  0.00  0.00    +0.000 A 
ENDBRANCH   2   9
BRANCH   8  18
ATOM     18  C   UNL     1      -1.001  11.426  18.658  0.00  0.00    +0.000 A 
ATOM     19  N   UNL     1      -0.038  12.390  18.868  0.00  0.00    +0.000 NA
ATOM     20  C   UNL     1       0.772  11.822  19.730  0.00  0.00    +0.000 A 
ATOM     21  N   UNL     1       0.298  10.589  20.052  0.00  0.00    +0.000 N 
ATOM     22  N   UNL     1      -0.828  10.299  19.360  0.00  0.00    +0.000 NA
BRANCH  21  23
ATOM     23  C   UNL     1       0.879   9.639  20.979  0.00  0.00    +0.000 C 
BRANCH  23  24
ATOM     24  C   UNL     1       1.534   8.536  20.194  0.00  0.00    +0.000 A 
ATOM     25  C   UNL     1       1.891   8.734  18.853  0.00  0.00    +0.000 A 
ATOM     26  C   UNL     1       2.369   7.670  18.090  0.00  0.00    +0.000 A 
ATOM     27  C   UNL     1       2.498   6.405  18.660  0.00  0.00    +0.000 A 
ATOM     28  C   UNL     1       2.149   6.199  19.993  0.00  0.00    +0.000 A 
ATOM     29  C   UNL     1       1.665   7.258  20.759  0.00  0.00    +0.000 A 
ENDBRANCH  23  24
ENDBRANCH  21  23
ENDBRANCH   8  18
TORSDOF 4
ENDMDL
MODEL 8
REMARK VINA RESULT:      -6.9      8.649     12.640
REMARK  Name = 
REMARK  4 active torsions:
REMARK  status: ('A' for Active; 'I' for Inactive)
REMARK    1  A    between atoms: C_2  and  C_3
REMARK    2  A    between atoms: C_17  and  C_18
REMARK    3  A    between atoms: N_21  and  C_22
REMARK    4  A    between atoms: C_22  and  C_23
REMARK                            x       y       z     vdW  Elec       q    Type
REMARK                         _______ _______ _______ _____ _____    ______ ____
ROOT
ATOM      1  O   UNL     1      -7.151  12.318  24.245  0.00  0.00    +0.000 OA
ATOM      2  C   UNL     1      -6.562  12.883  23.315  0.00  0.00    +0.000 C 
ATOM      3  N   UNL     1      -6.723  12.460  22.001  0.00  0.00    +0.000 N 
ATOM      4  C   UNL     1      -7.917  11.636  21.749  0.00  0.00    +0.000 C 
ATOM      5  C   UNL     1      -7.620  10.466  20.818  0.00  0.00    +0.000 C 
ATOM      6  O   UNL     1      -7.128  10.952  19.564  0.00  0.00    +0.000 OA
ATOM      7  C   UNL     1      -5.893  11.651  19.770  0.00  0.00    +0.000 C 
ATOM      8  C   UNL     1      -6.044  12.872  20.721  0.00  0.00    +0.000 C 
ENDROOT
BRANCH   2   9
ATOM      9  C   UNL     1      -5.654  14.001  23.691  0.00  0.00    +0.000 A 
ATOM     10  C   UNL     1      -6.117  15.394  23.535  0.00  0.00    +0.000 A 
ATOM     11  C   UNL     1      -5.396  16.440  23.984  0.00  0.00    +0.000 A 
ATOM     12  C   UNL     1      -4.166  16.192  24.646  0.00  0.00    +0.000 A 
ATOM     13  N   UNL     1      -3.351  16.951  25.351  0.00  0.00    +0.000 NA
ATOM     14  N   UNL     1      -2.332  16.147  25.821  0.00  0.00    +0.000 NA
ATOM     15  C   UNL     1      -2.538  14.930  25.366  0.00  0.00    +0.000 A 
ATOM     16  N   UNL     1      -3.688  14.890  24.629  0.00  0.00    +0.000 N 
ATOM     17  C   UNL     1      -4.387  13.810  24.096  0.00  0.00    +0.000 A 
ENDBRANCH   2   9
BRANCH   8  18
ATOM     18  C   UNL     1      -4.696  13.510  20.822  0.00  0.00    +0.000 A 
ATOM     19  N   UNL     1      -4.531  14.864  20.613  0.00  0.00    +0.000 NA
ATOM     20  C   UNL     1      -3.240  15.037  20.772  0.00  0.00    +0.000 A 
ATOM     21  N   UNL     1      -2.661  13.851  21.099  0.00  0.00    +0.000 N 
ATOM     22  N   UNL     1      -3.569  12.848  21.114  0.00  0.00    +0.000 NA
BRANCH  21  23
ATOM     23  C   UNL     1      -1.260  13.605  21.375  0.00  0.00    +0.000 C 
BRANCH  23  24
ATOM     24  C   UNL     1      -1.064  12.133  21.608  0.00  0.00    +0.000 A 
ATOM     25  C   UNL     1      -1.169  11.599  22.900  0.00  0.00    +0.000 A 
ATOM     26  C   UNL     1      -0.850  10.262  23.134  0.00  0.00    +0.000 A 
ATOM     27  C   UNL     1      -0.430   9.450  22.082  0.00  0.00    +0.000 A 
ATOM     28  C   UNL     1      -0.326   9.971  20.795  0.00  0.00    +0.000 A 
ATOM     29  C   UNL     1      -0.638  11.308  20.556  0.00  0.00    +0.000 A 
ENDBRANCH  23  24
ENDBRANCH  21  23
ENDBRANCH   8  18
TORSDOF 4
ENDMDL
MODEL 9
REMARK VINA RESULT:      -6.9      6.153     10.563
REMARK  Name = 
REMARK  4 active torsions:
REMARK  status: ('A' for Active; 'I' for Inactive)
REMARK    1  A    between atoms: C_2  and  C_3
REMARK    2  A    between atoms: C_17  and  C_18
REMARK    3  A    between atoms: N_21  and  C_22
REMARK    4  A    between atoms: C_22  and  C_23
REMARK                            x       y       z     vdW  Elec       q    Type
REMARK                         _______ _______ _______ _____ _____    ______ ____
ROOT
ATOM      1  O   UNL     1      -0.119  16.761  18.549  0.00  0.00    +0.000 OA
ATOM      2  C   UNL     1       0.427  15.816  19.131  0.00  0.00    +0.000 C 
ATOM      3  N   UNL     1       1.786  15.567  18.979  0.00  0.00    +0.000 N 
ATOM      4  C   UNL     1       2.577  16.700  18.470  0.00  0.00    +0.000 C 
ATOM      5  C   UNL     1       3.611  16.260  17.438  0.00  0.00    +0.000 C 
ATOM      6  O   UNL     1       4.504  15.303  18.020  0.00  0.00    +0.000 OA
ATOM      7  C   UNL     1       3.770  14.133  18.407  0.00  0.00    +0.000 C 
ATOM      8  C   UNL     1       2.662  14.438  19.454  0.00  0.00    +0.000 C 
ENDROOT
BRANCH   2   9
ATOM      9  C   UNL     1      -0.457  14.952  19.961  0.00  0.00    +0.000 A 
ATOM     10  C   UNL     1      -1.315  13.948  19.302  0.00  0.00    +0.000 A 
ATOM     11  C   UNL     1      -2.031  13.049  20.006  0.00  0.00    +0.000 A 
ATOM     12  C   UNL     1      -1.939  13.056  21.421  0.00  0.00    +0.000 A 
ATOM     13  N   UNL     1      -2.339  12.217  22.356  0.00  0.00    +0.000 NA
ATOM     14  N   UNL     1      -1.906  12.707  23.572  0.00  0.00    +0.000 NA
ATOM     15  C   UNL     1      -1.281  13.842  23.347  0.00  0.00    +0.000 A 
ATOM     16  N   UNL     1      -1.256  14.111  22.008  0.00  0.00    +0.000 N 
ATOM     17  C   UNL     1      -0.577  15.094  21.292  0.00  0.00    +0.000 A 
ENDBRANCH   2   9
BRANCH   8  18
ATOM     18  C   UNL     1       2.004  13.135  19.778  0.00  0.00    +0.000 A 
ATOM     19  N   UNL     1       1.849  12.721  21.085  0.00  0.00    +0.000 NA
ATOM     20  C   UNL     1       1.256  11.556  20.962  0.00  0.00    +0.000 A 
ATOM     21  N   UNL     1       1.031  11.299  19.646  0.00  0.00    +0.000 N 
ATOM     22  N   UNL     1       1.522  12.286  18.861  0.00  0.00    +0.000 NA
BRANCH  21  23
ATOM     23  C   UNL     1       0.388  10.133  19.077  0.00  0.00    +0.000 C 
BRANCH  23  24
ATOM     24  C   UNL     1       1.393   9.018  18.991  0.00  0.00    +0.000 A 
ATOM     25  C   UNL     1       2.123   8.810  17.813  0.00  0.00    +0.000 A 
ATOM     26  C   UNL     1       2.950   7.696  17.687  0.00  0.00    +0.000 A 
ATOM     27  C   UNL     1       3.059   6.785  18.738  0.00  0.00    +0.000 A 
ATOM     28  C   UNL     1       2.341   6.985  19.914  0.00  0.00    +0.000 A 
ATOM     29  C   UNL     1       1.507   8.095  20.042  0.00  0.00    +0.000 A 
ENDBRANCH  23  24
ENDBRANCH  21  23
ENDBRANCH   8  18
TORSDOF 4
ENDMDL
