MODEL 1
REMARK VINA RESULT:      -8.9      0.000      0.000
REMARK  Name = 
REMARK  4 active torsions:
REMARK  status: ('A' for Active; 'I' for Inactive)
REMARK    1  A    between atoms: C_1  and  C_2
REMARK    2  A    between atoms: C_2  and  C_4
REMARK    3  A    between atoms: C_6  and  N_7
REMARK    4  A    between atoms: C_14  and  C_15
REMARK                            x       y       z     vdW  Elec       q    Type
REMARK                         _______ _______ _______ _____ _____    ______ ____
ROOT
ATOM      1  N   UNL     1       4.432   4.801  16.524  0.00  0.00    +0.000 N 
ATOM      2  C   UNL     1       3.698   3.684  17.108  0.00  0.00    +0.000 C 
ATOM      3  C   UNL     1       3.015   4.292  18.294  0.00  0.00    +0.000 A 
ATOM      4  C   UNL     1       3.316   5.649  18.350  0.00  0.00    +0.000 A 
ATOM      5  C   UNL     1       2.833   6.493  19.332  0.00  0.00    +0.000 A 
ATOM      6  C   UNL     1       2.002   5.939  20.303  0.00  0.00    +0.000 A 
ATOM      7  C   UNL     1       1.688   4.569  20.269  0.00  0.00    +0.000 A 
ATOM      8  C   UNL     1       2.194   3.717  19.261  0.00  0.00    +0.000 A 
ATOM      9  C   UNL     1       4.208   5.981  17.236  0.00  0.00    +0.000 C 
ATOM     10  O   UNL     1       4.612   7.117  17.061  0.00  0.00    +0.000 OA
ENDROOT
BRANCH   1  13
ATOM     11  C   UNL     1       5.716   3.894  13.109  0.00  0.00    +0.000 A 
ATOM     12  C   UNL     1       4.889   3.994  14.244  0.00  0.00    +0.000 A 
ATOM     13  C   UNL     1       5.307   4.644  15.416  0.00  0.00    +0.000 A 
ATOM     14  C   UNL     1       6.612   5.164  15.443  0.00  0.00    +0.000 A 
ATOM     15  C   UNL     1       7.461   5.035  14.336  0.00  0.00    +0.000 A 
ATOM     16  C   UNL     1       7.006   4.405  13.184  0.00  0.00    +0.000 A 
ATOM     17  F   UNL     1       7.825   4.312  12.127  0.00  0.00    +0.000 F 
BRANCH  11  19
ATOM     18  C   UNL     1       5.755   1.915  11.541  0.00  0.00    +0.000 C 
ATOM     19  C   UNL     1       5.185   3.294  11.834  0.00  0.00    +0.000 C 
ATOM     20  F   UNL     1       3.822   3.168  11.864  0.00  0.00    +0.000 F 
ENDBRANCH  11  19
ENDBRANCH   1  13
BRANCH   8  21
ATOM     21  C   UNL     1       1.842   2.254  19.275  0.00  0.00    +0.000 C 
ATOM     22  F   UNL     1       2.868   1.444  18.889  0.00  0.00    +0.000 F 
ATOM     23  F   UNL     1       1.470   1.820  20.509  0.00  0.00    +0.000 F 
ATOM     24  F   UNL     1       0.806   1.961  18.444  0.00  0.00    +0.000 F 
ENDBRANCH   8  21
TORSDOF 3
ENDMDL
MODEL 2
REMARK VINA RESULT:      -8.5      0.650      1.068
REMARK  Name = 
REMARK  4 active torsions:
REMARK  status: ('A' for Active; 'I' for Inactive)
REMARK    1  A    between atoms: C_1  and  C_2
REMARK    2  A    between atoms: C_2  and  C_4
REMARK    3  A    between atoms: C_6  and  N_7
REMARK    4  A    between atoms: C_14  and  C_15
REMARK                            x       y       z     vdW  Elec       q    Type
REMARK                         _______ _______ _______ _____ _____    ______ ____
ROOT
ATOM      1  N   UNL     1       4.360   4.848  16.653  0.00  0.00    +0.000 N 
ATOM      2  C   UNL     1       3.613   3.734  17.227  0.00  0.00    +0.000 C 
ATOM      3  C   UNL     1       2.930   4.341  18.414  0.00  0.00    +0.000 A 
ATOM      4  C   UNL     1       3.244   5.695  18.480  0.00  0.00    +0.000 A 
ATOM      5  C   UNL     1       2.765   6.537  19.466  0.00  0.00    +0.000 A 
ATOM      6  C   UNL     1       1.925   5.985  20.430  0.00  0.00    +0.000 A 
ATOM      7  C   UNL     1       1.597   4.618  20.385  0.00  0.00    +0.000 A 
ATOM      8  C   UNL     1       2.100   3.768  19.374  0.00  0.00    +0.000 A 
ATOM      9  C   UNL     1       4.144   6.026  17.373  0.00  0.00    +0.000 C 
ATOM     10  O   UNL     1       4.559   7.159  17.207  0.00  0.00    +0.000 OA
ENDROOT
BRANCH   1  13
ATOM     11  C   UNL     1       5.760   3.687  13.364  0.00  0.00    +0.000 A 
ATOM     12  C   UNL     1       4.940   3.802  14.502  0.00  0.00    +0.000 A 
ATOM     13  C   UNL     1       5.238   4.690  15.548  0.00  0.00    +0.000 A 
ATOM     14  C   UNL     1       6.420   5.443  15.447  0.00  0.00    +0.000 A 
ATOM     15  C   UNL     1       7.268   5.307  14.340  0.00  0.00    +0.000 A 
ATOM     16  C   UNL     1       6.930   4.435  13.312  0.00  0.00    +0.000 A 
ATOM     17  F   UNL     1       7.741   4.336  12.250  0.00  0.00    +0.000 F 
BRANCH  11  19
ATOM     18  C   UNL     1       4.369   3.496  11.265  0.00  0.00    +0.000 C 
ATOM     19  C   UNL     1       5.340   2.810  12.212  0.00  0.00    +0.000 C 
ATOM     20  F   UNL     1       6.415   2.409  11.465  0.00  0.00    +0.000 F 
ENDBRANCH  11  19
ENDBRANCH   1  13
BRANCH   8  21
ATOM     21  C   UNL     1       1.734   2.308  19.376  0.00  0.00    +0.000 C 
ATOM     22  F   UNL     1       0.697   2.005  18.546  0.00  0.00    +0.000 F 
ATOM     23  F   UNL     1       2.767   1.513  18.985  0.00  0.00    +0.000 F 
ATOM     24  F   UNL     1       1.365   1.866  20.608  0.00  0.00    +0.000 F 
ENDBRANCH   8  21
TORSDOF 3
ENDMDL
MODEL 3
REMARK VINA RESULT:      -8.5      4.356      6.869
REMARK  Name = 
REMARK  4 active torsions:
REMARK  status: ('A' for Active; 'I' for Inactive)
REMARK    1  A    between atoms: C_1  and  C_2
REMARK    2  A    between atoms: C_2  and  C_4
REMARK    3  A    between atoms: C_6  and  N_7
REMARK    4  A    between atoms: C_14  and  C_15
REMARK                            x       y       z     vdW  Elec       q    Type
REMARK                         _______ _______ _______ _____ _____    ______ ____
ROOT
ATOM      1  N   UNL     1       1.969   7.706  19.380  0.00  0.00    +0.000 N 
ATOM      2  C   UNL     1       1.314   7.967  20.658  0.00  0.00    +0.000 C 
ATOM      3  C   UNL     1       0.805   9.367  20.514  0.00  0.00    +0.000 A 
ATOM      4  C   UNL     1       1.122   9.842  19.245  0.00  0.00    +0.000 A 
ATOM      5  C   UNL     1       0.784  11.108  18.803  0.00  0.00    +0.000 A 
ATOM      6  C   UNL     1       0.090  11.933  19.685  0.00  0.00    +0.000 A 
ATOM      7  C   UNL     1      -0.236  11.475  20.975  0.00  0.00    +0.000 A 
ATOM      8  C   UNL     1       0.120  10.181  21.415  0.00  0.00    +0.000 A 
ATOM      9  C   UNL     1       1.855   8.801  18.521  0.00  0.00    +0.000 C 
ATOM     10  O   UNL     1       2.239   8.971  17.378  0.00  0.00    +0.000 OA
ENDROOT
BRANCH   1  13
ATOM     11  C   UNL     1       3.088   4.123  19.572  0.00  0.00    +0.000 A 
ATOM     12  C   UNL     1       2.445   5.340  19.864  0.00  0.00    +0.000 A 
ATOM     13  C   UNL     1       2.683   6.506  19.118  0.00  0.00    +0.000 A 
ATOM     14  C   UNL     1       3.627   6.435  18.081  0.00  0.00    +0.000 A 
ATOM     15  C   UNL     1       4.305   5.241  17.805  0.00  0.00    +0.000 A 
ATOM     16  C   UNL     1       4.029   4.099  18.549  0.00  0.00    +0.000 A 
ATOM     17  F   UNL     1       4.670   2.960  18.256  0.00  0.00    +0.000 F 
BRANCH  11  19
ATOM     18  C   UNL     1       1.941   3.147  21.599  0.00  0.00    +0.000 C 
ATOM     19  C   UNL     1       2.715   2.869  20.320  0.00  0.00    +0.000 C 
ATOM     20  F   UNL     1       1.944   2.035  19.556  0.00  0.00    +0.000 F 
ENDBRANCH  11  19
ENDBRANCH   1  13
BRANCH   8  21
ATOM     21  C   UNL     1      -0.237   9.741  22.809  0.00  0.00    +0.000 C 
ATOM     22  F   UNL     1       0.847   9.480  23.592  0.00  0.00    +0.000 F 
ATOM     23  F   UNL     1      -0.962  10.677  23.479  0.00  0.00    +0.000 F 
ATOM     24  F   UNL     1      -0.985   8.605  22.820  0.00  0.00    +0.000 F 
ENDBRANCH   8  21
TORSDOF 3
ENDMDL
MODEL 4
REMARK VINA RESULT:      -8.3      4.187      6.490
REMARK  Name = 
REMARK  4 active torsions:
REMARK  status: ('A' for Active; 'I' for Inactive)
REMARK    1  A    between atoms: C_1  and  C_2
REMARK    2  A    between atoms: C_2  and  C_4
REMARK    3  A    between atoms: C_6  and  N_7
REMARK    4  A    between atoms: C_14  and  C_15
REMARK                            x       y       z     vdW  Elec       q    Type
REMARK                         _______ _______ _______ _____ _____    ______ ____
ROOT
ATOM      1  N   UNL     1       2.161   7.290  19.448  0.00  0.00    +0.000 N 
ATOM      2  C   UNL     1       1.459   7.668  20.670  0.00  0.00    +0.000 C 
ATOM      3  C   UNL     1       0.976   9.056  20.385  0.00  0.00    +0.000 A 
ATOM      4  C   UNL     1       1.350   9.415  19.094  0.00  0.00    +0.000 A 
ATOM      5  C   UNL     1       1.048  10.641  18.531  0.00  0.00    +0.000 A 
ATOM      6  C   UNL     1       0.331  11.547  19.309  0.00  0.00    +0.000 A 
ATOM      7  C   UNL     1      -0.052  11.207  20.618  0.00  0.00    +0.000 A 
ATOM      8  C   UNL     1       0.268   9.952  21.183  0.00  0.00    +0.000 A 
ATOM      9  C   UNL     1       2.096   8.307  18.493  0.00  0.00    +0.000 C 
ATOM     10  O   UNL     1       2.527   8.373  17.356  0.00  0.00    +0.000 OA
ENDROOT
BRANCH   1  13
ATOM     11  C   UNL     1       2.870   3.632  18.954  0.00  0.00    +0.000 A 
ATOM     12  C   UNL     1       2.188   4.846  19.156  0.00  0.00    +0.000 A 
ATOM     13  C   UNL     1       2.867   6.064  19.321  0.00  0.00    +0.000 A 
ATOM     14  C   UNL     1       4.271   6.033  19.321  0.00  0.00    +0.000 A 
ATOM     15  C   UNL     1       4.964   4.826  19.163  0.00  0.00    +0.000 A 
ATOM     16  C   UNL     1       4.260   3.641  18.980  0.00  0.00    +0.000 A 
ATOM     17  F   UNL     1       4.940   2.500  18.807  0.00  0.00    +0.000 F 
BRANCH  11  19
ATOM     18  C   UNL     1       0.603   2.524  18.868  0.00  0.00    +0.000 C 
ATOM     19  C   UNL     1       2.102   2.370  18.662  0.00  0.00    +0.000 C 
ATOM     20  F   UNL     1       2.290   1.950  17.373  0.00  0.00    +0.000 F 
ENDBRANCH  11  19
ENDBRANCH   1  13
BRANCH   8  21
ATOM     21  C   UNL     1      -0.151   9.639  22.594  0.00  0.00    +0.000 C 
ATOM     22  F   UNL     1      -0.840  10.651  23.195  0.00  0.00    +0.000 F 
ATOM     23  F   UNL     1      -0.958   8.547  22.666  0.00  0.00    +0.000 F 
ATOM     24  F   UNL     1       0.909   9.379  23.406  0.00  0.00    +0.000 F 
ENDBRANCH   8  21
TORSDOF 3
ENDMDL
MODEL 5
REMARK VINA RESULT:      -8.2      4.446      6.681
REMARK  Name = 
REMARK  4 active torsions:
REMARK  status: ('A' for Active; 'I' for Inactive)
REMARK    1  A    between atoms: C_1  and  C_2
REMARK    2  A    between atoms: C_2  and  C_4
REMARK    3  A    between atoms: C_6  and  N_7
REMARK    4  A    between atoms: C_14  and  C_15
REMARK                            x       y       z     vdW  Elec       q    Type
REMARK                         _______ _______ _______ _____ _____    ______ ____
ROOT
ATOM      1  N   UNL     1       1.910   8.020  19.199  0.00  0.00    +0.000 N 
ATOM      2  C   UNL     1       1.277   8.165  20.506  0.00  0.00    +0.000 C 
ATOM      3  C   UNL     1       0.734   9.560  20.483  0.00  0.00    +0.000 A 
ATOM      4  C   UNL     1       1.013  10.139  19.249  0.00  0.00    +0.000 A 
ATOM      5  C   UNL     1       0.638  11.427  18.914  0.00  0.00    +0.000 A 
ATOM      6  C   UNL     1      -0.055  12.164  19.871  0.00  0.00    +0.000 A 
ATOM      7  C   UNL     1      -0.343  11.600  21.127  0.00  0.00    +0.000 A 
ATOM      8  C   UNL     1       0.051  10.284  21.457  0.00  0.00    +0.000 A 
ATOM      9  C   UNL     1       1.753   9.175  18.431  0.00  0.00    +0.000 C 
ATOM     10  O   UNL     1       2.108   9.443  17.297  0.00  0.00    +0.000 OA
ENDROOT
BRANCH   1  13
ATOM     11  C   UNL     1       3.049   4.442  19.019  0.00  0.00    +0.000 A 
ATOM     12  C   UNL     1       2.384   5.615  19.424  0.00  0.00    +0.000 A 
ATOM     13  C   UNL     1       2.644   6.861  18.830  0.00  0.00    +0.000 A 
ATOM     14  C   UNL     1       3.632   6.915  17.834  0.00  0.00    +0.000 A 
ATOM     15  C   UNL     1       4.331   5.763  17.450  0.00  0.00    +0.000 A 
ATOM     16  C   UNL     1       4.033   4.542  18.043  0.00  0.00    +0.000 A 
ATOM     17  F   UNL     1       4.696   3.447  17.646  0.00  0.00    +0.000 F 
BRANCH  11  19
ATOM     18  C   UNL     1       1.832   2.262  18.642  0.00  0.00    +0.000 C 
ATOM     19  C   UNL     1       2.655   3.109  19.599  0.00  0.00    +0.000 C 
ATOM     20  F   UNL     1       3.751   2.367  19.951  0.00  0.00    +0.000 F 
ENDBRANCH  11  19
ENDBRANCH   1  13
BRANCH   8  21
ATOM     21  C   UNL     1      -0.267   9.729  22.819  0.00  0.00    +0.000 C 
ATOM     22  F   UNL     1      -0.986   8.572  22.782  0.00  0.00    +0.000 F 
ATOM     23  F   UNL     1       0.853   9.446  23.539  0.00  0.00    +0.000 F 
ATOM     24  F   UNL     1      -0.994  10.593  23.577  0.00  0.00    +0.000 F 
ENDBRANCH   8  21
TORSDOF 3
ENDMDL
MODEL 6
REMARK VINA RESULT:      -8.1      4.579      6.368
REMARK  Name = 
REMARK  4 active torsions:
REMARK  status: ('A' for Active; 'I' for Inactive)
REMARK    1  A    between atoms: C_1  and  C_2
REMARK    2  A    between atoms: C_2  and  C_4
REMARK    3  A    between atoms: C_6  and  N_7
REMARK    4  A    between atoms: C_14  and  C_15
REMARK                            x       y       z     vdW  Elec       q    Type
REMARK                         _______ _______ _______ _____ _____    ______ ____
ROOT
ATOM      1  N   UNL     1       1.942   8.079  19.254  0.00  0.00    +0.000 N 
ATOM      2  C   UNL     1       1.292   8.211  20.554  0.00  0.00    +0.000 C 
ATOM      3  C   UNL     1       0.657   9.566  20.494  0.00  0.00    +0.000 A 
ATOM      4  C   UNL     1       0.905  10.133  19.248  0.00  0.00    +0.000 A 
ATOM      5  C   UNL     1       0.447  11.385  18.881  0.00  0.00    +0.000 A 
ATOM      6  C   UNL     1      -0.300  12.096  19.817  0.00  0.00    +0.000 A 
ATOM      7  C   UNL     1      -0.559  11.544  21.084  0.00  0.00    +0.000 A 
ATOM      8  C   UNL     1      -0.080  10.266  21.448  0.00  0.00    +0.000 A 
ATOM      9  C   UNL     1       1.713   9.202  18.457  0.00  0.00    +0.000 C 
ATOM     10  O   UNL     1       2.057   9.467  17.320  0.00  0.00    +0.000 OA
ENDROOT
BRANCH   1  13
ATOM     11  C   UNL     1       4.452   5.918  17.477  0.00  0.00    +0.000 A 
ATOM     12  C   UNL     1       3.586   6.983  17.785  0.00  0.00    +0.000 A 
ATOM     13  C   UNL     1       2.755   6.963  18.917  0.00  0.00    +0.000 A 
ATOM     14  C   UNL     1       2.779   5.814  19.723  0.00  0.00    +0.000 A 
ATOM     15  C   UNL     1       3.606   4.728  19.405  0.00  0.00    +0.000 A 
ATOM     16  C   UNL     1       4.433   4.791  18.290  0.00  0.00    +0.000 A 
ATOM     17  F   UNL     1       5.234   3.753  18.014  0.00  0.00    +0.000 F 
BRANCH  11  19
ATOM     18  C   UNL     1       6.867   6.090  16.759  0.00  0.00    +0.000 C 
ATOM     19  C   UNL     1       5.412   6.032  16.321  0.00  0.00    +0.000 C 
ATOM     20  F   UNL     1       5.294   4.975  15.459  0.00  0.00    +0.000 F 
ENDBRANCH  11  19
ENDBRANCH   1  13
BRANCH   8  21
ATOM     21  C   UNL     1      -0.368   9.722  22.821  0.00  0.00    +0.000 C 
ATOM     22  F   UNL     1       0.751   9.507  23.568  0.00  0.00    +0.000 F 
ATOM     23  F   UNL     1      -1.150  10.558  23.557  0.00  0.00    +0.000 F 
ATOM     24  F   UNL     1      -1.024   8.531  22.782  0.00  0.00    +0.000 F 
ENDBRANCH   8  21
TORSDOF 3
ENDMDL
MODEL 7
REMARK VINA RESULT:      -8.1      4.601      6.418
REMARK  Name = 
REMARK  4 active torsions:
REMARK  status: ('A' for Active; 'I' for Inactive)
REMARK    1  A    between atoms: C_1  and  C_2
REMARK    2  A    between atoms: C_2  and  C_4
REMARK    3  A    between atoms: C_6  and  N_7
REMARK    4  A    between atoms: C_14  and  C_15
REMARK                            x       y       z     vdW  Elec       q    Type
REMARK                         _______ _______ _______ _____ _____    ______ ____
ROOT
ATOM      1  N   UNL     1       1.899   8.023  19.185  0.00  0.00    +0.000 N 
ATOM      2  C   UNL     1       1.264   8.163  20.492  0.00  0.00    +0.000 C 
ATOM      3  C   UNL     1       0.720   9.558  20.473  0.00  0.00    +0.000 A 
ATOM      4  C   UNL     1       0.999  10.142  19.241  0.00  0.00    +0.000 A 
ATOM      5  C   UNL     1       0.624  11.430  18.911  0.00  0.00    +0.000 A 
ATOM      6  C   UNL     1      -0.070  12.164  19.870  0.00  0.00    +0.000 A 
ATOM      7  C   UNL     1      -0.360  11.595  21.124  0.00  0.00    +0.000 A 
ATOM      8  C   UNL     1       0.035  10.278  21.449  0.00  0.00    +0.000 A 
ATOM      9  C   UNL     1       1.741   9.181  18.421  0.00  0.00    +0.000 C 
ATOM     10  O   UNL     1       2.098   9.454  17.289  0.00  0.00    +0.000 OA
ENDROOT
BRANCH   1  13
ATOM     11  C   UNL     1       4.512   5.826  17.613  0.00  0.00    +0.000 A 
ATOM     12  C   UNL     1       3.727   6.949  17.935  0.00  0.00    +0.000 A 
ATOM     13  C   UNL     1       2.634   6.866  18.813  0.00  0.00    +0.000 A 
ATOM     14  C   UNL     1       2.313   5.603  19.337  0.00  0.00    +0.000 A 
ATOM     15  C   UNL     1       3.061   4.470  18.993  0.00  0.00    +0.000 A 
ATOM     16  C   UNL     1       4.150   4.592  18.139  0.00  0.00    +0.000 A 
ATOM     17  F   UNL     1       4.868   3.501  17.839  0.00  0.00    +0.000 F 
BRANCH  11  19
ATOM     18  C   UNL     1       5.509   5.638  15.301  0.00  0.00    +0.000 C 
ATOM     19  C   UNL     1       5.746   5.983  16.762  0.00  0.00    +0.000 C 
ATOM     20  F   UNL     1       6.226   7.264  16.800  0.00  0.00    +0.000 F 
ENDBRANCH  11  19
ENDBRANCH   1  13
BRANCH   8  21
ATOM     21  C   UNL     1      -0.283   9.717  22.809  0.00  0.00    +0.000 C 
ATOM     22  F   UNL     1      -0.977   8.545  22.766  0.00  0.00    +0.000 F 
ATOM     23  F   UNL     1       0.835   9.460  23.540  0.00  0.00    +0.000 F 
ATOM     24  F   UNL     1      -1.036  10.567  23.558  0.00  0.00    +0.000 F 
ENDBRANCH   8  21
TORSDOF 3
ENDMDL
MODEL 8
REMARK VINA RESULT:      -8.1      4.522      6.749
REMARK  Name = 
REMARK  4 active torsions:
REMARK  status: ('A' for Active; 'I' for Inactive)
REMARK    1  A    between atoms: C_1  and  C_2
REMARK    2  A    between atoms: C_2  and  C_4
REMARK    3  A    between atoms: C_6  and  N_7
REMARK    4  A    between atoms: C_14  and  C_15
REMARK                            x       y       z     vdW  Elec       q    Type
REMARK                         _______ _______ _______ _____ _____    ______ ____
ROOT
ATOM      1  N   UNL     1       2.067   7.486  19.568  0.00  0.00    +0.000 N 
ATOM      2  C   UNL     1       1.369   7.842  20.799  0.00  0.00    +0.000 C 
ATOM      3  C   UNL     1       0.829   9.210  20.515  0.00  0.00    +0.000 A 
ATOM      4  C   UNL     1       1.169   9.576  19.217  0.00  0.00    +0.000 A 
ATOM      5  C   UNL     1       0.813  10.787  18.652  0.00  0.00    +0.000 A 
ATOM      6  C   UNL     1       0.073  11.669  19.437  0.00  0.00    +0.000 A 
ATOM      7  C   UNL     1      -0.278  11.320  20.754  0.00  0.00    +0.000 A 
ATOM      8  C   UNL     1       0.098  10.082  21.319  0.00  0.00    +0.000 A 
ATOM      9  C   UNL     1       1.949   8.495  18.610  0.00  0.00    +0.000 C 
ATOM     10  O   UNL     1       2.361   8.572  17.466  0.00  0.00    +0.000 OA
ENDROOT
BRANCH   1  13
ATOM     11  C   UNL     1       4.955   5.143  19.019  0.00  0.00    +0.000 A 
ATOM     12  C   UNL     1       4.176   6.314  19.083  0.00  0.00    +0.000 A 
ATOM     13  C   UNL     1       2.818   6.287  19.435  0.00  0.00    +0.000 A 
ATOM     14  C   UNL     1       2.234   5.034  19.686  0.00  0.00    +0.000 A 
ATOM     15  C   UNL     1       2.986   3.857  19.585  0.00  0.00    +0.000 A 
ATOM     16  C   UNL     1       4.335   3.922  19.256  0.00  0.00    +0.000 A 
ATOM     17  F   UNL     1       5.044   2.787  19.188  0.00  0.00    +0.000 F 
BRANCH  11  19
ATOM     18  C   UNL     1       6.796   6.296  17.732  0.00  0.00    +0.000 C 
ATOM     19  C   UNL     1       6.435   5.230  18.754  0.00  0.00    +0.000 C 
ATOM     20  F   UNL     1       7.137   5.513  19.895  0.00  0.00    +0.000 F 
ENDBRANCH  11  19
ENDBRANCH   1  13
BRANCH   8  21
ATOM     21  C   UNL     1      -0.288   9.760  22.738  0.00  0.00    +0.000 C 
ATOM     22  F   UNL     1       0.779   9.538  23.555  0.00  0.00    +0.000 F 
ATOM     23  F   UNL     1      -1.002  10.760  23.321  0.00  0.00    +0.000 F 
ATOM     24  F   UNL     1      -1.061   8.644  22.826  0.00  0.00    +0.000 F 
ENDBRANCH   8  21
TORSDOF 3
ENDMDL
MODEL 9
REMARK VINA RESULT:      -8.1      4.416      6.465
REMARK  Name = 
REMARK  4 active torsions:
REMARK  status: ('A' for Active; 'I' for Inactive)
REMARK    1  A    between atoms: C_1  and  C_2
REMARK    2  A    between atoms: C_2  and  C_4
REMARK    3  A    between atoms: C_6  and  N_7
REMARK    4  A    between atoms: C_14  and  C_15
REMARK                            x       y       z     vdW  Elec       q    Type
REMARK                         _______ _______ _______ _____ _____    ______ ____
ROOT
ATOM      1  N   UNL     1       2.005   7.676  19.015  0.00  0.00    +0.000 N 
ATOM      2  C   UNL     1       1.384   7.875  20.321  0.00  0.00    +0.000 C 
ATOM      3  C   UNL     1       0.987   9.319  20.307  0.00  0.00    +0.000 A 
ATOM      4  C   UNL     1       1.330   9.876  19.079  0.00  0.00    +0.000 A 
ATOM      5  C   UNL     1       1.091  11.198  18.753  0.00  0.00    +0.000 A 
ATOM      6  C   UNL     1       0.473  11.995  19.713  0.00  0.00    +0.000 A 
ATOM      7  C   UNL     1       0.122  11.454  20.963  0.00  0.00    +0.000 A 
ATOM      8  C   UNL     1       0.378  10.102  21.284  0.00  0.00    +0.000 A 
ATOM      9  C   UNL     1       1.971   8.847  18.256  0.00  0.00    +0.000 C 
ATOM     10  O   UNL     1       2.357   9.086  17.126  0.00  0.00    +0.000 OA
ENDROOT
BRANCH   1  13
ATOM     11  C   UNL     1       4.611   5.016  18.502  0.00  0.00    +0.000 A 
ATOM     12  C   UNL     1       3.998   6.248  18.799  0.00  0.00    +0.000 A 
ATOM     13  C   UNL     1       2.618   6.451  18.640  0.00  0.00    +0.000 A 
ATOM     14  C   UNL     1       1.857   5.387  18.128  0.00  0.00    +0.000 A 
ATOM     15  C   UNL     1       2.460   4.169  17.789  0.00  0.00    +0.000 A 
ATOM     16  C   UNL     1       3.826   3.995  17.980  0.00  0.00    +0.000 A 
ATOM     17  F   UNL     1       4.382   2.815  17.672  0.00  0.00    +0.000 F 
BRANCH  11  19
ATOM     18  C   UNL     1       6.964   5.012  17.584  0.00  0.00    +0.000 C 
ATOM     19  C   UNL     1       6.073   4.806  18.799  0.00  0.00    +0.000 C 
ATOM     20  F   UNL     1       6.518   5.658  19.774  0.00  0.00    +0.000 F 
ENDBRANCH  11  19
ENDBRANCH   1  13
BRANCH   8  21
ATOM     21  C   UNL     1      -0.002   9.572  22.641  0.00  0.00    +0.000 C 
ATOM     22  F   UNL     1      -0.824   8.487  22.591  0.00  0.00    +0.000 F 
ATOM     23  F   UNL     1       1.081   9.184  23.368  0.00  0.00    +0.000 F 
ATOM     24  F   UNL     1      -0.652  10.496  23.397  0.00  0.00    +0.000 F 
ENDBRANCH   8  21
TORSDOF 3
ENDMDL
