MODEL 1
REMARK VINA RESULT:      -9.2      0.000      0.000
REMARK  Name = 
REMARK  6 active torsions:
REMARK  status: ('A' for Active; 'I' for Inactive)
REMARK    1  A    between atoms: C_1  and  N_2
REMARK    2  A    between atoms: N_2  and  C_3
REMARK    3  A    between atoms: C_3  and  C_4
REMARK    4  A    between atoms: C_11  and  C_13
REMARK    5  A    between atoms: C_17  and  C_18
REMARK    6  A    between atoms: C_18  and  N_19
REMARK                            x       y       z     vdW  Elec       q    Type
REMARK                         _______ _______ _______ _____ _____    ______ ____
ROOT
ATOM      1  C   UNL     1       2.482   6.369  19.450  0.00  0.00    +0.000 A 
ATOM      2  C   UNL     1       2.861   6.865  18.200  0.00  0.00    +0.000 A 
ATOM      3  C   UNL     1       2.620   8.188  17.845  0.00  0.00    +0.000 A 
ATOM      4  C   UNL     1       1.845   8.991  18.675  0.00  0.00    +0.000 A 
ATOM      5  C   UNL     1       1.321   8.467  19.873  0.00  0.00    +0.000 A 
ATOM      6  C   UNL     1       1.732   7.192  20.290  0.00  0.00    +0.000 A 
ENDROOT
BRANCH   1   9
ATOM      7  C   UNL     1       3.914   2.896  20.149  0.00  0.00    +0.000 C 
ATOM      8  N   UNL     1       3.874   4.264  19.642  0.00  0.00    +0.000 N 
ATOM      9  C   UNL     1       2.684   4.955  19.892  0.00  0.00    +0.000 C 
ATOM     10  O   UNL     1       1.750   4.421  20.490  0.00  0.00    +0.000 OA
BRANCH   8  11
ATOM     11  C   UNL     1       5.144   4.885  19.247  0.00  0.00    +0.000 C 
BRANCH  11  12
ATOM     12  C   UNL     1       5.586   4.602  17.822  0.00  0.00    +0.000 A 
ATOM     13  C   UNL     1       4.701   4.277  16.780  0.00  0.00    +0.000 A 
ATOM     14  C   UNL     1       5.162   4.142  15.465  0.00  0.00    +0.000 A 
ATOM     15  C   UNL     1       6.514   4.315  15.169  0.00  0.00    +0.000 A 
ATOM     16  C   UNL     1       7.407   4.625  16.191  0.00  0.00    +0.000 A 
ATOM     17  C   UNL     1       6.939   4.772  17.496  0.00  0.00    +0.000 A 
ATOM     18  F   UNL     1       7.811   5.121  18.454  0.00  0.00    +0.000 F 
ENDBRANCH  11  12
ENDBRANCH   8  11
ENDBRANCH   1   9
BRANCH   5  19
ATOM     19  C   UNL     1       0.223   9.173  20.687  0.00  0.00    +0.000 C 
BRANCH  19  20
ATOM     20  N   UNL     1       0.671  10.325  21.440  0.00  0.00    +0.000 N 
ATOM     21  C   UNL     1       0.125  10.394  22.706  0.00  0.00    +0.000 C 
ATOM     22  O   UNL     1       0.284   9.645  23.642  0.00  0.00    +0.000 OA
ATOM     23  C   UNL     1      -0.824  11.489  22.647  0.00  0.00    +0.000 A 
ATOM     24  C   UNL     1      -2.054  11.543  23.269  0.00  0.00    +0.000 A 
ATOM     25  C   UNL     1      -2.985  12.441  22.750  0.00  0.00    +0.000 A 
ATOM     26  C   UNL     1      -2.647  13.272  21.655  0.00  0.00    +0.000 A 
ATOM     27  C   UNL     1      -1.411  13.175  21.020  0.00  0.00    +0.000 A 
ATOM     28  C   UNL     1      -0.531  12.247  21.526  0.00  0.00    +0.000 A 
ATOM     29  C   UNL     1       0.574  11.560  20.820  0.00  0.00    +0.000 C 
ATOM     30  O   UNL     1       1.174  11.984  19.862  0.00  0.00    +0.000 OA
ENDBRANCH  19  20
ENDBRANCH   5  19
TORSDOF 5
ENDMDL
MODEL 2
REMARK VINA RESULT:      -9.0      1.099      1.357
REMARK  Name = 
REMARK  6 active torsions:
REMARK  status: ('A' for Active; 'I' for Inactive)
REMARK    1  A    between atoms: C_1  and  N_2
REMARK    2  A    between atoms: N_2  and  C_3
REMARK    3  A    between atoms: C_3  and  C_4
REMARK    4  A    between atoms: C_11  and  C_13
REMARK    5  A    between atoms: C_17  and  C_18
REMARK    6  A    between atoms: C_18  and  N_19
REMARK                            x       y       z     vdW  Elec       q    Type
REMARK                         _______ _______ _______ _____ _____    ______ ____
ROOT
ATOM      1  C   UNL     1       2.294   6.692  19.343  0.00  0.00    +0.000 A 
ATOM      2  C   UNL     1       2.596   7.093  18.040  0.00  0.00    +0.000 A 
ATOM      3  C   UNL     1       2.465   8.420  17.643  0.00  0.00    +0.000 A 
ATOM      4  C   UNL     1       1.870   9.337  18.503  0.00  0.00    +0.000 A 
ATOM      5  C   UNL     1       1.416   8.924  19.770  0.00  0.00    +0.000 A 
ATOM      6  C   UNL     1       1.726   7.628  20.209  0.00  0.00    +0.000 A 
ENDROOT
BRANCH   1   9
ATOM      7  C   UNL     1       3.478   3.172  20.240  0.00  0.00    +0.000 C 
ATOM      8  N   UNL     1       3.551   4.526  19.699  0.00  0.00    +0.000 N 
ATOM      9  C   UNL     1       2.384   5.284  19.835  0.00  0.00    +0.000 C 
ATOM     10  O   UNL     1       1.378   4.816  20.369  0.00  0.00    +0.000 OA
BRANCH   8  11
ATOM     11  C   UNL     1       4.880   5.068  19.393  0.00  0.00    +0.000 C 
BRANCH  11  12
ATOM     12  C   UNL     1       5.428   4.702  18.024  0.00  0.00    +0.000 A 
ATOM     13  C   UNL     1       4.622   4.353  16.928  0.00  0.00    +0.000 A 
ATOM     14  C   UNL     1       5.186   4.140  15.664  0.00  0.00    +0.000 A 
ATOM     15  C   UNL     1       6.562   4.256  15.476  0.00  0.00    +0.000 A 
ATOM     16  C   UNL     1       7.378   4.590  16.553  0.00  0.00    +0.000 A 
ATOM     17  C   UNL     1       6.808   4.815  17.807  0.00  0.00    +0.000 A 
ATOM     18  F   UNL     1       7.610   5.185  18.817  0.00  0.00    +0.000 F 
ENDBRANCH  11  12
ENDBRANCH   8  11
ENDBRANCH   1   9
BRANCH   5  19
ATOM     19  C   UNL     1       0.490   9.781  20.649  0.00  0.00    +0.000 C 
BRANCH  19  20
ATOM     20  N   UNL     1       0.216  11.105  20.133  0.00  0.00    +0.000 N 
ATOM     21  C   UNL     1       0.578  12.114  21.002  0.00  0.00    +0.000 C 
ATOM     22  O   UNL     1       1.683  12.426  21.385  0.00  0.00    +0.000 OA
ATOM     23  C   UNL     1      -0.674  12.648  21.501  0.00  0.00    +0.000 A 
ATOM     24  C   UNL     1      -0.928  13.082  22.786  0.00  0.00    +0.000 A 
ATOM     25  C   UNL     1      -2.262  13.132  23.184  0.00  0.00    +0.000 A 
ATOM     26  C   UNL     1      -3.294  12.781  22.280  0.00  0.00    +0.000 A 
ATOM     27  C   UNL     1      -3.013  12.312  20.999  0.00  0.00    +0.000 A 
ATOM     28  C   UNL     1      -1.685  12.230  20.651  0.00  0.00    +0.000 A 
ATOM     29  C   UNL     1      -1.060  11.341  19.646  0.00  0.00    +0.000 C 
ATOM     30  O   UNL     1      -1.605  10.877  18.675  0.00  0.00    +0.000 OA
ENDBRANCH  19  20
ENDBRANCH   5  19
TORSDOF 5
ENDMDL
MODEL 3
REMARK VINA RESULT:      -9.0      1.424      1.797
REMARK  Name = 
REMARK  6 active torsions:
REMARK  status: ('A' for Active; 'I' for Inactive)
REMARK    1  A    between atoms: C_1  and  N_2
REMARK    2  A    between atoms: N_2  and  C_3
REMARK    3  A    between atoms: C_3  and  C_4
REMARK    4  A    between atoms: C_11  and  C_13
REMARK    5  A    between atoms: C_17  and  C_18
REMARK    6  A    between atoms: C_18  and  N_19
REMARK                            x       y       z     vdW  Elec       q    Type
REMARK                         _______ _______ _______ _____ _____    ______ ____
ROOT
ATOM      1  C   UNL     1       2.261   7.090  19.364  0.00  0.00    +0.000 A 
ATOM      2  C   UNL     1       2.573   7.566  18.089  0.00  0.00    +0.000 A 
ATOM      3  C   UNL     1       2.239   8.859  17.698  0.00  0.00    +0.000 A 
ATOM      4  C   UNL     1       1.437   9.639  18.525  0.00  0.00    +0.000 A 
ATOM      5  C   UNL     1       0.980   9.125  19.753  0.00  0.00    +0.000 A 
ATOM      6  C   UNL     1       1.482   7.893  20.199  0.00  0.00    +0.000 A 
ENDROOT
BRANCH   1   9
ATOM      7  C   UNL     1       3.498   3.490  19.687  0.00  0.00    +0.000 C 
ATOM      8  N   UNL     1       3.278   4.793  19.067  0.00  0.00    +0.000 N 
ATOM      9  C   UNL     1       2.563   5.708  19.846  0.00  0.00    +0.000 C 
ATOM     10  O   UNL     1       2.152   5.407  20.967  0.00  0.00    +0.000 OA
BRANCH   8  11
ATOM     11  C   UNL     1       4.085   5.134  17.889  0.00  0.00    +0.000 C 
BRANCH  11  12
ATOM     12  C   UNL     1       5.457   5.712  18.192  0.00  0.00    +0.000 A 
ATOM     13  C   UNL     1       6.258   5.299  19.270  0.00  0.00    +0.000 A 
ATOM     14  C   UNL     1       7.560   5.790  19.423  0.00  0.00    +0.000 A 
ATOM     15  C   UNL     1       8.080   6.710  18.513  0.00  0.00    +0.000 A 
ATOM     16  C   UNL     1       7.297   7.139  17.445  0.00  0.00    +0.000 A 
ATOM     17  C   UNL     1       6.005   6.635  17.290  0.00  0.00    +0.000 A 
ATOM     18  F   UNL     1       5.290   7.025  16.225  0.00  0.00    +0.000 F 
ENDBRANCH  11  12
ENDBRANCH   8  11
ENDBRANCH   1   9
BRANCH   5  19
ATOM     19  C   UNL     1      -0.138   9.788  20.576  0.00  0.00    +0.000 C 
BRANCH  19  20
ATOM     20  N   UNL     1       0.316  10.767  21.540  0.00  0.00    +0.000 N 
ATOM     21  C   UNL     1      -0.305  10.651  22.767  0.00  0.00    +0.000 C 
ATOM     22  O   UNL     1      -0.241   9.745  23.567  0.00  0.00    +0.000 OA
ATOM     23  C   UNL     1      -1.195  11.793  22.848  0.00  0.00    +0.000 A 
ATOM     24  C   UNL     1      -2.457  11.813  23.403  0.00  0.00    +0.000 A 
ATOM     25  C   UNL     1      -3.309  12.838  22.998  0.00  0.00    +0.000 A 
ATOM     26  C   UNL     1      -2.864  13.822  22.083  0.00  0.00    +0.000 A 
ATOM     27  C   UNL     1      -1.596  13.763  21.509  0.00  0.00    +0.000 A 
ATOM     28  C   UNL     1      -0.795  12.713  21.893  0.00  0.00    +0.000 A 
ATOM     29  C   UNL     1       0.318  12.093  21.139  0.00  0.00    +0.000 C 
ATOM     30  O   UNL     1       0.996  12.638  20.303  0.00  0.00    +0.000 OA
ENDBRANCH  19  20
ENDBRANCH   5  19
TORSDOF 5
ENDMDL
MODEL 4
REMARK VINA RESULT:      -8.9      2.537      4.055
REMARK  Name = 
REMARK  6 active torsions:
REMARK  status: ('A' for Active; 'I' for Inactive)
REMARK    1  A    between atoms: C_1  and  N_2
REMARK    2  A    between atoms: N_2  and  C_3
REMARK    3  A    between atoms: C_3  and  C_4
REMARK    4  A    between atoms: C_11  and  C_13
REMARK    5  A    between atoms: C_17  and  C_18
REMARK    6  A    between atoms: C_18  and  N_19
REMARK                            x       y       z     vdW  Elec       q    Type
REMARK                         _______ _______ _______ _____ _____    ______ ____
ROOT
ATOM      1  C   UNL     1       3.807   6.310  18.453  0.00  0.00    +0.000 A 
ATOM      2  C   UNL     1       3.505   5.685  19.666  0.00  0.00    +0.000 A 
ATOM      3  C   UNL     1       2.426   6.095  20.441  0.00  0.00    +0.000 A 
ATOM      4  C   UNL     1       1.731   7.249  20.093  0.00  0.00    +0.000 A 
ATOM      5  C   UNL     1       2.114   7.986  18.956  0.00  0.00    +0.000 A 
ATOM      6  C   UNL     1       3.084   7.449  18.097  0.00  0.00    +0.000 A 
ENDROOT
BRANCH   1   9
ATOM      7  C   UNL     1       6.118   4.640  15.911  0.00  0.00    +0.000 C 
ATOM      8  N   UNL     1       4.910   4.858  16.699  0.00  0.00    +0.000 N 
ATOM      9  C   UNL     1       4.963   5.943  17.580  0.00  0.00    +0.000 C 
ATOM     10  O   UNL     1       5.973   6.642  17.671  0.00  0.00    +0.000 OA
BRANCH   8  11
ATOM     11  C   UNL     1       3.682   4.176  16.271  0.00  0.00    +0.000 C 
BRANCH  11  12
ATOM     12  C   UNL     1       3.021   3.312  17.330  0.00  0.00    +0.000 A 
ATOM     13  C   UNL     1       3.670   2.259  17.996  0.00  0.00    +0.000 A 
ATOM     14  C   UNL     1       3.038   1.577  19.043  0.00  0.00    +0.000 A 
ATOM     15  C   UNL     1       1.745   1.923  19.433  0.00  0.00    +0.000 A 
ATOM     16  C   UNL     1       1.081   2.956  18.776  0.00  0.00    +0.000 A 
ATOM     17  C   UNL     1       1.722   3.640  17.743  0.00  0.00    +0.000 A 
ATOM     18  F   UNL     1       1.081   4.665  17.161  0.00  0.00    +0.000 F 
ENDBRANCH  11  12
ENDBRANCH   8  11
ENDBRANCH   1   9
BRANCH   5  19
ATOM     19  C   UNL     1       1.610   9.412  18.672  0.00  0.00    +0.000 C 
BRANCH  19  20
ATOM     20  N   UNL     1       0.454   9.813  19.447  0.00  0.00    +0.000 N 
ATOM     21  C   UNL     1      -0.529  10.412  18.686  0.00  0.00    +0.000 C 
ATOM     22  O   UNL     1      -1.210   9.930  17.809  0.00  0.00    +0.000 OA
ATOM     23  C   UNL     1      -0.484  11.815  19.050  0.00  0.00    +0.000 A 
ATOM     24  C   UNL     1      -0.662  12.889  18.203  0.00  0.00    +0.000 A 
ATOM     25  C   UNL     1      -0.151  14.116  18.622  0.00  0.00    +0.000 A 
ATOM     26  C   UNL     1       0.488  14.235  19.880  0.00  0.00    +0.000 A 
ATOM     27  C   UNL     1       0.688  13.129  20.704  0.00  0.00    +0.000 A 
ATOM     28  C   UNL     1       0.214  11.924  20.242  0.00  0.00    +0.000 A 
ATOM     29  C   UNL     1       0.690  10.565  20.587  0.00  0.00    +0.000 C 
ATOM     30  O   UNL     1       1.236  10.246  21.614  0.00  0.00    +0.000 OA
ENDBRANCH  19  20
ENDBRANCH   5  19
TORSDOF 5
ENDMDL
MODEL 5
REMARK VINA RESULT:      -8.8      1.781      2.251
REMARK  Name = 
REMARK  6 active torsions:
REMARK  status: ('A' for Active; 'I' for Inactive)
REMARK    1  A    between atoms: C_1  and  N_2
REMARK    2  A    between atoms: N_2  and  C_3
REMARK    3  A    between atoms: C_3  and  C_4
REMARK    4  A    between atoms: C_11  and  C_13
REMARK    5  A    between atoms: C_17  and  C_18
REMARK    6  A    between atoms: C_18  and  N_19
REMARK                            x       y       z     vdW  Elec       q    Type
REMARK                         _______ _______ _______ _____ _____    ______ ____
ROOT
ATOM      1  C   UNL     1       2.204   7.162  19.340  0.00  0.00    +0.000 A 
ATOM      2  C   UNL     1       2.380   7.570  18.016  0.00  0.00    +0.000 A 
ATOM      3  C   UNL     1       2.102   8.873  17.619  0.00  0.00    +0.000 A 
ATOM      4  C   UNL     1       1.485   9.746  18.509  0.00  0.00    +0.000 A 
ATOM      5  C   UNL     1       1.157   9.311  19.807  0.00  0.00    +0.000 A 
ATOM      6  C   UNL     1       1.613   8.055  20.236  0.00  0.00    +0.000 A 
ENDROOT
BRANCH   1   9
ATOM      7  C   UNL     1       3.304   3.521  19.698  0.00  0.00    +0.000 C 
ATOM      8  N   UNL     1       3.132   4.824  19.065  0.00  0.00    +0.000 N 
ATOM      9  C   UNL     1       2.456   5.775  19.836  0.00  0.00    +0.000 C 
ATOM     10  O   UNL     1       2.038   5.503  20.962  0.00  0.00    +0.000 OA
BRANCH   8  11
ATOM     11  C   UNL     1       3.947   5.122  17.881  0.00  0.00    +0.000 C 
BRANCH  11  12
ATOM     12  C   UNL     1       5.326   5.687  18.171  0.00  0.00    +0.000 A 
ATOM     13  C   UNL     1       6.134   5.265  19.241  0.00  0.00    +0.000 A 
ATOM     14  C   UNL     1       7.441   5.745  19.382  0.00  0.00    +0.000 A 
ATOM     15  C   UNL     1       7.960   6.663  18.470  0.00  0.00    +0.000 A 
ATOM     16  C   UNL     1       7.170   7.101  17.410  0.00  0.00    +0.000 A 
ATOM     17  C   UNL     1       5.873   6.608  17.267  0.00  0.00    +0.000 A 
ATOM     18  F   UNL     1       5.151   7.007  16.209  0.00  0.00    +0.000 F 
ENDBRANCH  11  12
ENDBRANCH   8  11
ENDBRANCH   1   9
BRANCH   5  19
ATOM     19  C   UNL     1       0.217  10.093  20.741  0.00  0.00    +0.000 C 
BRANCH  19  20
ATOM     20  N   UNL     1      -0.122  11.424  20.285  0.00  0.00    +0.000 N 
ATOM     21  C   UNL     1       0.271  12.416  21.162  0.00  0.00    +0.000 C 
ATOM     22  O   UNL     1       1.390  12.746  21.483  0.00  0.00    +0.000 OA
ATOM     23  C   UNL     1      -0.960  12.901  21.756  0.00  0.00    +0.000 A 
ATOM     24  C   UNL     1      -1.141  13.289  23.068  0.00  0.00    +0.000 A 
ATOM     25  C   UNL     1      -2.448  13.292  23.551  0.00  0.00    +0.000 A 
ATOM     26  C   UNL     1      -3.526  12.941  22.704  0.00  0.00    +0.000 A 
ATOM     27  C   UNL     1      -3.317  12.519  21.393  0.00  0.00    +0.000 A 
ATOM     28  C   UNL     1      -2.013  12.482  20.959  0.00  0.00    +0.000 A 
ATOM     29  C   UNL     1      -1.432  11.641  19.888  0.00  0.00    +0.000 C 
ATOM     30  O   UNL     1      -2.028  11.192  18.940  0.00  0.00    +0.000 OA
ENDBRANCH  19  20
ENDBRANCH   5  19
TORSDOF 5
ENDMDL
MODEL 6
REMARK VINA RESULT:      -8.7      2.171      3.738
REMARK  Name = 
REMARK  6 active torsions:
REMARK  status: ('A' for Active; 'I' for Inactive)
REMARK    1  A    between atoms: C_1  and  N_2
REMARK    2  A    between atoms: N_2  and  C_3
REMARK    3  A    between atoms: C_3  and  C_4
REMARK    4  A    between atoms: C_11  and  C_13
REMARK    5  A    between atoms: C_17  and  C_18
REMARK    6  A    between atoms: C_18  and  N_19
REMARK                            x       y       z     vdW  Elec       q    Type
REMARK                         _______ _______ _______ _____ _____    ______ ____
ROOT
ATOM      1  C   UNL     1       2.704   4.538  18.659  0.00  0.00    +0.000 A 
ATOM      2  C   UNL     1       2.367   3.785  19.786  0.00  0.00    +0.000 A 
ATOM      3  C   UNL     1       1.724   4.363  20.876  0.00  0.00    +0.000 A 
ATOM      4  C   UNL     1       1.559   5.744  20.922  0.00  0.00    +0.000 A 
ATOM      5  C   UNL     1       2.029   6.545  19.864  0.00  0.00    +0.000 A 
ATOM      6  C   UNL     1       2.506   5.919  18.702  0.00  0.00    +0.000 A 
ENDROOT
BRANCH   1   9
ATOM      7  C   UNL     1       5.335   3.569  16.064  0.00  0.00    +0.000 C 
ATOM      8  N   UNL     1       4.792   4.171  17.278  0.00  0.00    +0.000 N 
ATOM      9  C   UNL     1       3.417   3.994  17.464  0.00  0.00    +0.000 C 
ATOM     10  O   UNL     1       2.736   3.379  16.642  0.00  0.00    +0.000 OA
BRANCH   8  11
ATOM     11  C   UNL     1       5.739   4.582  18.320  0.00  0.00    +0.000 C 
BRANCH  11  12
ATOM     12  C   UNL     1       6.479   5.880  18.046  0.00  0.00    +0.000 A 
ATOM     13  C   UNL     1       5.989   6.896  17.209  0.00  0.00    +0.000 A 
ATOM     14  C   UNL     1       6.667   8.115  17.091  0.00  0.00    +0.000 A 
ATOM     15  C   UNL     1       7.851   8.336  17.794  0.00  0.00    +0.000 A 
ATOM     16  C   UNL     1       8.358   7.336  18.620  0.00  0.00    +0.000 A 
ATOM     17  C   UNL     1       7.670   6.129  18.743  0.00  0.00    +0.000 A 
ATOM     18  F   UNL     1       8.151   5.201  19.584  0.00  0.00    +0.000 F 
ENDBRANCH  11  12
ENDBRANCH   8  11
ENDBRANCH   1   9
BRANCH   5  19
ATOM     19  C   UNL     1       2.162   8.074  19.965  0.00  0.00    +0.000 C 
BRANCH  19  20
ATOM     20  N   UNL     1       1.042   8.817  19.428  0.00  0.00    +0.000 N 
ATOM     21  C   UNL     1       1.369   9.571  18.319  0.00  0.00    +0.000 C 
ATOM     22  O   UNL     1       1.722   9.196  17.224  0.00  0.00    +0.000 OA
ATOM     23  C   UNL     1       1.354  10.946  18.780  0.00  0.00    +0.000 A 
ATOM     24  C   UNL     1       2.220  11.950  18.399  0.00  0.00    +0.000 A 
ATOM     25  C   UNL     1       2.334  13.043  19.255  0.00  0.00    +0.000 A 
ATOM     26  C   UNL     1       1.560  13.113  20.438  0.00  0.00    +0.000 A 
ATOM     27  C   UNL     1       0.718  12.072  20.821  0.00  0.00    +0.000 A 
ATOM     28  C   UNL     1       0.662  10.985  19.980  0.00  0.00    +0.000 A 
ATOM     29  C   UNL     1       0.311   9.587  20.319  0.00  0.00    +0.000 C 
ATOM     30  O   UNL     1      -0.392   9.237  21.235  0.00  0.00    +0.000 OA
ENDBRANCH  19  20
ENDBRANCH   5  19
TORSDOF 5
ENDMDL
MODEL 7
REMARK VINA RESULT:      -8.7      3.111      8.440
REMARK  Name = 
REMARK  6 active torsions:
REMARK  status: ('A' for Active; 'I' for Inactive)
REMARK    1  A    between atoms: C_1  and  N_2
REMARK    2  A    between atoms: N_2  and  C_3
REMARK    3  A    between atoms: C_3  and  C_4
REMARK    4  A    between atoms: C_11  and  C_13
REMARK    5  A    between atoms: C_17  and  C_18
REMARK    6  A    between atoms: C_18  and  N_19
REMARK                            x       y       z     vdW  Elec       q    Type
REMARK                         _______ _______ _______ _____ _____    ______ ____
ROOT
ATOM      1  C   UNL     1       2.415   7.296  19.326  0.00  0.00    +0.000 A 
ATOM      2  C   UNL     1       2.643   8.094  18.202  0.00  0.00    +0.000 A 
ATOM      3  C   UNL     1       3.566   7.726  17.230  0.00  0.00    +0.000 A 
ATOM      4  C   UNL     1       4.398   6.632  17.451  0.00  0.00    +0.000 A 
ATOM      5  C   UNL     1       4.292   5.899  18.648  0.00  0.00    +0.000 A 
ATOM      6  C   UNL     1       3.234   6.183  19.525  0.00  0.00    +0.000 A 
ENDROOT
BRANCH   1   9
ATOM      7  C   UNL     1       0.079   9.110  21.744  0.00  0.00    +0.000 C 
ATOM      8  N   UNL     1       1.017   8.947  20.638  0.00  0.00    +0.000 N 
ATOM      9  C   UNL     1       1.461   7.638  20.424  0.00  0.00    +0.000 C 
ATOM     10  O   UNL     1       1.079   6.710  21.138  0.00  0.00    +0.000 OA
BRANCH   8  11
ATOM     11  C   UNL     1       1.135  10.047  19.674  0.00  0.00    +0.000 C 
BRANCH  11  12
ATOM     12  C   UNL     1      -0.152  10.422  18.960  0.00  0.00    +0.000 A 
ATOM     13  C   UNL     1      -0.681   9.702  17.875  0.00  0.00    +0.000 A 
ATOM     14  C   UNL     1      -1.931  10.034  17.338  0.00  0.00    +0.000 A 
ATOM     15  C   UNL     1      -2.666  11.097  17.863  0.00  0.00    +0.000 A 
ATOM     16  C   UNL     1      -2.152  11.828  18.930  0.00  0.00    +0.000 A 
ATOM     17  C   UNL     1      -0.912  11.483  19.470  0.00  0.00    +0.000 A 
ATOM     18  F   UNL     1      -0.463  12.171  20.530  0.00  0.00    +0.000 F 
ENDBRANCH  11  12
ENDBRANCH   8  11
ENDBRANCH   1   9
BRANCH   5  19
ATOM     19  C   UNL     1       5.353   4.883  19.106  0.00  0.00    +0.000 C 
BRANCH  19  20
ATOM     20  N   UNL     1       5.031   3.501  18.823  0.00  0.00    +0.000 N 
ATOM     21  C   UNL     1       4.272   3.341  17.681  0.00  0.00    +0.000 C 
ATOM     22  O   UNL     1       4.573   3.568  16.532  0.00  0.00    +0.000 OA
ATOM     23  C   UNL     1       2.950   2.979  18.156  0.00  0.00    +0.000 A 
ATOM     24  C   UNL     1       1.745   3.383  17.619  0.00  0.00    +0.000 A 
ATOM     25  C   UNL     1       0.628   3.310  18.448  0.00  0.00    +0.000 A 
ATOM     26  C   UNL     1       0.745   2.808  19.767  0.00  0.00    +0.000 A 
ATOM     27  C   UNL     1       1.977   2.438  20.300  0.00  0.00    +0.000 A 
ATOM     28  C   UNL     1       3.069   2.565  19.473  0.00  0.00    +0.000 A 
ATOM     29  C   UNL     1       4.486   2.756  19.857  0.00  0.00    +0.000 C 
ATOM     30  O   UNL     1       4.992   2.401  20.892  0.00  0.00    +0.000 OA
ENDBRANCH  19  20
ENDBRANCH   5  19
TORSDOF 5
ENDMDL
MODEL 8
REMARK VINA RESULT:      -8.7      2.816      8.434
REMARK  Name = 
REMARK  6 active torsions:
REMARK  status: ('A' for Active; 'I' for Inactive)
REMARK    1  A    between atoms: C_1  and  N_2
REMARK    2  A    between atoms: N_2  and  C_3
REMARK    3  A    between atoms: C_3  and  C_4
REMARK    4  A    between atoms: C_11  and  C_13
REMARK    5  A    between atoms: C_17  and  C_18
REMARK    6  A    between atoms: C_18  and  N_19
REMARK                            x       y       z     vdW  Elec       q    Type
REMARK                         _______ _______ _______ _____ _____    ______ ____
ROOT
ATOM      1  C   UNL     1       2.402   7.249  19.367  0.00  0.00    +0.000 A 
ATOM      2  C   UNL     1       2.621   8.089  18.273  0.00  0.00    +0.000 A 
ATOM      3  C   UNL     1       3.548   7.766  17.288  0.00  0.00    +0.000 A 
ATOM      4  C   UNL     1       4.391   6.675  17.471  0.00  0.00    +0.000 A 
ATOM      5  C   UNL     1       4.294   5.898  18.641  0.00  0.00    +0.000 A 
ATOM      6  C   UNL     1       3.233   6.139  19.526  0.00  0.00    +0.000 A 
ENDROOT
BRANCH   1   9
ATOM      7  C   UNL     1       0.026   8.945  21.832  0.00  0.00    +0.000 C 
ATOM      8  N   UNL     1       0.962   8.832  20.718  0.00  0.00    +0.000 N 
ATOM      9  C   UNL     1       1.444   7.541  20.477  0.00  0.00    +0.000 C 
ATOM     10  O   UNL     1       1.096   6.589  21.175  0.00  0.00    +0.000 OA
BRANCH   8  11
ATOM     11  C   UNL     1       1.040   9.953  19.774  0.00  0.00    +0.000 C 
BRANCH  11  12
ATOM     12  C   UNL     1      -0.298  10.495  19.301  0.00  0.00    +0.000 A 
ATOM     13  C   UNL     1      -1.019  11.492  19.977  0.00  0.00    +0.000 A 
ATOM     14  C   UNL     1      -2.189  12.028  19.425  0.00  0.00    +0.000 A 
ATOM     15  C   UNL     1      -2.666  11.568  18.199  0.00  0.00    +0.000 A 
ATOM     16  C   UNL     1      -1.971  10.571  17.520  0.00  0.00    +0.000 A 
ATOM     17  C   UNL     1      -0.798  10.052  18.069  0.00  0.00    +0.000 A 
ATOM     18  F   UNL     1      -0.119   9.129  17.371  0.00  0.00    +0.000 F 
ENDBRANCH  11  12
ENDBRANCH   8  11
ENDBRANCH   1   9
BRANCH   5  19
ATOM     19  C   UNL     1       5.367   4.879  19.062  0.00  0.00    +0.000 C 
BRANCH  19  20
ATOM     20  N   UNL     1       5.034   3.498  18.781  0.00  0.00    +0.000 N 
ATOM     21  C   UNL     1       4.253   3.344  17.654  0.00  0.00    +0.000 C 
ATOM     22  O   UNL     1       4.534   3.573  16.499  0.00  0.00    +0.000 OA
ATOM     23  C   UNL     1       2.940   2.986  18.152  0.00  0.00    +0.000 A 
ATOM     24  C   UNL     1       1.727   3.396  17.638  0.00  0.00    +0.000 A 
ATOM     25  C   UNL     1       0.625   3.325  18.488  0.00  0.00    +0.000 A 
ATOM     26  C   UNL     1       0.764   2.819  19.803  0.00  0.00    +0.000 A 
ATOM     27  C   UNL     1       2.005   2.443  20.312  0.00  0.00    +0.000 A 
ATOM     28  C   UNL     1       3.081   2.568  19.465  0.00  0.00    +0.000 A 
ATOM     29  C   UNL     1       4.506   2.753  19.823  0.00  0.00    +0.000 C 
ATOM     30  O   UNL     1       5.030   2.393  20.849  0.00  0.00    +0.000 OA
ENDBRANCH  19  20
ENDBRANCH   5  19
TORSDOF 5
ENDMDL
MODEL 9
REMARK VINA RESULT:      -8.6      4.572      6.726
REMARK  Name = 
REMARK  6 active torsions:
REMARK  status: ('A' for Active; 'I' for Inactive)
REMARK    1  A    between atoms: C_1  and  N_2
REMARK    2  A    between atoms: N_2  and  C_3
REMARK    3  A    between atoms: C_3  and  C_4
REMARK    4  A    between atoms: C_11  and  C_13
REMARK    5  A    between atoms: C_17  and  C_18
REMARK    6  A    between atoms: C_18  and  N_19
REMARK                            x       y       z     vdW  Elec       q    Type
REMARK                         _______ _______ _______ _____ _____    ______ ____
ROOT
ATOM      1  C   UNL     1       4.670   5.935  18.523  0.00  0.00    +0.000 A 
ATOM      2  C   UNL     1       4.230   6.796  17.514  0.00  0.00    +0.000 A 
ATOM      3  C   UNL     1       2.994   7.428  17.593  0.00  0.00    +0.000 A 
ATOM      4  C   UNL     1       2.107   7.077  18.606  0.00  0.00    +0.000 A 
ATOM      5  C   UNL     1       2.468   6.097  19.550  0.00  0.00    +0.000 A 
ATOM      6  C   UNL     1       3.784   5.612  19.552  0.00  0.00    +0.000 A 
ENDROOT
BRANCH   1   9
ATOM      7  C   UNL     1       7.997   4.372  17.481  0.00  0.00    +0.000 C 
ATOM      8  N   UNL     1       6.750   5.116  17.337  0.00  0.00    +0.000 N 
ATOM      9  C   UNL     1       5.972   5.201  18.496  0.00  0.00    +0.000 C 
ATOM     10  O   UNL     1       6.331   4.668  19.546  0.00  0.00    +0.000 OA
BRANCH   8  11
ATOM     11  C   UNL     1       6.595   5.967  16.151  0.00  0.00    +0.000 C 
BRANCH  11  12
ATOM     12  C   UNL     1       6.524   5.224  14.828  0.00  0.00    +0.000 A 
ATOM     13  C   UNL     1       7.511   5.309  13.831  0.00  0.00    +0.000 A 
ATOM     14  C   UNL     1       7.440   4.509  12.685  0.00  0.00    +0.000 A 
ATOM     15  C   UNL     1       6.379   3.622  12.506  0.00  0.00    +0.000 A 
ATOM     16  C   UNL     1       5.386   3.533  13.478  0.00  0.00    +0.000 A 
ATOM     17  C   UNL     1       5.470   4.323  14.624  0.00  0.00    +0.000 A 
ATOM     18  F   UNL     1       4.528   4.182  15.569  0.00  0.00    +0.000 F 
ENDBRANCH  11  12
ENDBRANCH   8  11
ENDBRANCH   1   9
BRANCH   5  19
ATOM     19  C   UNL     1       1.456   5.438  20.503  0.00  0.00    +0.000 C 
BRANCH  19  20
ATOM     20  N   UNL     1       1.020   4.116  20.105  0.00  0.00    +0.000 N 
ATOM     21  C   UNL     1       1.470   3.118  20.946  0.00  0.00    +0.000 C 
ATOM     22  O   UNL     1       1.196   2.924  22.108  0.00  0.00    +0.000 OA
ATOM     23  C   UNL     1       2.483   2.414  20.184  0.00  0.00    +0.000 A 
ATOM     24  C   UNL     1       3.663   1.892  20.673  0.00  0.00    +0.000 A 
ATOM     25  C   UNL     1       4.682   1.662  19.750  0.00  0.00    +0.000 A 
ATOM     26  C   UNL     1       4.478   1.929  18.375  0.00  0.00    +0.000 A 
ATOM     27  C   UNL     1       3.291   2.488  17.908  0.00  0.00    +0.000 A 
ATOM     28  C   UNL     1       2.322   2.747  18.849  0.00  0.00    +0.000 A 
ATOM     29  C   UNL     1       1.236   3.751  18.786  0.00  0.00    +0.000 C 
ATOM     30  O   UNL     1       0.737   4.192  17.779  0.00  0.00    +0.000 OA
ENDBRANCH  19  20
ENDBRANCH   5  19
TORSDOF 5
ENDMDL
