MODEL 1
REMARK VINA RESULT:      -9.3      0.000      0.000
REMARK  Name = 
REMARK  3 active torsions:
REMARK  status: ('A' for Active; 'I' for Inactive)
REMARK    1  A    between atoms: C_2  and  C_3
REMARK    2  A    between atoms: C_7  and  N_8
REMARK    3  A    between atoms: C_18  and  C_19
REMARK                            x       y       z     vdW  Elec       q    Type
REMARK                         _______ _______ _______ _____ _____    ______ ____
ROOT
ATOM      1  O   UNL     1       5.138   2.310  20.315  0.00  0.00    +0.000 OA
ATOM      2  C   UNL     1       4.346   3.021  19.691  0.00  0.00    +0.000 C 
ATOM      3  N   UNL     1       3.072   3.279  20.194  0.00  0.00    +0.000 N 
ATOM      4  C   UNL     1       2.685   2.747  21.492  0.00  0.00    +0.000 C 
ATOM      5  C   UNL     1       1.211   2.429  21.326  0.00  0.00    +0.000 C 
ATOM      6  C   UNL     1       0.713   3.572  20.454  0.00  0.00    +0.000 C 
ATOM      7  C   UNL     1       1.919   3.930  19.565  0.00  0.00    +0.000 C 
ENDROOT
BRANCH   7   8
ATOM      8  C   UNL     1       2.042   5.430  19.351  0.00  0.00    +0.000 A 
ATOM      9  C   UNL     1       2.319   6.005  18.097  0.00  0.00    +0.000 A 
ATOM     10  C   UNL     1       2.326   7.393  17.931  0.00  0.00    +0.000 A 
ATOM     11  C   UNL     1       2.091   8.215  19.025  0.00  0.00    +0.000 A 
ATOM     12  F   UNL     1       2.096   9.544  18.865  0.00  0.00    +0.000 F 
ATOM     13  C   UNL     1       1.850   7.676  20.281  0.00  0.00    +0.000 A 
ATOM     14  C   UNL     1       1.820   6.289  20.443  0.00  0.00    +0.000 A 
ENDBRANCH   7   8
BRANCH   2  15
ATOM     15  C   UNL     1       4.876   3.680  18.450  0.00  0.00    +0.000 A 
ATOM     16  C   UNL     1       4.563   3.313  17.139  0.00  0.00    +0.000 A 
ATOM     17  C   UNL     1       4.948   4.110  16.059  0.00  0.00    +0.000 A 
ATOM     18  C   UNL     1       5.733   5.239  16.266  0.00  0.00    +0.000 A 
ATOM     19  C   UNL     1       6.157   5.562  17.557  0.00  0.00    +0.000 A 
ATOM     20  C   UNL     1       5.725   4.788  18.645  0.00  0.00    +0.000 A 
BRANCH  19  21
ATOM     21  N   UNL     1       7.008   6.675  17.747  0.00  0.00    +0.000 N 
ATOM     22  C   UNL     1       8.012   6.871  18.658  0.00  0.00    +0.000 A 
ATOM     23  N   UNL     1       8.542   8.062  18.482  0.00  0.00    +0.000 NA
ATOM     24  N   UNL     1       7.856   8.617  17.431  0.00  0.00    +0.000 NA
ATOM     25  N   UNL     1       6.927   7.790  16.973  0.00  0.00    +0.000 NA
ENDBRANCH  19  21
ENDBRANCH   2  15
TORSDOF 3
ENDMDL
MODEL 2
REMARK VINA RESULT:      -9.2      1.958      2.676
REMARK  Name = 
REMARK  3 active torsions:
REMARK  status: ('A' for Active; 'I' for Inactive)
REMARK    1  A    between atoms: C_2  and  C_3
REMARK    2  A    between atoms: C_7  and  N_8
REMARK    3  A    between atoms: C_18  and  C_19
REMARK                            x       y       z     vdW  Elec       q    Type
REMARK                         _______ _______ _______ _____ _____    ______ ____
ROOT
ATOM      1  O   UNL     1       5.206   2.383  19.971  0.00  0.00    +0.000 OA
ATOM      2  C   UNL     1       4.605   3.237  19.314  0.00  0.00    +0.000 C 
ATOM      3  N   UNL     1       3.211   3.276  19.301  0.00  0.00    +0.000 N 
ATOM      4  C   UNL     1       2.453   2.333  20.109  0.00  0.00    +0.000 C 
ATOM      5  C   UNL     1       1.224   2.044  19.269  0.00  0.00    +0.000 C 
ATOM      6  C   UNL     1       0.915   3.397  18.643  0.00  0.00    +0.000 C 
ATOM      7  C   UNL     1       2.293   4.064  18.474  0.00  0.00    +0.000 C 
ENDROOT
BRANCH   7   8
ATOM      8  C   UNL     1       2.244   5.554  18.776  0.00  0.00    +0.000 A 
ATOM      9  C   UNL     1       2.497   6.542  17.806  0.00  0.00    +0.000 A 
ATOM     10  C   UNL     1       2.345   7.898  18.108  0.00  0.00    +0.000 A 
ATOM     11  C   UNL     1       1.972   8.276  19.390  0.00  0.00    +0.000 A 
ATOM     12  F   UNL     1       1.824   9.576  19.679  0.00  0.00    +0.000 F 
ATOM     13  C   UNL     1       1.750   7.325  20.377  0.00  0.00    +0.000 A 
ATOM     14  C   UNL     1       1.880   5.969  20.071  0.00  0.00    +0.000 A 
ENDBRANCH   7   8
BRANCH   2  15
ATOM     15  C   UNL     1       5.450   4.286  18.650  0.00  0.00    +0.000 A 
ATOM     16  C   UNL     1       6.065   5.362  19.296  0.00  0.00    +0.000 A 
ATOM     17  C   UNL     1       6.990   6.166  18.628  0.00  0.00    +0.000 A 
ATOM     18  C   UNL     1       7.245   5.966  17.275  0.00  0.00    +0.000 A 
ATOM     19  C   UNL     1       6.555   4.971  16.578  0.00  0.00    +0.000 A 
ATOM     20  C   UNL     1       5.665   4.131  17.266  0.00  0.00    +0.000 A 
BRANCH  19  21
ATOM     21  N   UNL     1       6.775   4.820  15.191  0.00  0.00    +0.000 N 
ATOM     22  C   UNL     1       6.138   4.019  14.280  0.00  0.00    +0.000 A 
ATOM     23  N   UNL     1       6.673   4.189  13.091  0.00  0.00    +0.000 NA
ATOM     24  N   UNL     1       7.662   5.125  13.264  0.00  0.00    +0.000 NA
ATOM     25  N   UNL     1       7.735   5.519  14.528  0.00  0.00    +0.000 NA
ENDBRANCH  19  21
ENDBRANCH   2  15
TORSDOF 3
ENDMDL
MODEL 3
REMARK VINA RESULT:      -8.4      2.020      2.897
REMARK  Name = 
REMARK  3 active torsions:
REMARK  status: ('A' for Active; 'I' for Inactive)
REMARK    1  A    between atoms: C_2  and  C_3
REMARK    2  A    between atoms: C_7  and  N_8
REMARK    3  A    between atoms: C_18  and  C_19
REMARK                            x       y       z     vdW  Elec       q    Type
REMARK                         _______ _______ _______ _____ _____    ______ ____
ROOT
ATOM      1  O   UNL     1       5.357   2.504  19.899  0.00  0.00    +0.000 OA
ATOM      2  C   UNL     1       4.735   3.314  19.207  0.00  0.00    +0.000 C 
ATOM      3  N   UNL     1       3.341   3.306  19.182  0.00  0.00    +0.000 N 
ATOM      4  C   UNL     1       2.607   2.367  20.017  0.00  0.00    +0.000 C 
ATOM      5  C   UNL     1       1.396   2.008  19.178  0.00  0.00    +0.000 C 
ATOM      6  C   UNL     1       1.048   3.327  18.502  0.00  0.00    +0.000 C 
ATOM      7  C   UNL     1       2.405   4.033  18.319  0.00  0.00    +0.000 C 
ENDROOT
BRANCH   7   8
ATOM      8  C   UNL     1       2.303   5.530  18.568  0.00  0.00    +0.000 A 
ATOM      9  C   UNL     1       1.881   6.076  19.795  0.00  0.00    +0.000 A 
ATOM     10  C   UNL     1       1.897   7.457  20.007  0.00  0.00    +0.000 A 
ATOM     11  C   UNL     1       2.301   8.303  18.983  0.00  0.00    +0.000 A 
ATOM     12  F   UNL     1       2.319   9.626  19.187  0.00  0.00    +0.000 F 
ATOM     13  C   UNL     1       2.689   7.794  17.751  0.00  0.00    +0.000 A 
ATOM     14  C   UNL     1       2.695   6.413  17.545  0.00  0.00    +0.000 A 
ENDBRANCH   7   8
BRANCH   2  15
ATOM     15  C   UNL     1       5.551   4.366  18.513  0.00  0.00    +0.000 A 
ATOM     16  C   UNL     1       6.151   5.467  19.129  0.00  0.00    +0.000 A 
ATOM     17  C   UNL     1       7.051   6.276  18.435  0.00  0.00    +0.000 A 
ATOM     18  C   UNL     1       7.296   6.054  17.084  0.00  0.00    +0.000 A 
ATOM     19  C   UNL     1       6.619   5.030  16.415  0.00  0.00    +0.000 A 
ATOM     20  C   UNL     1       5.754   4.186  17.130  0.00  0.00    +0.000 A 
BRANCH  19  21
ATOM     21  N   UNL     1       6.828   4.855  15.029  0.00  0.00    +0.000 N 
ATOM     22  C   UNL     1       6.191   4.030  14.140  0.00  0.00    +0.000 A 
ATOM     23  N   UNL     1       6.712   4.183  12.942  0.00  0.00    +0.000 NA
ATOM     24  N   UNL     1       7.692   5.133  13.088  0.00  0.00    +0.000 NA
ATOM     25  N   UNL     1       7.773   5.552  14.343  0.00  0.00    +0.000 NA
ENDBRANCH  19  21
ENDBRANCH   2  15
TORSDOF 3
ENDMDL
MODEL 4
REMARK VINA RESULT:      -7.8      3.269      5.665
REMARK  Name = 
REMARK  3 active torsions:
REMARK  status: ('A' for Active; 'I' for Inactive)
REMARK    1  A    between atoms: C_2  and  C_3
REMARK    2  A    between atoms: C_7  and  N_8
REMARK    3  A    between atoms: C_18  and  C_19
REMARK                            x       y       z     vdW  Elec       q    Type
REMARK                         _______ _______ _______ _____ _____    ______ ____
ROOT
ATOM      1  O   UNL     1       1.283   5.050  20.726  0.00  0.00    +0.000 OA
ATOM      2  C   UNL     1       2.021   5.004  19.739  0.00  0.00    +0.000 C 
ATOM      3  N   UNL     1       2.518   6.174  19.166  0.00  0.00    +0.000 N 
ATOM      4  C   UNL     1       2.206   7.463  19.766  0.00  0.00    +0.000 C 
ATOM      5  C   UNL     1       2.086   8.395  18.576  0.00  0.00    +0.000 C 
ATOM      6  C   UNL     1       3.177   7.894  17.640  0.00  0.00    +0.000 C 
ATOM      7  C   UNL     1       3.248   6.379  17.912  0.00  0.00    +0.000 C 
ENDROOT
BRANCH   7   8
ATOM      8  C   UNL     1       4.679   5.865  17.888  0.00  0.00    +0.000 A 
ATOM      9  C   UNL     1       5.521   5.890  19.015  0.00  0.00    +0.000 A 
ATOM     10  C   UNL     1       6.795   5.318  18.971  0.00  0.00    +0.000 A 
ATOM     11  C   UNL     1       7.249   4.748  17.789  0.00  0.00    +0.000 A 
ATOM     12  F   UNL     1       8.469   4.197  17.747  0.00  0.00    +0.000 F 
ATOM     13  C   UNL     1       6.454   4.740  16.652  0.00  0.00    +0.000 A 
ATOM     14  C   UNL     1       5.172   5.291  16.701  0.00  0.00    +0.000 A 
ENDBRANCH   7   8
BRANCH   2  15
ATOM     15  C   UNL     1       2.444   3.637  19.284  0.00  0.00    +0.000 A 
ATOM     16  C   UNL     1       2.015   3.000  18.117  0.00  0.00    +0.000 A 
ATOM     17  C   UNL     1       2.616   1.818  17.682  0.00  0.00    +0.000 A 
ATOM     18  C   UNL     1       3.592   1.201  18.458  0.00  0.00    +0.000 A 
ATOM     19  C   UNL     1       3.956   1.757  19.687  0.00  0.00    +0.000 A 
ATOM     20  C   UNL     1       3.387   2.973  20.095  0.00  0.00    +0.000 A 
BRANCH  19  21
ATOM     21  N   UNL     1       4.902   1.087  20.495  0.00  0.00    +0.000 N 
ATOM     22  C   UNL     1       5.483  -0.143  20.336  0.00  0.00    +0.000 A 
ATOM     23  N   UNL     1       6.307  -0.376  21.334  0.00  0.00    +0.000 NA
ATOM     24  N   UNL     1       6.243   0.740  22.130  0.00  0.00    +0.000 NA
ATOM     25  N   UNL     1       5.401   1.636  21.635  0.00  0.00    +0.000 NA
ENDBRANCH  19  21
ENDBRANCH   2  15
TORSDOF 3
ENDMDL
MODEL 5
REMARK VINA RESULT:      -7.7      3.432      4.895
REMARK  Name = 
REMARK  3 active torsions:
REMARK  status: ('A' for Active; 'I' for Inactive)
REMARK    1  A    between atoms: C_2  and  C_3
REMARK    2  A    between atoms: C_7  and  N_8
REMARK    3  A    between atoms: C_18  and  C_19
REMARK                            x       y       z     vdW  Elec       q    Type
REMARK                         _______ _______ _______ _____ _____    ______ ____
ROOT
ATOM      1  O   UNL     1       3.777   8.134  16.719  0.00  0.00    +0.000 OA
ATOM      2  C   UNL     1       4.021   7.203  17.490  0.00  0.00    +0.000 C 
ATOM      3  N   UNL     1       3.117   6.851  18.491  0.00  0.00    +0.000 N 
ATOM      4  C   UNL     1       1.848   7.555  18.601  0.00  0.00    +0.000 C 
ATOM      5  C   UNL     1       1.590   7.603  20.094  0.00  0.00    +0.000 C 
ATOM      6  C   UNL     1       2.100   6.251  20.571  0.00  0.00    +0.000 C 
ATOM      7  C   UNL     1       3.263   5.921  19.615  0.00  0.00    +0.000 C 
ENDROOT
BRANCH   7   8
ATOM      8  C   UNL     1       3.298   4.445  19.251  0.00  0.00    +0.000 A 
ATOM      9  C   UNL     1       2.585   3.907  18.163  0.00  0.00    +0.000 A 
ATOM     10  C   UNL     1       2.726   2.562  17.810  0.00  0.00    +0.000 A 
ATOM     11  C   UNL     1       3.551   1.739  18.563  0.00  0.00    +0.000 A 
ATOM     12  F   UNL     1       3.688   0.451  18.223  0.00  0.00    +0.000 F 
ATOM     13  C   UNL     1       4.239   2.234  19.662  0.00  0.00    +0.000 A 
ATOM     14  C   UNL     1       4.117   3.583  20.003  0.00  0.00    +0.000 A 
ENDBRANCH   7   8
BRANCH   2  15
ATOM     15  C   UNL     1       5.263   6.409  17.205  0.00  0.00    +0.000 A 
ATOM     16  C   UNL     1       6.212   6.016  18.153  0.00  0.00    +0.000 A 
ATOM     17  C   UNL     1       7.225   5.114  17.824  0.00  0.00    +0.000 A 
ATOM     18  C   UNL     1       7.364   4.663  16.516  0.00  0.00    +0.000 A 
ATOM     19  C   UNL     1       6.499   5.132  15.524  0.00  0.00    +0.000 A 
ATOM     20  C   UNL     1       5.450   5.998  15.870  0.00  0.00    +0.000 A 
BRANCH  19  21
ATOM     21  N   UNL     1       6.690   4.716  14.187  0.00  0.00    +0.000 N 
ATOM     22  C   UNL     1       6.077   3.716  13.480  0.00  0.00    +0.000 A 
ATOM     23  N   UNL     1       6.569   3.671  12.261  0.00  0.00    +0.000 NA
ATOM     24  N   UNL     1       7.505   4.673  12.206  0.00  0.00    +0.000 NA
ATOM     25  N   UNL     1       7.588   5.317  13.361  0.00  0.00    +0.000 NA
ENDBRANCH  19  21
ENDBRANCH   2  15
TORSDOF 3
ENDMDL
MODEL 6
REMARK VINA RESULT:      -7.5      3.132      4.607
REMARK  Name = 
REMARK  3 active torsions:
REMARK  status: ('A' for Active; 'I' for Inactive)
REMARK    1  A    between atoms: C_2  and  C_3
REMARK    2  A    between atoms: C_7  and  N_8
REMARK    3  A    between atoms: C_18  and  C_19
REMARK                            x       y       z     vdW  Elec       q    Type
REMARK                         _______ _______ _______ _____ _____    ______ ____
ROOT
ATOM      1  O   UNL     1       3.459   8.452  16.963  0.00  0.00    +0.000 OA
ATOM      2  C   UNL     1       3.442   7.602  17.856  0.00  0.00    +0.000 C 
ATOM      3  N   UNL     1       2.446   7.612  18.832  0.00  0.00    +0.000 N 
ATOM      4  C   UNL     1       1.383   8.604  18.770  0.00  0.00    +0.000 C 
ATOM      5  C   UNL     1       1.093   8.912  20.227  0.00  0.00    +0.000 C 
ATOM      6  C   UNL     1       1.244   7.555  20.898  0.00  0.00    +0.000 C 
ATOM      7  C   UNL     1       2.323   6.834  20.068  0.00  0.00    +0.000 C 
ENDROOT
BRANCH   7   8
ATOM      8  C   UNL     1       2.012   5.356  19.891  0.00  0.00    +0.000 A 
ATOM      9  C   UNL     1       1.582   4.805  18.670  0.00  0.00    +0.000 A 
ATOM     10  C   UNL     1       1.402   3.426  18.531  0.00  0.00    +0.000 A 
ATOM     11  C   UNL     1       1.615   2.594  19.621  0.00  0.00    +0.000 A 
ATOM     12  F   UNL     1       1.445   1.272  19.487  0.00  0.00    +0.000 F 
ATOM     13  C   UNL     1       2.005   3.114  20.848  0.00  0.00    +0.000 A 
ATOM     14  C   UNL     1       2.208   4.489  20.982  0.00  0.00    +0.000 A 
ENDBRANCH   7   8
BRANCH   2  15
ATOM     15  C   UNL     1       4.464   6.506  17.754  0.00  0.00    +0.000 A 
ATOM     16  C   UNL     1       4.913   5.712  18.812  0.00  0.00    +0.000 A 
ATOM     17  C   UNL     1       5.713   4.592  18.580  0.00  0.00    +0.000 A 
ATOM     18  C   UNL     1       6.157   4.302  17.294  0.00  0.00    +0.000 A 
ATOM     19  C   UNL     1       5.819   5.148  16.235  0.00  0.00    +0.000 A 
ATOM     20  C   UNL     1       4.970   6.243  16.465  0.00  0.00    +0.000 A 
BRANCH  19  21
ATOM     21  N   UNL     1       6.328   4.879  14.945  0.00  0.00    +0.000 N 
ATOM     22  C   UNL     1       5.875   4.019  13.981  0.00  0.00    +0.000 A 
ATOM     23  N   UNL     1       6.660   4.080  12.928  0.00  0.00    +0.000 NA
ATOM     24  N   UNL     1       7.622   5.008  13.242  0.00  0.00    +0.000 NA
ATOM     25  N   UNL     1       7.434   5.503  14.457  0.00  0.00    +0.000 NA
ENDBRANCH  19  21
ENDBRANCH   2  15
TORSDOF 3
ENDMDL
MODEL 7
REMARK VINA RESULT:      -7.2      3.352      5.563
REMARK  Name = 
REMARK  3 active torsions:
REMARK  status: ('A' for Active; 'I' for Inactive)
REMARK    1  A    between atoms: C_2  and  C_3
REMARK    2  A    between atoms: C_7  and  N_8
REMARK    3  A    between atoms: C_18  and  C_19
REMARK                            x       y       z     vdW  Elec       q    Type
REMARK                         _______ _______ _______ _____ _____    ______ ____
ROOT
ATOM      1  O   UNL     1       0.939   4.417  17.547  0.00  0.00    +0.000 OA
ATOM      2  C   UNL     1       1.998   4.745  18.088  0.00  0.00    +0.000 C 
ATOM      3  N   UNL     1       3.006   3.808  18.309  0.00  0.00    +0.000 N 
ATOM      4  C   UNL     1       2.832   2.436  17.854  0.00  0.00    +0.000 C 
ATOM      5  C   UNL     1       3.530   1.612  18.919  0.00  0.00    +0.000 C 
ATOM      6  C   UNL     1       4.736   2.469  19.276  0.00  0.00    +0.000 C 
ATOM      7  C   UNL     1       4.249   3.917  19.079  0.00  0.00    +0.000 C 
ENDROOT
BRANCH   7   8
ATOM      8  C   UNL     1       5.327   4.801  18.472  0.00  0.00    +0.000 A 
ATOM      9  C   UNL     1       5.385   5.106  17.099  0.00  0.00    +0.000 A 
ATOM     10  C   UNL     1       6.336   6.000  16.603  0.00  0.00    +0.000 A 
ATOM     11  C   UNL     1       7.259   6.569  17.471  0.00  0.00    +0.000 A 
ATOM     12  F   UNL     1       8.170   7.428  16.996  0.00  0.00    +0.000 F 
ATOM     13  C   UNL     1       7.248   6.260  18.824  0.00  0.00    +0.000 A 
ATOM     14  C   UNL     1       6.283   5.383  19.324  0.00  0.00    +0.000 A 
ENDBRANCH   7   8
BRANCH   2  15
ATOM     15  C   UNL     1       2.178   6.209  18.367  0.00  0.00    +0.000 A 
ATOM     16  C   UNL     1       2.807   7.127  17.521  0.00  0.00    +0.000 A 
ATOM     17  C   UNL     1       2.749   8.497  17.779  0.00  0.00    +0.000 A 
ATOM     18  C   UNL     1       2.142   8.967  18.939  0.00  0.00    +0.000 A 
ATOM     19  C   UNL     1       1.609   8.062  19.859  0.00  0.00    +0.000 A 
ATOM     20  C   UNL     1       1.623   6.688  19.571  0.00  0.00    +0.000 A 
BRANCH  19  21
ATOM     21  N   UNL     1       1.053   8.548  21.064  0.00  0.00    +0.000 N 
ATOM     22  C   UNL     1      -0.231   8.469  21.536  0.00  0.00    +0.000 A 
ATOM     23  N   UNL     1      -0.310   9.066  22.705  0.00  0.00    +0.000 NA
ATOM     24  N   UNL     1       0.958   9.522  22.970  0.00  0.00    +0.000 NA
ATOM     25  N   UNL     1       1.794   9.214  21.989  0.00  0.00    +0.000 NA
ENDBRANCH  19  21
ENDBRANCH   2  15
TORSDOF 3
ENDMDL
MODEL 8
REMARK VINA RESULT:      -7.1      7.365     10.195
REMARK  Name = 
REMARK  3 active torsions:
REMARK  status: ('A' for Active; 'I' for Inactive)
REMARK    1  A    between atoms: C_2  and  C_3
REMARK    2  A    between atoms: C_7  and  N_8
REMARK    3  A    between atoms: C_18  and  C_19
REMARK                            x       y       z     vdW  Elec       q    Type
REMARK                         _______ _______ _______ _____ _____    ______ ____
ROOT
ATOM      1  O   UNL     1       0.950   9.954  22.549  0.00  0.00    +0.000 OA
ATOM      2  C   UNL     1       0.482  10.527  21.563  0.00  0.00    +0.000 C 
ATOM      3  N   UNL     1       0.593   9.964  20.292  0.00  0.00    +0.000 N 
ATOM      4  C   UNL     1       1.223   8.662  20.130  0.00  0.00    +0.000 C 
ATOM      5  C   UNL     1       1.937   8.771  18.796  0.00  0.00    +0.000 C 
ATOM      6  C   UNL     1       0.970   9.596  17.959  0.00  0.00    +0.000 C 
ATOM      7  C   UNL     1       0.283  10.529  18.975  0.00  0.00    +0.000 C 
ENDROOT
BRANCH   7   8
ATOM      8  C   UNL     1      -1.194  10.715  18.666  0.00  0.00    +0.000 A 
ATOM      9  C   UNL     1      -1.886  11.913  18.927  0.00  0.00    +0.000 A 
ATOM     10  C   UNL     1      -3.218  12.070  18.537  0.00  0.00    +0.000 A 
ATOM     11  C   UNL     1      -3.878  11.018  17.916  0.00  0.00    +0.000 A 
ATOM     12  F   UNL     1      -5.155  11.169  17.540  0.00  0.00    +0.000 F 
ATOM     13  C   UNL     1      -3.232   9.813  17.678  0.00  0.00    +0.000 A 
ATOM     14  C   UNL     1      -1.894   9.663  18.047  0.00  0.00    +0.000 A 
ENDBRANCH   7   8
BRANCH   2  15
ATOM     15  C   UNL     1      -0.309  11.776  21.829  0.00  0.00    +0.000 A 
ATOM     16  C   UNL     1       0.094  13.076  21.513  0.00  0.00    +0.000 A 
ATOM     17  C   UNL     1      -0.793  14.148  21.618  0.00  0.00    +0.000 A 
ATOM     18  C   UNL     1      -2.071  13.952  22.132  0.00  0.00    +0.000 A 
ATOM     19  C   UNL     1      -2.458  12.682  22.565  0.00  0.00    +0.000 A 
ATOM     20  C   UNL     1      -1.582  11.597  22.408  0.00  0.00    +0.000 A 
BRANCH  19  21
ATOM     21  N   UNL     1      -3.735  12.509  23.144  0.00  0.00    +0.000 N 
ATOM     22  C   UNL     1      -4.096  12.382  24.460  0.00  0.00    +0.000 A 
ATOM     23  N   UNL     1      -5.400  12.232  24.548  0.00  0.00    +0.000 NA
ATOM     24  N   UNL     1      -5.862  12.273  23.257  0.00  0.00    +0.000 NA
ATOM     25  N   UNL     1      -4.869  12.444  22.395  0.00  0.00    +0.000 NA
ENDBRANCH  19  21
ENDBRANCH   2  15
TORSDOF 3
ENDMDL
MODEL 9
REMARK VINA RESULT:      -6.9      3.671      5.556
REMARK  Name = 
REMARK  3 active torsions:
REMARK  status: ('A' for Active; 'I' for Inactive)
REMARK    1  A    between atoms: C_2  and  C_3
REMARK    2  A    between atoms: C_7  and  N_8
REMARK    3  A    between atoms: C_18  and  C_19
REMARK                            x       y       z     vdW  Elec       q    Type
REMARK                         _______ _______ _______ _____ _____    ______ ____
ROOT
ATOM      1  O   UNL     1       0.744   4.296  20.148  0.00  0.00    +0.000 OA
ATOM      2  C   UNL     1       1.864   4.713  19.843  0.00  0.00    +0.000 C 
ATOM      3  N   UNL     1       2.948   3.841  19.749  0.00  0.00    +0.000 N 
ATOM      4  C   UNL     1       2.750   2.415  19.963  0.00  0.00    +0.000 C 
ATOM      5  C   UNL     1       4.032   1.971  20.641  0.00  0.00    +0.000 C 
ATOM      6  C   UNL     1       5.094   2.804  19.939  0.00  0.00    +0.000 C 
ATOM      7  C   UNL     1       4.377   4.120  19.585  0.00  0.00    +0.000 C 
ENDROOT
BRANCH   7   8
ATOM      8  C   UNL     1       4.796   4.646  18.221  0.00  0.00    +0.000 A 
ATOM      9  C   UNL     1       5.546   5.825  18.051  0.00  0.00    +0.000 A 
ATOM     10  C   UNL     1       5.989   6.215  16.785  0.00  0.00    +0.000 A 
ATOM     11  C   UNL     1       5.656   5.450  15.676  0.00  0.00    +0.000 A 
ATOM     12  F   UNL     1       6.082   5.822  14.462  0.00  0.00    +0.000 F 
ATOM     13  C   UNL     1       4.887   4.301  15.809  0.00  0.00    +0.000 A 
ATOM     14  C   UNL     1       4.463   3.898  17.076  0.00  0.00    +0.000 A 
ENDBRANCH   7   8
BRANCH   2  15
ATOM     15  C   UNL     1       1.956   6.163  19.463  0.00  0.00    +0.000 A 
ATOM     16  C   UNL     1       2.381   6.653  18.225  0.00  0.00    +0.000 A 
ATOM     17  C   UNL     1       2.242   8.004  17.902  0.00  0.00    +0.000 A 
ATOM     18  C   UNL     1       1.764   8.905  18.847  0.00  0.00    +0.000 A 
ATOM     19  C   UNL     1       1.443   8.459  20.132  0.00  0.00    +0.000 A 
ATOM     20  C   UNL     1       1.534   7.092  20.436  0.00  0.00    +0.000 A 
BRANCH  19  21
ATOM     21  N   UNL     1       1.020   9.395  21.102  0.00  0.00    +0.000 N 
ATOM     22  C   UNL     1       0.698   9.211  22.421  0.00  0.00    +0.000 A 
ATOM     23  N   UNL     1       0.346  10.361  22.955  0.00  0.00    +0.000 NA
ATOM     24  N   UNL     1       0.460  11.283  21.945  0.00  0.00    +0.000 NA
ATOM     25  N   UNL     1       0.869  10.716  20.819  0.00  0.00    +0.000 NA
ENDBRANCH  19  21
ENDBRANCH   2  15
TORSDOF 3
ENDMDL
