MODEL 1
REMARK VINA RESULT:      -9.0      0.000      0.000
REMARK  Name = 
REMARK  9 active torsions:
REMARK  status: ('A' for Active; 'I' for Inactive)
REMARK    1  A    between atoms: C_1  and  C_2
REMARK    2  A    between atoms: C_7  and  C_8
REMARK    3  A    between atoms: C_8  and  N_9
REMARK    4  A    between atoms: N_9  and  C_10
REMARK    5  A    between atoms: C_14  and  C_15
REMARK    6  A    between atoms: N_17  and  C_18
REMARK    7  A    between atoms: C_22  and  C_23
REMARK    8  A    between atoms: C_23  and  C_24
REMARK    9  A    between atoms: N_28  and  C_29
REMARK                            x       y       z     vdW  Elec       q    Type
REMARK                         _______ _______ _______ _____ _____    ______ ____
ROOT
ATOM      1  C   UNL     1       7.677   7.084  17.845  0.00  0.00    +0.000 C 
ATOM      2  O   UNL     1       8.172   6.675  18.891  0.00  0.00    +0.000 OA
ATOM      3  N   UNL     1       7.690   8.393  17.374  0.00  0.00    +0.000 N 
ATOM      4  H   UNL     1       7.131   8.553  16.537  0.00  0.00    +0.000 HD
ENDROOT
BRANCH   1   9
ATOM      5  C   UNL     1       5.054   4.687  16.548  0.00  0.00    +0.000 A 
ATOM      6  C   UNL     1       5.654   4.389  15.324  0.00  0.00    +0.000 A 
ATOM      7  C   UNL     1       6.882   4.942  15.002  0.00  0.00    +0.000 A 
ATOM      8  N   UNL     1       7.556   5.803  15.788  0.00  0.00    +0.000 NA
ATOM      9  C   UNL     1       6.947   6.116  16.964  0.00  0.00    +0.000 A 
ATOM     10  C   UNL     1       5.715   5.595  17.374  0.00  0.00    +0.000 A 
BRANCH   5  11
ATOM     11  N   UNL     1       3.789   4.205  16.922  0.00  0.00    +0.000 N 
ATOM     12  H   UNL     1       3.141   4.955  17.151  0.00  0.00    +0.000 HD
BRANCH  11  13
ATOM     13  C   UNL     1       3.707   3.029  17.788  0.00  0.00    +0.000 C 
BRANCH  13  20
ATOM     14  C   UNL     1       0.875   2.252  18.664  0.00  0.00    +0.000 C 
ATOM     15  C   UNL     1       2.060   2.374  19.636  0.00  0.00    +0.000 C 
ATOM     16  C   UNL     1       1.552   2.804  21.018  0.00  0.00    +0.000 C 
ATOM     17  O   UNL     1       1.047   4.139  20.983  0.00  0.00    +0.000 OA
ATOM     18  C   UNL     1       2.051   5.091  20.638  0.00  0.00    +0.000 C 
ATOM     19  C   UNL     1       2.625   4.814  19.253  0.00  0.00    +0.000 C 
ATOM     20  C   UNL     1       3.155   3.375  19.176  0.00  0.00    +0.000 C 
ENDBRANCH  13  20
ENDBRANCH  11  13
ENDBRANCH   5  11
ENDBRANCH   1   9
BRANCH   3  21
ATOM     21  C   UNL     1       8.308   9.499  17.995  0.00  0.00    +0.000 A 
ATOM     22  C   UNL     1       9.119   9.369  19.122  0.00  0.00    +0.000 A 
ATOM     23  C   UNL     1       9.660  10.486  19.755  0.00  0.00    +0.000 A 
ATOM     24  C   UNL     1       9.421  11.760  19.245  0.00  0.00    +0.000 A 
ATOM     25  C   UNL     1       8.662  11.924  18.078  0.00  0.00    +0.000 A 
ATOM     26  C   UNL     1       8.109  10.783  17.455  0.00  0.00    +0.000 A 
BRANCH  25  27
ATOM     27  C   UNL     1       8.506  13.308  17.483  0.00  0.00    +0.000 C 
BRANCH  27  28
ATOM     28  C   UNL     1       9.056  14.419  18.309  0.00  0.00    +0.000 A 
ATOM     29  N   UNL     1       8.409  15.052  19.271  0.00  0.00    +0.000 NA
ATOM     30  N   UNL     1       9.234  16.024  19.780  0.00  0.00    +0.000 NA
ATOM     31  C   UNL     1      10.364  15.972  19.116  0.00  0.00    +0.000 A 
ATOM     32  N   UNL     1      10.293  14.996  18.170  0.00  0.00    +0.000 N 
ATOM     33  C   UNL     1      11.324  14.670  17.223  0.00  0.00    +0.000 C 
ENDBRANCH  27  28
ENDBRANCH  25  27
ENDBRANCH   3  21
TORSDOF 7
ENDMDL
MODEL 2
REMARK VINA RESULT:      -8.8      8.562     11.073
REMARK  Name = 
REMARK  9 active torsions:
REMARK  status: ('A' for Active; 'I' for Inactive)
REMARK    1  A    between atoms: C_1  and  C_2
REMARK    2  A    between atoms: C_7  and  C_8
REMARK    3  A    between atoms: C_8  and  N_9
REMARK    4  A    between atoms: N_9  and  C_10
REMARK    5  A    between atoms: C_14  and  C_15
REMARK    6  A    between atoms: N_17  and  C_18
REMARK    7  A    between atoms: C_22  and  C_23
REMARK    8  A    between atoms: C_23  and  C_24
REMARK    9  A    between atoms: N_28  and  C_29
REMARK                            x       y       z     vdW  Elec       q    Type
REMARK                         _______ _______ _______ _____ _____    ______ ____
ROOT
ATOM      1  C   UNL     1      -0.178  10.605  22.415  0.00  0.00    +0.000 C 
ATOM      2  O   UNL     1      -0.032  10.190  23.562  0.00  0.00    +0.000 OA
ATOM      3  N   UNL     1      -0.944  11.696  22.017  0.00  0.00    +0.000 N 
ATOM      4  H   UNL     1      -1.026  11.816  21.008  0.00  0.00    +0.000 HD
ENDROOT
BRANCH   1   9
ATOM      5  C   UNL     1       1.623   7.925  20.446  0.00  0.00    +0.000 A 
ATOM      6  C   UNL     1       1.679   8.591  19.221  0.00  0.00    +0.000 A 
ATOM      7  C   UNL     1       1.173   9.875  19.107  0.00  0.00    +0.000 A 
ATOM      8  N   UNL     1       0.577  10.547  20.111  0.00  0.00    +0.000 NA
ATOM      9  C   UNL     1       0.495   9.876  21.292  0.00  0.00    +0.000 A 
ATOM     10  C   UNL     1       0.990   8.584  21.498  0.00  0.00    +0.000 A 
BRANCH   5  11
ATOM     11  N   UNL     1       2.070   6.606  20.625  0.00  0.00    +0.000 N 
ATOM     12  H   UNL     1       2.383   6.429  21.576  0.00  0.00    +0.000 HD
BRANCH  11  13
ATOM     13  C   UNL     1       2.884   5.986  19.579  0.00  0.00    +0.000 C 
BRANCH  13  20
ATOM     14  C   UNL     1       2.270   3.454  21.194  0.00  0.00    +0.000 C 
ATOM     15  C   UNL     1       1.410   3.937  20.014  0.00  0.00    +0.000 C 
ATOM     16  C   UNL     1       0.770   2.732  19.315  0.00  0.00    +0.000 C 
ATOM     17  O   UNL     1       1.760   1.934  18.665  0.00  0.00    +0.000 OA
ATOM     18  C   UNL     1       2.443   2.647  17.636  0.00  0.00    +0.000 C 
ATOM     19  C   UNL     1       3.172   3.863  18.195  0.00  0.00    +0.000 C 
ATOM     20  C   UNL     1       2.192   4.766  18.959  0.00  0.00    +0.000 C 
ENDBRANCH  13  20
ENDBRANCH  11  13
ENDBRANCH   5  11
ENDBRANCH   1   9
BRANCH   3  21
ATOM     21  C   UNL     1      -1.675  12.558  22.861  0.00  0.00    +0.000 A 
ATOM     22  C   UNL     1      -1.154  13.761  23.336  0.00  0.00    +0.000 A 
ATOM     23  C   UNL     1      -1.872  14.560  24.223  0.00  0.00    +0.000 A 
ATOM     24  C   UNL     1      -3.150  14.177  24.627  0.00  0.00    +0.000 A 
ATOM     25  C   UNL     1      -3.730  13.006  24.121  0.00  0.00    +0.000 A 
ATOM     26  C   UNL     1      -2.984  12.200  23.233  0.00  0.00    +0.000 A 
BRANCH  25  27
ATOM     27  C   UNL     1      -5.159  12.668  24.491  0.00  0.00    +0.000 C 
BRANCH  27  28
ATOM     28  C   UNL     1      -6.167  12.917  23.424  0.00  0.00    +0.000 A 
ATOM     29  N   UNL     1      -6.583  12.028  22.539  0.00  0.00    +0.000 NA
ATOM     30  N   UNL     1      -7.491  12.638  21.709  0.00  0.00    +0.000 NA
ATOM     31  C   UNL     1      -7.608  13.885  22.097  0.00  0.00    +0.000 A 
ATOM     32  N   UNL     1      -6.782  14.113  23.155  0.00  0.00    +0.000 N 
ATOM     33  C   UNL     1      -6.607  15.373  23.824  0.00  0.00    +0.000 C 
ENDBRANCH  27  28
ENDBRANCH  25  27
ENDBRANCH   3  21
TORSDOF 7
ENDMDL
MODEL 3
REMARK VINA RESULT:      -8.8      1.080      1.745
REMARK  Name = 
REMARK  9 active torsions:
REMARK  status: ('A' for Active; 'I' for Inactive)
REMARK    1  A    between atoms: C_1  and  C_2
REMARK    2  A    between atoms: C_7  and  C_8
REMARK    3  A    between atoms: C_8  and  N_9
REMARK    4  A    between atoms: N_9  and  C_10
REMARK    5  A    between atoms: C_14  and  C_15
REMARK    6  A    between atoms: N_17  and  C_18
REMARK    7  A    between atoms: C_22  and  C_23
REMARK    8  A    between atoms: C_23  and  C_24
REMARK    9  A    between atoms: N_28  and  C_29
REMARK                            x       y       z     vdW  Elec       q    Type
REMARK                         _______ _______ _______ _____ _____    ______ ____
ROOT
ATOM      1  C   UNL     1       7.759   6.934  17.990  0.00  0.00    +0.000 C 
ATOM      2  O   UNL     1       8.242   6.570  19.059  0.00  0.00    +0.000 OA
ATOM      3  N   UNL     1       7.757   8.227  17.477  0.00  0.00    +0.000 N 
ATOM      4  H   UNL     1       7.211   8.348  16.625  0.00  0.00    +0.000 HD
ENDROOT
BRANCH   1   9
ATOM      5  C   UNL     1       5.565   4.055  16.894  0.00  0.00    +0.000 A 
ATOM      6  C   UNL     1       5.815   4.134  15.523  0.00  0.00    +0.000 A 
ATOM      7  C   UNL     1       6.701   5.078  15.034  0.00  0.00    +0.000 A 
ATOM      8  N   UNL     1       7.342   5.984  15.798  0.00  0.00    +0.000 NA
ATOM      9  C   UNL     1       7.065   5.924  17.129  0.00  0.00    +0.000 A 
ATOM     10  C   UNL     1       6.193   4.996  17.708  0.00  0.00    +0.000 A 
BRANCH   5  11
ATOM     11  N   UNL     1       4.642   3.159  17.457  0.00  0.00    +0.000 N 
ATOM     12  H   UNL     1       4.887   2.188  17.276  0.00  0.00    +0.000 HD
BRANCH  11  13
ATOM     13  C   UNL     1       3.215   3.465  17.371  0.00  0.00    +0.000 C 
BRANCH  13  20
ATOM     14  C   UNL     1       2.897   5.852  19.267  0.00  0.00    +0.000 C 
ATOM     15  C   UNL     1       1.893   4.690  19.191  0.00  0.00    +0.000 C 
ATOM     16  C   UNL     1       1.238   4.484  20.562  0.00  0.00    +0.000 C 
ATOM     17  O   UNL     1       2.188   4.005  21.514  0.00  0.00    +0.000 OA
ATOM     18  C   UNL     1       2.721   2.731  21.157  0.00  0.00    +0.000 C 
ATOM     19  C   UNL     1       3.449   2.792  19.820  0.00  0.00    +0.000 C 
ATOM     20  C   UNL     1       2.517   3.344  18.731  0.00  0.00    +0.000 C 
ENDBRANCH  13  20
ENDBRANCH  11  13
ENDBRANCH   5  11
ENDBRANCH   1   9
BRANCH   3  21
ATOM     21  C   UNL     1       8.340   9.365  18.073  0.00  0.00    +0.000 A 
ATOM     22  C   UNL     1       9.045   9.303  19.275  0.00  0.00    +0.000 A 
ATOM     23  C   UNL     1       9.552  10.454  19.875  0.00  0.00    +0.000 A 
ATOM     24  C   UNL     1       9.386  11.692  19.258  0.00  0.00    +0.000 A 
ATOM     25  C   UNL     1       8.738  11.784  18.019  0.00  0.00    +0.000 A 
ATOM     26  C   UNL     1       8.218  10.611  17.430  0.00  0.00    +0.000 A 
BRANCH  25  27
ATOM     27  C   UNL     1       8.665  13.125  17.318  0.00  0.00    +0.000 C 
BRANCH  27  28
ATOM     28  C   UNL     1       8.412  14.292  18.207  0.00  0.00    +0.000 A 
ATOM     29  N   UNL     1       9.320  14.905  18.945  0.00  0.00    +0.000 NA
ATOM     30  N   UNL     1       8.700  15.914  19.641  0.00  0.00    +0.000 NA
ATOM     31  C   UNL     1       7.429  15.893  19.322  0.00  0.00    +0.000 A 
ATOM     32  N   UNL     1       7.196  14.881  18.442  0.00  0.00    +0.000 N 
ATOM     33  C   UNL     1       5.914  14.523  17.898  0.00  0.00    +0.000 C 
ENDBRANCH  27  28
ENDBRANCH  25  27
ENDBRANCH   3  21
TORSDOF 7
ENDMDL
MODEL 4
REMARK VINA RESULT:      -8.7      1.264      1.772
REMARK  Name = 
REMARK  9 active torsions:
REMARK  status: ('A' for Active; 'I' for Inactive)
REMARK    1  A    between atoms: C_1  and  C_2
REMARK    2  A    between atoms: C_7  and  C_8
REMARK    3  A    between atoms: C_8  and  N_9
REMARK    4  A    between atoms: N_9  and  C_10
REMARK    5  A    between atoms: C_14  and  C_15
REMARK    6  A    between atoms: N_17  and  C_18
REMARK    7  A    between atoms: C_22  and  C_23
REMARK    8  A    between atoms: C_23  and  C_24
REMARK    9  A    between atoms: N_28  and  C_29
REMARK                            x       y       z     vdW  Elec       q    Type
REMARK                         _______ _______ _______ _____ _____    ______ ____
ROOT
ATOM      1  C   UNL     1       7.663   7.299  18.087  0.00  0.00    +0.000 C 
ATOM      2  O   UNL     1       8.422   6.849  18.942  0.00  0.00    +0.000 OA
ATOM      3  N   UNL     1       7.557   8.626  17.684  0.00  0.00    +0.000 N 
ATOM      4  H   UNL     1       6.792   8.818  17.039  0.00  0.00    +0.000 HD
ENDROOT
BRANCH   1   9
ATOM      5  C   UNL     1       5.439   4.322  17.382  0.00  0.00    +0.000 A 
ATOM      6  C   UNL     1       4.973   4.722  16.129  0.00  0.00    +0.000 A 
ATOM      7  C   UNL     1       5.429   5.902  15.565  0.00  0.00    +0.000 A 
ATOM      8  N   UNL     1       6.292   6.745  16.164  0.00  0.00    +0.000 NA
ATOM      9  C   UNL     1       6.713   6.365  17.401  0.00  0.00    +0.000 A 
ATOM     10  C   UNL     1       6.314   5.186  18.039  0.00  0.00    +0.000 A 
BRANCH   5  11
ATOM     11  N   UNL     1       4.985   3.166  18.037  0.00  0.00    +0.000 N 
ATOM     12  H   UNL     1       5.717   2.466  18.138  0.00  0.00    +0.000 HD
BRANCH  11  13
ATOM     13  C   UNL     1       3.663   2.637  17.705  0.00  0.00    +0.000 C 
BRANCH  13  20
ATOM     14  C   UNL     1       2.105   5.104  18.643  0.00  0.00    +0.000 C 
ATOM     15  C   UNL     1       1.601   3.664  18.826  0.00  0.00    +0.000 C 
ATOM     16  C   UNL     1       0.735   3.576  20.089  0.00  0.00    +0.000 C 
ATOM     17  O   UNL     1       1.524   3.774  21.262  0.00  0.00    +0.000 OA
ATOM     18  C   UNL     1       2.525   2.770  21.421  0.00  0.00    +0.000 C 
ATOM     19  C   UNL     1       3.497   2.767  20.247  0.00  0.00    +0.000 C 
ATOM     20  C   UNL     1       2.733   2.605  18.925  0.00  0.00    +0.000 C 
ENDBRANCH  13  20
ENDBRANCH  11  13
ENDBRANCH   5  11
ENDBRANCH   1   9
BRANCH   3  21
ATOM     21  C   UNL     1       8.329   9.709  18.157  0.00  0.00    +0.000 A 
ATOM     22  C   UNL     1       9.270   9.568  19.177  0.00  0.00    +0.000 A 
ATOM     23  C   UNL     1       9.968  10.668  19.671  0.00  0.00    +0.000 A 
ATOM     24  C   UNL     1       9.756  11.931  19.124  0.00  0.00    +0.000 A 
ATOM     25  C   UNL     1       8.864  12.099  18.056  0.00  0.00    +0.000 A 
ATOM     26  C   UNL     1       8.153  10.977  17.575  0.00  0.00    +0.000 A 
BRANCH  25  27
ATOM     27  C   UNL     1       8.731  13.462  17.409  0.00  0.00    +0.000 C 
BRANCH  27  28
ATOM     28  C   UNL     1       7.688  14.346  18.000  0.00  0.00    +0.000 A 
ATOM     29  N   UNL     1       6.421  14.390  17.630  0.00  0.00    +0.000 NA
ATOM     30  N   UNL     1       5.784  15.342  18.387  0.00  0.00    +0.000 NA
ATOM     31  C   UNL     1       6.672  15.864  19.198  0.00  0.00    +0.000 A 
ATOM     32  N   UNL     1       7.885  15.287  18.978  0.00  0.00    +0.000 N 
ATOM     33  C   UNL     1       9.109  15.629  19.650  0.00  0.00    +0.000 C 
ENDBRANCH  27  28
ENDBRANCH  25  27
ENDBRANCH   3  21
TORSDOF 7
ENDMDL
MODEL 5
REMARK VINA RESULT:      -8.7      1.141      1.818
REMARK  Name = 
REMARK  9 active torsions:
REMARK  status: ('A' for Active; 'I' for Inactive)
REMARK    1  A    between atoms: C_1  and  C_2
REMARK    2  A    between atoms: C_7  and  C_8
REMARK    3  A    between atoms: C_8  and  N_9
REMARK    4  A    between atoms: N_9  and  C_10
REMARK    5  A    between atoms: C_14  and  C_15
REMARK    6  A    between atoms: N_17  and  C_18
REMARK    7  A    between atoms: C_22  and  C_23
REMARK    8  A    between atoms: C_23  and  C_24
REMARK    9  A    between atoms: N_28  and  C_29
REMARK                            x       y       z     vdW  Elec       q    Type
REMARK                         _______ _______ _______ _____ _____    ______ ____
ROOT
ATOM      1  C   UNL     1       7.706   7.227  17.897  0.00  0.00    +0.000 C 
ATOM      2  O   UNL     1       8.295   6.770  18.873  0.00  0.00    +0.000 OA
ATOM      3  N   UNL     1       7.680   8.557  17.490  0.00  0.00    +0.000 N 
ATOM      4  H   UNL     1       7.047   8.755  16.717  0.00  0.00    +0.000 HD
ENDROOT
BRANCH   1   9
ATOM      5  C   UNL     1       4.860   5.084  16.628  0.00  0.00    +0.000 A 
ATOM      6  C   UNL     1       5.463   4.642  15.449  0.00  0.00    +0.000 A 
ATOM      7  C   UNL     1       6.759   5.024  15.149  0.00  0.00    +0.000 A 
ATOM      8  N   UNL     1       7.504   5.846  15.914  0.00  0.00    +0.000 NA
ATOM      9  C   UNL     1       6.896   6.300  17.043  0.00  0.00    +0.000 A 
ATOM     10  C   UNL     1       5.596   5.956  17.428  0.00  0.00    +0.000 A 
BRANCH   5  11
ATOM     11  N   UNL     1       3.534   4.779  16.974  0.00  0.00    +0.000 N 
ATOM     12  H   UNL     1       2.948   4.617  16.158  0.00  0.00    +0.000 HD
BRANCH  11  13
ATOM     13  C   UNL     1       2.895   5.528  18.056  0.00  0.00    +0.000 C 
BRANCH  13  20
ATOM     14  C   UNL     1       4.094   3.454  19.967  0.00  0.00    +0.000 C 
ATOM     15  C   UNL     1       2.766   4.181  20.231  0.00  0.00    +0.000 C 
ATOM     16  C   UNL     1       1.834   3.274  21.044  0.00  0.00    +0.000 C 
ATOM     17  O   UNL     1       1.418   2.147  20.271  0.00  0.00    +0.000 OA
ATOM     18  C   UNL     1       0.665   2.525  19.120  0.00  0.00    +0.000 C 
ATOM     19  C   UNL     1       1.488   3.405  18.185  0.00  0.00    +0.000 C 
ATOM     20  C   UNL     1       2.024   4.629  18.942  0.00  0.00    +0.000 C 
ENDBRANCH  13  20
ENDBRANCH  11  13
ENDBRANCH   5  11
ENDBRANCH   1   9
BRANCH   3  21
ATOM     21  C   UNL     1       8.355   9.634  18.103  0.00  0.00    +0.000 A 
ATOM     22  C   UNL     1       9.118   9.478  19.260  0.00  0.00    +0.000 A 
ATOM     23  C   UNL     1       9.717  10.571  19.882  0.00  0.00    +0.000 A 
ATOM     24  C   UNL     1       9.586  11.844  19.332  0.00  0.00    +0.000 A 
ATOM     25  C   UNL     1       8.878  12.028  18.136  0.00  0.00    +0.000 A 
ATOM     26  C   UNL     1       8.265  10.913  17.525  0.00  0.00    +0.000 A 
BRANCH  25  27
ATOM     27  C   UNL     1       8.841  13.403  17.502  0.00  0.00    +0.000 C 
BRANCH  27  28
ATOM     28  C   UNL     1       7.779  14.312  18.018  0.00  0.00    +0.000 A 
ATOM     29  N   UNL     1       6.516  14.310  17.634  0.00  0.00    +0.000 NA
ATOM     30  N   UNL     1       5.857  15.304  18.315  0.00  0.00    +0.000 NA
ATOM     31  C   UNL     1       6.729  15.896  19.095  0.00  0.00    +0.000 A 
ATOM     32  N   UNL     1       7.952  15.324  18.928  0.00  0.00    +0.000 N 
ATOM     33  C   UNL     1       9.165  15.733  19.583  0.00  0.00    +0.000 C 
ENDBRANCH  27  28
ENDBRANCH  25  27
ENDBRANCH   3  21
TORSDOF 7
ENDMDL
MODEL 6
REMARK VINA RESULT:      -8.6      5.930      8.851
REMARK  Name = 
REMARK  9 active torsions:
REMARK  status: ('A' for Active; 'I' for Inactive)
REMARK    1  A    between atoms: C_1  and  C_2
REMARK    2  A    between atoms: C_7  and  C_8
REMARK    3  A    between atoms: C_8  and  N_9
REMARK    4  A    between atoms: N_9  and  C_10
REMARK    5  A    between atoms: C_14  and  C_15
REMARK    6  A    between atoms: N_17  and  C_18
REMARK    7  A    between atoms: C_22  and  C_23
REMARK    8  A    between atoms: C_23  and  C_24
REMARK    9  A    between atoms: N_28  and  C_29
REMARK                            x       y       z     vdW  Elec       q    Type
REMARK                         _______ _______ _______ _____ _____    ______ ____
ROOT
ATOM      1  C   UNL     1       1.806   6.902  20.119  0.00  0.00    +0.000 C 
ATOM      2  O   UNL     1       2.260   7.609  19.223  0.00  0.00    +0.000 OA
ATOM      3  N   UNL     1       0.955   7.303  21.144  0.00  0.00    +0.000 N 
ATOM      4  H   UNL     1       0.776   6.593  21.853  0.00  0.00    +0.000 HD
ENDROOT
BRANCH   1   9
ATOM      5  C   UNL     1       3.273   3.547  19.171  0.00  0.00    +0.000 A 
ATOM      6  C   UNL     1       2.926   2.851  20.330  0.00  0.00    +0.000 A 
ATOM      7  C   UNL     1       2.209   3.485  21.330  0.00  0.00    +0.000 A 
ATOM      8  N   UNL     1       1.832   4.778  21.290  0.00  0.00    +0.000 NA
ATOM      9  C   UNL     1       2.205   5.459  20.172  0.00  0.00    +0.000 A 
ATOM     10  C   UNL     1       2.919   4.894  19.111  0.00  0.00    +0.000 A 
BRANCH   5  11
ATOM     11  N   UNL     1       4.041   2.986  18.138  0.00  0.00    +0.000 N 
ATOM     12  H   UNL     1       4.938   2.638  18.468  0.00  0.00    +0.000 HD
BRANCH  11  13
ATOM     13  C   UNL     1       4.077   3.656  16.838  0.00  0.00    +0.000 C 
BRANCH  13  20
ATOM     14  C   UNL     1       5.137   6.514  17.160  0.00  0.00    +0.000 C 
ATOM     15  C   UNL     1       6.027   5.264  17.252  0.00  0.00    +0.000 C 
ATOM     16  C   UNL     1       7.444   5.603  16.772  0.00  0.00    +0.000 C 
ATOM     17  O   UNL     1       7.454   5.883  15.372  0.00  0.00    +0.000 OA
ATOM     18  C   UNL     1       7.050   4.761  14.589  0.00  0.00    +0.000 C 
ATOM     19  C   UNL     1       5.627   4.333  14.930  0.00  0.00    +0.000 C 
ATOM     20  C   UNL     1       5.502   4.052  16.434  0.00  0.00    +0.000 C 
ENDBRANCH  13  20
ENDBRANCH  11  13
ENDBRANCH   5  11
ENDBRANCH   1   9
BRANCH   3  21
ATOM     21  C   UNL     1       0.421   8.595  21.332  0.00  0.00    +0.000 A 
ATOM     22  C   UNL     1       0.189   9.133  22.597  0.00  0.00    +0.000 A 
ATOM     23  C   UNL     1      -0.402  10.385  22.752  0.00  0.00    +0.000 A 
ATOM     24  C   UNL     1      -0.744  11.138  21.630  0.00  0.00    +0.000 A 
ATOM     25  C   UNL     1      -0.467  10.655  20.344  0.00  0.00    +0.000 A 
ATOM     26  C   UNL     1       0.120   9.378  20.203  0.00  0.00    +0.000 A 
BRANCH  25  27
ATOM     27  C   UNL     1      -0.750  11.537  19.145  0.00  0.00    +0.000 C 
BRANCH  27  28
ATOM     28  C   UNL     1      -1.878  11.092  18.281  0.00  0.00    +0.000 A 
ATOM     29  N   UNL     1      -1.765  10.345  17.197  0.00  0.00    +0.000 NA
ATOM     30  N   UNL     1      -3.018  10.169  16.662  0.00  0.00    +0.000 NA
ATOM     31  C   UNL     1      -3.868  10.814  17.423  0.00  0.00    +0.000 A 
ATOM     32  N   UNL     1      -3.199  11.426  18.439  0.00  0.00    +0.000 N 
ATOM     33  C   UNL     1      -3.791  12.258  19.451  0.00  0.00    +0.000 C 
ENDBRANCH  27  28
ENDBRANCH  25  27
ENDBRANCH   3  21
TORSDOF 7
ENDMDL
MODEL 7
REMARK VINA RESULT:      -8.6      0.942      1.684
REMARK  Name = 
REMARK  9 active torsions:
REMARK  status: ('A' for Active; 'I' for Inactive)
REMARK    1  A    between atoms: C_1  and  C_2
REMARK    2  A    between atoms: C_7  and  C_8
REMARK    3  A    between atoms: C_8  and  N_9
REMARK    4  A    between atoms: N_9  and  C_10
REMARK    5  A    between atoms: C_14  and  C_15
REMARK    6  A    between atoms: N_17  and  C_18
REMARK    7  A    between atoms: C_22  and  C_23
REMARK    8  A    between atoms: C_23  and  C_24
REMARK    9  A    between atoms: N_28  and  C_29
REMARK                            x       y       z     vdW  Elec       q    Type
REMARK                         _______ _______ _______ _____ _____    ______ ____
ROOT
ATOM      1  C   UNL     1       7.756   7.367  17.925  0.00  0.00    +0.000 C 
ATOM      2  O   UNL     1       8.377   6.913  18.882  0.00  0.00    +0.000 OA
ATOM      3  N   UNL     1       7.706   8.698  17.522  0.00  0.00    +0.000 N 
ATOM      4  H   UNL     1       7.048   8.892  16.769  0.00  0.00    +0.000 HD
ENDROOT
BRANCH   1   9
ATOM      5  C   UNL     1       4.864   5.260  16.699  0.00  0.00    +0.000 A 
ATOM      6  C   UNL     1       5.464   4.766  15.539  0.00  0.00    +0.000 A 
ATOM      7  C   UNL     1       6.772   5.105  15.238  0.00  0.00    +0.000 A 
ATOM      8  N   UNL     1       7.532   5.931  15.983  0.00  0.00    +0.000 NA
ATOM      9  C   UNL     1       6.928   6.436  17.093  0.00  0.00    +0.000 A 
ATOM     10  C   UNL     1       5.617   6.137  17.478  0.00  0.00    +0.000 A 
BRANCH   5  11
ATOM     11  N   UNL     1       3.528   5.000  17.044  0.00  0.00    +0.000 N 
ATOM     12  H   UNL     1       2.903   5.064  16.244  0.00  0.00    +0.000 HD
BRANCH  11  13
ATOM     13  C   UNL     1       2.998   5.553  18.290  0.00  0.00    +0.000 C 
BRANCH  13  20
ATOM     14  C   UNL     1       4.186   3.156  19.785  0.00  0.00    +0.000 C 
ATOM     15  C   UNL     1       2.890   3.864  20.212  0.00  0.00    +0.000 C 
ATOM     16  C   UNL     1       1.953   2.859  20.894  0.00  0.00    +0.000 C 
ATOM     17  O   UNL     1       1.478   1.890  19.959  0.00  0.00    +0.000 OA
ATOM     18  C   UNL     1       0.705   2.476  18.914  0.00  0.00    +0.000 C 
ATOM     19  C   UNL     1       1.527   3.477  18.111  0.00  0.00    +0.000 C 
ATOM     20  C   UNL     1       2.125   4.542  19.043  0.00  0.00    +0.000 C 
ENDBRANCH  13  20
ENDBRANCH  11  13
ENDBRANCH   5  11
ENDBRANCH   1   9
BRANCH   3  21
ATOM     21  C   UNL     1       8.390   9.779  18.118  0.00  0.00    +0.000 A 
ATOM     22  C   UNL     1       9.223   9.619  19.225  0.00  0.00    +0.000 A 
ATOM     23  C   UNL     1       9.831  10.714  19.834  0.00  0.00    +0.000 A 
ATOM     24  C   UNL     1       9.638  11.994  19.320  0.00  0.00    +0.000 A 
ATOM     25  C   UNL     1       8.858  12.184  18.171  0.00  0.00    +0.000 A 
ATOM     26  C   UNL     1       8.236  11.066  17.573  0.00  0.00    +0.000 A 
BRANCH  25  27
ATOM     27  C   UNL     1       8.751  13.570  17.569  0.00  0.00    +0.000 C 
BRANCH  27  28
ATOM     28  C   UNL     1       9.784  14.541  18.024  0.00  0.00    +0.000 A 
ATOM     29  N   UNL     1      10.991  14.676  17.505  0.00  0.00    +0.000 NA
ATOM     30  N   UNL     1      11.656  15.652  18.206  0.00  0.00    +0.000 NA
ATOM     31  C   UNL     1      10.847  16.089  19.141  0.00  0.00    +0.000 A 
ATOM     32  N   UNL     1       9.670  15.409  19.081  0.00  0.00    +0.000 N 
ATOM     33  C   UNL     1       8.555  15.583  19.971  0.00  0.00    +0.000 C 
ENDBRANCH  27  28
ENDBRANCH  25  27
ENDBRANCH   3  21
TORSDOF 7
ENDMDL
MODEL 8
REMARK VINA RESULT:      -8.6      5.627      8.928
REMARK  Name = 
REMARK  9 active torsions:
REMARK  status: ('A' for Active; 'I' for Inactive)
REMARK    1  A    between atoms: C_1  and  C_2
REMARK    2  A    between atoms: C_7  and  C_8
REMARK    3  A    between atoms: C_8  and  N_9
REMARK    4  A    between atoms: N_9  and  C_10
REMARK    5  A    between atoms: C_14  and  C_15
REMARK    6  A    between atoms: N_17  and  C_18
REMARK    7  A    between atoms: C_22  and  C_23
REMARK    8  A    between atoms: C_23  and  C_24
REMARK    9  A    between atoms: N_28  and  C_29
REMARK                            x       y       z     vdW  Elec       q    Type
REMARK                         _______ _______ _______ _____ _____    ______ ____
ROOT
ATOM      1  C   UNL     1       1.734   7.012  20.328  0.00  0.00    +0.000 C 
ATOM      2  O   UNL     1       2.317   7.779  19.565  0.00  0.00    +0.000 OA
ATOM      3  N   UNL     1       0.777   7.353  21.278  0.00  0.00    +0.000 N 
ATOM      4  H   UNL     1       0.490   6.589  21.889  0.00  0.00    +0.000 HD
ENDROOT
BRANCH   1   9
ATOM      5  C   UNL     1       3.594   3.779  19.697  0.00  0.00    +0.000 A 
ATOM      6  C   UNL     1       2.662   2.908  20.263  0.00  0.00    +0.000 A 
ATOM      7  C   UNL     1       1.475   3.402  20.777  0.00  0.00    +0.000 A 
ATOM      8  N   UNL     1       1.147   4.708  20.809  0.00  0.00    +0.000 NA
ATOM      9  C   UNL     1       2.078   5.554  20.287  0.00  0.00    +0.000 A 
ATOM     10  C   UNL     1       3.295   5.140  19.737  0.00  0.00    +0.000 A 
BRANCH   5  11
ATOM     11  N   UNL     1       4.839   3.358  19.202  0.00  0.00    +0.000 N 
ATOM     12  H   UNL     1       5.214   2.568  19.721  0.00  0.00    +0.000 HD
BRANCH  11  13
ATOM     13  C   UNL     1       5.823   4.367  18.811  0.00  0.00    +0.000 C 
BRANCH  13  20
ATOM     14  C   UNL     1       6.960   6.758  17.266  0.00  0.00    +0.000 C 
ATOM     15  C   UNL     1       7.277   5.294  16.917  0.00  0.00    +0.000 C 
ATOM     16  C   UNL     1       7.535   5.167  15.411  0.00  0.00    +0.000 C 
ATOM     17  O   UNL     1       6.340   5.407  14.667  0.00  0.00    +0.000 OA
ATOM     18  C   UNL     1       5.320   4.453  14.956  0.00  0.00    +0.000 C 
ATOM     19  C   UNL     1       4.924   4.494  16.427  0.00  0.00    +0.000 C 
ATOM     20  C   UNL     1       6.160   4.292  17.316  0.00  0.00    +0.000 C 
ENDBRANCH  13  20
ENDBRANCH  11  13
ENDBRANCH   5  11
ENDBRANCH   1   9
BRANCH   3  21
ATOM     21  C   UNL     1       0.266   8.644  21.526  0.00  0.00    +0.000 A 
ATOM     22  C   UNL     1       0.067   9.136  22.815  0.00  0.00    +0.000 A 
ATOM     23  C   UNL     1      -0.503  10.389  23.029  0.00  0.00    +0.000 A 
ATOM     24  C   UNL     1      -0.856  11.189  21.944  0.00  0.00    +0.000 A 
ATOM     25  C   UNL     1      -0.612  10.752  20.635  0.00  0.00    +0.000 A 
ATOM     26  C   UNL     1      -0.046   9.474  20.434  0.00  0.00    +0.000 A 
BRANCH  25  27
ATOM     27  C   UNL     1      -0.904  11.684  19.477  0.00  0.00    +0.000 C 
BRANCH  27  28
ATOM     28  C   UNL     1      -2.290  11.608  18.936  0.00  0.00    +0.000 A 
ATOM     29  N   UNL     1      -3.340  12.240  19.429  0.00  0.00    +0.000 NA
ATOM     30  N   UNL     1      -4.439  11.901  18.677  0.00  0.00    +0.000 NA
ATOM     31  C   UNL     1      -4.041  11.067  17.747  0.00  0.00    +0.000 A 
ATOM     32  N   UNL     1      -2.706  10.836  17.882  0.00  0.00    +0.000 N 
ATOM     33  C   UNL     1      -1.924   9.945  17.069  0.00  0.00    +0.000 C 
ENDBRANCH  27  28
ENDBRANCH  25  27
ENDBRANCH   3  21
TORSDOF 7
ENDMDL
MODEL 9
REMARK VINA RESULT:      -8.5      6.275     10.667
REMARK  Name = 
REMARK  9 active torsions:
REMARK  status: ('A' for Active; 'I' for Inactive)
REMARK    1  A    between atoms: C_1  and  C_2
REMARK    2  A    between atoms: C_7  and  C_8
REMARK    3  A    between atoms: C_8  and  N_9
REMARK    4  A    between atoms: N_9  and  C_10
REMARK    5  A    between atoms: C_14  and  C_15
REMARK    6  A    between atoms: N_17  and  C_18
REMARK    7  A    between atoms: C_22  and  C_23
REMARK    8  A    between atoms: C_23  and  C_24
REMARK    9  A    between atoms: N_28  and  C_29
REMARK                            x       y       z     vdW  Elec       q    Type
REMARK                         _______ _______ _______ _____ _____    ______ ____
ROOT
ATOM      1  C   UNL     1       1.996   7.870  19.418  0.00  0.00    +0.000 C 
ATOM      2  O   UNL     1       2.180   7.190  20.424  0.00  0.00    +0.000 OA
ATOM      3  N   UNL     1       2.554   7.662  18.160  0.00  0.00    +0.000 N 
ATOM      4  H   UNL     1       2.364   8.398  17.481  0.00  0.00    +0.000 HD
ENDROOT
BRANCH   1   9
ATOM      5  C   UNL     1      -0.185  10.618  20.831  0.00  0.00    +0.000 A 
ATOM      6  C   UNL     1      -0.467  11.275  19.632  0.00  0.00    +0.000 A 
ATOM      7  C   UNL     1       0.024  10.777  18.437  0.00  0.00    +0.000 A 
ATOM      8  N   UNL     1       0.810   9.688  18.335  0.00  0.00    +0.000 NA
ATOM      9  C   UNL     1       1.110   9.075  19.512  0.00  0.00    +0.000 A 
ATOM     10  C   UNL     1       0.648   9.502  20.761  0.00  0.00    +0.000 A 
BRANCH   5  11
ATOM     11  N   UNL     1      -0.606  11.091  22.084  0.00  0.00    +0.000 N 
ATOM     12  H   UNL     1      -1.387  10.557  22.457  0.00  0.00    +0.000 HD
BRANCH  11  13
ATOM     13  C   UNL     1      -0.679  12.534  22.308  0.00  0.00    +0.000 C 
BRANCH  13  20
ATOM     14  C   UNL     1      -3.701  12.672  21.817  0.00  0.00    +0.000 C 
ATOM     15  C   UNL     1      -3.079  12.280  23.167  0.00  0.00    +0.000 C 
ATOM     16  C   UNL     1      -4.011  12.705  24.308  0.00  0.00    +0.000 C 
ATOM     17  O   UNL     1      -4.082  14.128  24.406  0.00  0.00    +0.000 OA
ATOM     18  C   UNL     1      -2.819  14.715  24.713  0.00  0.00    +0.000 C 
ATOM     19  C   UNL     1      -1.789  14.411  23.631  0.00  0.00    +0.000 C 
ATOM     20  C   UNL     1      -1.675  12.894  23.418  0.00  0.00    +0.000 C 
ENDBRANCH  13  20
ENDBRANCH  11  13
ENDBRANCH   5  11
ENDBRANCH   1   9
BRANCH   3  21
ATOM     21  C   UNL     1       3.414   6.607  17.790  0.00  0.00    +0.000 A 
ATOM     22  C   UNL     1       4.566   6.811  17.030  0.00  0.00    +0.000 A 
ATOM     23  C   UNL     1       5.360   5.742  16.622  0.00  0.00    +0.000 A 
ATOM     24  C   UNL     1       5.027   4.443  16.999  0.00  0.00    +0.000 A 
ATOM     25  C   UNL     1       3.912   4.207  17.815  0.00  0.00    +0.000 A 
ATOM     26  C   UNL     1       3.109   5.299  18.209  0.00  0.00    +0.000 A 
BRANCH  25  27
ATOM     27  C   UNL     1       3.633   2.799  18.300  0.00  0.00    +0.000 C 
BRANCH  27  28
ATOM     28  C   UNL     1       3.001   2.705  19.645  0.00  0.00    +0.000 A 
ATOM     29  N   UNL     1       3.650   2.639  20.794  0.00  0.00    +0.000 NA
ATOM     30  N   UNL     1       2.727   2.537  21.805  0.00  0.00    +0.000 NA
ATOM     31  C   UNL     1       1.536   2.535  21.257  0.00  0.00    +0.000 A 
ATOM     32  N   UNL     1       1.657   2.617  19.903  0.00  0.00    +0.000 N 
ATOM     33  C   UNL     1       0.570   2.601  18.963  0.00  0.00    +0.000 C 
ENDBRANCH  27  28
ENDBRANCH  25  27
ENDBRANCH   3  21
TORSDOF 7
ENDMDL
