MODEL 1
REMARK VINA RESULT:      -9.7      0.000      0.000
REMARK  Name = 
REMARK  4 active torsions:
REMARK  status: ('A' for Active; 'I' for Inactive)
REMARK    1  A    between atoms: C_2  and  C_3
REMARK    2  A    between atoms: C_3  and  C_4
REMARK    3  A    between atoms: C_6  and  C_7
REMARK    4  A    between atoms: N_21  and  C_22
REMARK                            x       y       z     vdW  Elec       q    Type
REMARK                         _______ _______ _______ _____ _____    ______ ____
ROOT
ATOM      1  C   UNL     1       3.776   3.567  19.908  0.00  0.00    +0.000 C 
ATOM      2  S   UNL     1       5.153   4.518  19.208  0.00  0.00    +0.000 S 
ATOM      3  C   UNL     1       4.939   3.716  17.666  0.00  0.00    +0.000 C 
ATOM      4  N   UNL     1       4.040   2.787  17.607  0.00  0.00    +0.000 NA
ATOM      5  C   UNL     1       3.365   2.617  18.795  0.00  0.00    +0.000 C 
ATOM      6  O   UNL     1       2.501   1.763  18.968  0.00  0.00    +0.000 OA
ENDROOT
BRANCH   3   7
ATOM      7  C   UNL     1       5.768   4.168  16.517  0.00  0.00    +0.000 A 
ATOM      8  C   UNL     1       5.471   3.626  15.321  0.00  0.00    +0.000 A 
ATOM      9  C   UNL     1       6.214   4.024  14.133  0.00  0.00    +0.000 A 
ATOM     10  C   UNL     1       5.993   3.449  12.880  0.00  0.00    +0.000 A 
ATOM     11  C   UNL     1       6.725   3.885  11.769  0.00  0.00    +0.000 A 
ATOM     12  C   UNL     1       7.672   4.903  11.902  0.00  0.00    +0.000 A 
ATOM     13  C   UNL     1       7.896   5.483  13.148  0.00  0.00    +0.000 A 
ATOM     14  C   UNL     1       7.169   5.030  14.247  0.00  0.00    +0.000 A 
ATOM     15  O   UNL     1       7.457   5.610  15.492  0.00  0.00    +0.000 OA
ATOM     16  C   UNL     1       6.874   5.136  16.663  0.00  0.00    +0.000 A 
ATOM     17  O   UNL     1       7.293   5.506  17.755  0.00  0.00    +0.000 OA
ENDBRANCH   3   7
BRANCH   1  18
ATOM     18  C   UNL     1       2.615   4.419  20.420  0.00  0.00    +0.000 C 
BRANCH  18  20
ATOM     19  O   UNL     1       1.830   5.359  18.346  0.00  0.00    +0.000 OA
ATOM     20  C   UNL     1       2.196   5.556  19.499  0.00  0.00    +0.000 C 
ATOM     21  N   UNL     1       2.306   6.798  20.103  0.00  0.00    +0.000 N 
ATOM     22  H   UNL     1       2.813   6.855  20.982  0.00  0.00    +0.000 HD
BRANCH  21  23
ATOM     23  C   UNL     1       1.926   8.050  19.547  0.00  0.00    +0.000 A 
ATOM     24  C   UNL     1       2.343   8.458  18.274  0.00  0.00    +0.000 A 
ATOM     25  C   UNL     1       1.994   9.715  17.771  0.00  0.00    +0.000 A 
ATOM     26  C   UNL     1       1.210  10.577  18.531  0.00  0.00    +0.000 A 
ATOM     27  C   UNL     1       0.747  10.175  19.785  0.00  0.00    +0.000 A 
ATOM     28 CL   UNL     1      -0.241  11.293  20.659  0.00  0.00    +0.000 Cl
ATOM     29  C   UNL     1       1.091   8.911  20.292  0.00  0.00    +0.000 A 
ATOM     30 CL   UNL     1       0.515   8.390  21.849  0.00  0.00    +0.000 Cl
ENDBRANCH  21  23
ENDBRANCH  18  20
ENDBRANCH   1  18
TORSDOF 4
ENDMDL
MODEL 2
REMARK VINA RESULT:      -9.7      3.021      7.553
REMARK  Name = 
REMARK  4 active torsions:
REMARK  status: ('A' for Active; 'I' for Inactive)
REMARK    1  A    between atoms: C_2  and  C_3
REMARK    2  A    between atoms: C_3  and  C_4
REMARK    3  A    between atoms: C_6  and  C_7
REMARK    4  A    between atoms: N_21  and  C_22
REMARK                            x       y       z     vdW  Elec       q    Type
REMARK                         _______ _______ _______ _____ _____    ______ ____
ROOT
ATOM      1  C   UNL     1       1.742   2.569  20.004  0.00  0.00    +0.000 C 
ATOM      2  S   UNL     1       0.866   4.023  19.365  0.00  0.00    +0.000 S 
ATOM      3  C   UNL     1       1.723   5.051  20.494  0.00  0.00    +0.000 C 
ATOM      4  N   UNL     1       2.516   4.468  21.334  0.00  0.00    +0.000 NA
ATOM      5  C   UNL     1       2.575   3.103  21.158  0.00  0.00    +0.000 C 
ATOM      6  O   UNL     1       3.234   2.355  21.873  0.00  0.00    +0.000 OA
ENDROOT
BRANCH   3   7
ATOM      7  C   UNL     1       1.520   6.521  20.401  0.00  0.00    +0.000 A 
ATOM      8  C   UNL     1       0.763   7.078  21.365  0.00  0.00    +0.000 A 
ATOM      9  C   UNL     1       0.526   8.516  21.370  0.00  0.00    +0.000 A 
ATOM     10  C   UNL     1      -0.302   9.138  22.307  0.00  0.00    +0.000 A 
ATOM     11  C   UNL     1      -0.477  10.527  22.273  0.00  0.00    +0.000 A 
ATOM     12  C   UNL     1       0.180  11.299  21.314  0.00  0.00    +0.000 A 
ATOM     13  C   UNL     1       1.008  10.686  20.377  0.00  0.00    +0.000 A 
ATOM     14  C   UNL     1       1.164   9.302  20.415  0.00  0.00    +0.000 A 
ATOM     15  O   UNL     1       1.972   8.719  19.427  0.00  0.00    +0.000 OA
ATOM     16  C   UNL     1       2.085   7.337  19.307  0.00  0.00    +0.000 A 
ATOM     17  O   UNL     1       2.617   6.845  18.317  0.00  0.00    +0.000 OA
ENDBRANCH   3   7
BRANCH   1  18
ATOM     18  C   UNL     1       2.577   1.825  18.963  0.00  0.00    +0.000 C 
BRANCH  18  20
ATOM     19  O   UNL     1       2.428   3.034  16.884  0.00  0.00    +0.000 OA
ATOM     20  C   UNL     1       3.121   2.692  17.836  0.00  0.00    +0.000 C 
ATOM     21  N   UNL     1       4.458   3.010  18.007  0.00  0.00    +0.000 N 
ATOM     22  H   UNL     1       4.979   2.504  18.718  0.00  0.00    +0.000 HD
BRANCH  21  23
ATOM     23  C   UNL     1       5.242   3.860  17.180  0.00  0.00    +0.000 A 
ATOM     24  C   UNL     1       5.443   3.600  15.819  0.00  0.00    +0.000 A 
ATOM     25  C   UNL     1       6.257   4.425  15.039  0.00  0.00    +0.000 A 
ATOM     26  C   UNL     1       6.874   5.535  15.610  0.00  0.00    +0.000 A 
ATOM     27  C   UNL     1       6.655   5.840  16.954  0.00  0.00    +0.000 A 
ATOM     28 CL   UNL     1       7.436   7.248  17.584  0.00  0.00    +0.000 Cl
ATOM     29  C   UNL     1       5.832   5.014  17.740  0.00  0.00    +0.000 A 
ATOM     30 CL   UNL     1       5.540   5.385  19.414  0.00  0.00    +0.000 Cl
ENDBRANCH  21  23
ENDBRANCH  18  20
ENDBRANCH   1  18
TORSDOF 4
ENDMDL
MODEL 3
REMARK VINA RESULT:      -9.1      1.600      1.914
REMARK  Name = 
REMARK  4 active torsions:
REMARK  status: ('A' for Active; 'I' for Inactive)
REMARK    1  A    between atoms: C_2  and  C_3
REMARK    2  A    between atoms: C_3  and  C_4
REMARK    3  A    between atoms: C_6  and  C_7
REMARK    4  A    between atoms: N_21  and  C_22
REMARK                            x       y       z     vdW  Elec       q    Type
REMARK                         _______ _______ _______ _____ _____    ______ ____
ROOT
ATOM      1  C   UNL     1       3.039   2.591  19.417  0.00  0.00    +0.000 C 
ATOM      2  S   UNL     1       4.754   2.807  18.866  0.00  0.00    +0.000 S 
ATOM      3  C   UNL     1       4.195   3.524  17.369  0.00  0.00    +0.000 C 
ATOM      4  N   UNL     1       2.916   3.563  17.178  0.00  0.00    +0.000 NA
ATOM      5  C   UNL     1       2.199   3.053  18.237  0.00  0.00    +0.000 C 
ATOM      6  O   UNL     1       0.976   2.958  18.245  0.00  0.00    +0.000 OA
ENDROOT
BRANCH   3   7
ATOM      7  C   UNL     1       5.210   4.072  16.431  0.00  0.00    +0.000 A 
ATOM      8  C   UNL     1       5.171   3.598  15.172  0.00  0.00    +0.000 A 
ATOM      9  C   UNL     1       6.112   4.091  14.174  0.00  0.00    +0.000 A 
ATOM     10  C   UNL     1       6.160   3.590  12.872  0.00  0.00    +0.000 A 
ATOM     11  C   UNL     1       7.074   4.117  11.951  0.00  0.00    +0.000 A 
ATOM     12  C   UNL     1       7.933   5.152  12.323  0.00  0.00    +0.000 A 
ATOM     13  C   UNL     1       7.890   5.659  13.619  0.00  0.00    +0.000 A 
ATOM     14  C   UNL     1       6.984   5.117  14.528  0.00  0.00    +0.000 A 
ATOM     15  O   UNL     1       7.004   5.625  15.836  0.00  0.00    +0.000 OA
ATOM     16  C   UNL     1       6.226   5.062  16.842  0.00  0.00    +0.000 A 
ATOM     17  O   UNL     1       6.413   5.375  18.014  0.00  0.00    +0.000 OA
ENDBRANCH   3   7
BRANCH   1  18
ATOM     18  C   UNL     1       2.694   3.323  20.714  0.00  0.00    +0.000 C 
BRANCH  18  20
ATOM     19  O   UNL     1       0.562   4.432  20.551  0.00  0.00    +0.000 OA
ATOM     20  C   UNL     1       1.784   4.531  20.547  0.00  0.00    +0.000 C 
ATOM     21  N   UNL     1       2.492   5.709  20.372  0.00  0.00    +0.000 N 
ATOM     22  H   UNL     1       3.487   5.641  20.179  0.00  0.00    +0.000 HD
BRANCH  21  23
ATOM     23  C   UNL     1       1.948   7.019  20.263  0.00  0.00    +0.000 A 
ATOM     24  C   UNL     1       1.148   7.581  21.264  0.00  0.00    +0.000 A 
ATOM     25  C   UNL     1       0.587   8.852  21.111  0.00  0.00    +0.000 A 
ATOM     26  C   UNL     1       0.831   9.586  19.954  0.00  0.00    +0.000 A 
ATOM     27  C   UNL     1       1.660   9.064  18.960  0.00  0.00    +0.000 A 
ATOM     28 CL   UNL     1       1.934  10.045  17.562  0.00  0.00    +0.000 Cl
ATOM     29  C   UNL     1       2.230   7.788  19.113  0.00  0.00    +0.000 A 
ATOM     30 CL   UNL     1       3.274   7.127  17.889  0.00  0.00    +0.000 Cl
ENDBRANCH  21  23
ENDBRANCH  18  20
ENDBRANCH   1  18
TORSDOF 4
ENDMDL
MODEL 4
REMARK VINA RESULT:      -9.0      1.468      1.820
REMARK  Name = 
REMARK  4 active torsions:
REMARK  status: ('A' for Active; 'I' for Inactive)
REMARK    1  A    between atoms: C_2  and  C_3
REMARK    2  A    between atoms: C_3  and  C_4
REMARK    3  A    between atoms: C_6  and  C_7
REMARK    4  A    between atoms: N_21  and  C_22
REMARK                            x       y       z     vdW  Elec       q    Type
REMARK                         _______ _______ _______ _____ _____    ______ ____
ROOT
ATOM      1  C   UNL     1       3.796   4.610  19.874  0.00  0.00    +0.000 C 
ATOM      2  S   UNL     1       4.309   5.668  18.493  0.00  0.00    +0.000 S 
ATOM      3  C   UNL     1       5.358   4.399  17.895  0.00  0.00    +0.000 C 
ATOM      4  N   UNL     1       5.445   3.324  18.609  0.00  0.00    +0.000 NA
ATOM      5  C   UNL     1       4.642   3.355  19.727  0.00  0.00    +0.000 C 
ATOM      6  O   UNL     1       4.603   2.456  20.560  0.00  0.00    +0.000 OA
ENDROOT
BRANCH   3   7
ATOM      7  C   UNL     1       6.053   4.614  16.598  0.00  0.00    +0.000 A 
ATOM      8  C   UNL     1       5.591   3.903  15.553  0.00  0.00    +0.000 A 
ATOM      9  C   UNL     1       6.194   4.062  14.236  0.00  0.00    +0.000 A 
ATOM     10  C   UNL     1       5.799   3.305  13.131  0.00  0.00    +0.000 A 
ATOM     11  C   UNL     1       6.403   3.516  11.885  0.00  0.00    +0.000 A 
ATOM     12  C   UNL     1       7.392   4.490  11.735  0.00  0.00    +0.000 A 
ATOM     13  C   UNL     1       7.789   5.250  12.831  0.00  0.00    +0.000 A 
ATOM     14  C   UNL     1       7.189   5.021  14.068  0.00  0.00    +0.000 A 
ATOM     15  O   UNL     1       7.650   5.778  15.156  0.00  0.00    +0.000 OA
ATOM     16  C   UNL     1       7.201   5.532  16.449  0.00  0.00    +0.000 A 
ATOM     17  O   UNL     1       7.765   6.051  17.407  0.00  0.00    +0.000 OA
ENDBRANCH   3   7
BRANCH   1  18
ATOM     18  C   UNL     1       2.298   4.314  19.921  0.00  0.00    +0.000 C 
BRANCH  18  20
ATOM     19  O   UNL     1       0.249   5.364  20.632  0.00  0.00    +0.000 OA
ATOM     20  C   UNL     1       1.419   5.500  20.293  0.00  0.00    +0.000 C 
ATOM     21  N   UNL     1       2.084   6.711  20.177  0.00  0.00    +0.000 N 
ATOM     22  H   UNL     1       2.977   6.717  19.692  0.00  0.00    +0.000 HD
BRANCH  21  23
ATOM     23  C   UNL     1       1.576   7.995  20.517  0.00  0.00    +0.000 A 
ATOM     24  C   UNL     1       1.245   8.343  21.832  0.00  0.00    +0.000 A 
ATOM     25  C   UNL     1       0.703   9.595  22.131  0.00  0.00    +0.000 A 
ATOM     26  C   UNL     1       0.497  10.526  21.117  0.00  0.00    +0.000 A 
ATOM     27  C   UNL     1       0.858  10.218  19.805  0.00  0.00    +0.000 A 
ATOM     28 CL   UNL     1       0.593  11.434  18.604  0.00  0.00    +0.000 Cl
ATOM     29  C   UNL     1       1.408   8.960  19.500  0.00  0.00    +0.000 A 
ATOM     30 CL   UNL     1       1.875   8.564  17.872  0.00  0.00    +0.000 Cl
ENDBRANCH  21  23
ENDBRANCH  18  20
ENDBRANCH   1  18
TORSDOF 4
ENDMDL
MODEL 5
REMARK VINA RESULT:      -8.9      3.722      7.745
REMARK  Name = 
REMARK  4 active torsions:
REMARK  status: ('A' for Active; 'I' for Inactive)
REMARK    1  A    between atoms: C_2  and  C_3
REMARK    2  A    between atoms: C_3  and  C_4
REMARK    3  A    between atoms: C_6  and  C_7
REMARK    4  A    between atoms: N_21  and  C_22
REMARK                            x       y       z     vdW  Elec       q    Type
REMARK                         _______ _______ _______ _____ _____    ______ ____
ROOT
ATOM      1  C   UNL     1       1.751   2.582  20.089  0.00  0.00    +0.000 C 
ATOM      2  S   UNL     1       1.054   4.041  19.268  0.00  0.00    +0.000 S 
ATOM      3  C   UNL     1       1.635   5.064  20.566  0.00  0.00    +0.000 C 
ATOM      4  N   UNL     1       2.211   4.475  21.565  0.00  0.00    +0.000 NA
ATOM      5  C   UNL     1       2.301   3.111  21.405  0.00  0.00    +0.000 C 
ATOM      6  O   UNL     1       2.774   2.359  22.250  0.00  0.00    +0.000 OA
ENDROOT
BRANCH   3   7
ATOM      7  C   UNL     1       1.467   6.535  20.431  0.00  0.00    +0.000 A 
ATOM      8  C   UNL     1       0.708   7.134  21.368  0.00  0.00    +0.000 A 
ATOM      9  C   UNL     1       0.504   8.576  21.331  0.00  0.00    +0.000 A 
ATOM     10  C   UNL     1      -0.325   9.241  22.237  0.00  0.00    +0.000 A 
ATOM     11  C   UNL     1      -0.468  10.633  22.164  0.00  0.00    +0.000 A 
ATOM     12  C   UNL     1       0.223  11.365  21.196  0.00  0.00    +0.000 A 
ATOM     13  C   UNL     1       1.052  10.708  20.291  0.00  0.00    +0.000 A 
ATOM     14  C   UNL     1       1.175   9.323  20.367  0.00  0.00    +0.000 A 
ATOM     15  O   UNL     1       1.985   8.696  19.408  0.00  0.00    +0.000 OA
ATOM     16  C   UNL     1       2.069   7.309  19.327  0.00  0.00    +0.000 A 
ATOM     17  O   UNL     1       2.606   6.779  18.359  0.00  0.00    +0.000 OA
ENDBRANCH   3   7
BRANCH   1  18
ATOM     18  C   UNL     1       2.799   1.833  19.266  0.00  0.00    +0.000 C 
BRANCH  18  20
ATOM     19  O   UNL     1       5.123   2.028  19.872  0.00  0.00    +0.000 OA
ATOM     20  C   UNL     1       4.177   2.481  19.238  0.00  0.00    +0.000 C 
ATOM     21  N   UNL     1       4.211   3.621  18.452  0.00  0.00    +0.000 N 
ATOM     22  H   UNL     1       3.326   4.014  18.145  0.00  0.00    +0.000 HD
BRANCH  21  23
ATOM     23  C   UNL     1       5.354   4.414  18.155  0.00  0.00    +0.000 A 
ATOM     24  C   UNL     1       6.021   5.159  19.135  0.00  0.00    +0.000 A 
ATOM     25  C   UNL     1       7.112   5.968  18.807  0.00  0.00    +0.000 A 
ATOM     26  C   UNL     1       7.562   6.032  17.492  0.00  0.00    +0.000 A 
ATOM     27  C   UNL     1       6.941   5.265  16.505  0.00  0.00    +0.000 A 
ATOM     28 CL   UNL     1       7.571   5.380  14.899  0.00  0.00    +0.000 Cl
ATOM     29  C   UNL     1       5.845   4.447  16.832  0.00  0.00    +0.000 A 
ATOM     30 CL   UNL     1       5.066   3.477  15.616  0.00  0.00    +0.000 Cl
ENDBRANCH  21  23
ENDBRANCH  18  20
ENDBRANCH   1  18
TORSDOF 4
ENDMDL
MODEL 6
REMARK VINA RESULT:      -8.9      3.924      6.003
REMARK  Name = 
REMARK  4 active torsions:
REMARK  status: ('A' for Active; 'I' for Inactive)
REMARK    1  A    between atoms: C_2  and  C_3
REMARK    2  A    between atoms: C_3  and  C_4
REMARK    3  A    between atoms: C_6  and  C_7
REMARK    4  A    between atoms: N_21  and  C_22
REMARK                            x       y       z     vdW  Elec       q    Type
REMARK                         _______ _______ _______ _____ _____    ______ ____
ROOT
ATOM      1  C   UNL     1       0.897   9.881  20.061  0.00  0.00    +0.000 C 
ATOM      2  S   UNL     1       1.717   9.230  18.580  0.00  0.00    +0.000 S 
ATOM      3  C   UNL     1       2.114   7.753  19.434  0.00  0.00    +0.000 C 
ATOM      4  N   UNL     1       1.794   7.695  20.686  0.00  0.00    +0.000 NA
ATOM      5  C   UNL     1       1.142   8.825  21.127  0.00  0.00    +0.000 C 
ATOM      6  O   UNL     1       0.787   8.993  22.289  0.00  0.00    +0.000 OA
ENDROOT
BRANCH   3   7
ATOM      7  C   UNL     1       2.758   6.652  18.671  0.00  0.00    +0.000 A 
ATOM      8  C   UNL     1       3.644   7.022  17.727  0.00  0.00    +0.000 A 
ATOM      9  C   UNL     1       4.342   6.012  16.942  0.00  0.00    +0.000 A 
ATOM     10  C   UNL     1       5.221   6.339  15.908  0.00  0.00    +0.000 A 
ATOM     11  C   UNL     1       5.878   5.324  15.200  0.00  0.00    +0.000 A 
ATOM     12  C   UNL     1       5.669   3.984  15.529  0.00  0.00    +0.000 A 
ATOM     13  C   UNL     1       4.795   3.650  16.561  0.00  0.00    +0.000 A 
ATOM     14  C   UNL     1       4.139   4.669  17.248  0.00  0.00    +0.000 A 
ATOM     15  O   UNL     1       3.234   4.289  18.250  0.00  0.00    +0.000 OA
ATOM     16  C   UNL     1       2.440   5.228  18.902  0.00  0.00    +0.000 A 
ATOM     17  O   UNL     1       1.511   4.862  19.615  0.00  0.00    +0.000 OA
ENDBRANCH   3   7
BRANCH   1  18
ATOM     18  C   UNL     1      -0.585  10.203  19.874  0.00  0.00    +0.000 C 
BRANCH  18  20
ATOM     19  O   UNL     1      -1.775  12.287  19.665  0.00  0.00    +0.000 OA
ATOM     20  C   UNL     1      -1.001  11.598  20.319  0.00  0.00    +0.000 C 
ATOM     21  N   UNL     1      -0.391  11.982  21.502  0.00  0.00    +0.000 N 
ATOM     22  H   UNL     1       0.383  11.419  21.842  0.00  0.00    +0.000 HD
BRANCH  21  23
ATOM     23  C   UNL     1      -0.619  13.187  22.223  0.00  0.00    +0.000 A 
ATOM     24  C   UNL     1       0.155  14.336  22.021  0.00  0.00    +0.000 A 
ATOM     25  C   UNL     1      -0.060  15.491  22.776  0.00  0.00    +0.000 A 
ATOM     26  C   UNL     1      -1.063  15.518  23.740  0.00  0.00    +0.000 A 
ATOM     27  C   UNL     1      -1.876  14.399  23.930  0.00  0.00    +0.000 A 
ATOM     28 CL   UNL     1      -3.117  14.517  25.129  0.00  0.00    +0.000 Cl
ATOM     29  C   UNL     1      -1.667  13.236  23.168  0.00  0.00    +0.000 A 
ATOM     30 CL   UNL     1      -2.676  11.837  23.385  0.00  0.00    +0.000 Cl
ENDBRANCH  21  23
ENDBRANCH  18  20
ENDBRANCH   1  18
TORSDOF 4
ENDMDL
MODEL 7
REMARK VINA RESULT:      -8.8      3.855      6.033
REMARK  Name = 
REMARK  4 active torsions:
REMARK  status: ('A' for Active; 'I' for Inactive)
REMARK    1  A    between atoms: C_2  and  C_3
REMARK    2  A    between atoms: C_3  and  C_4
REMARK    3  A    between atoms: C_6  and  C_7
REMARK    4  A    between atoms: N_21  and  C_22
REMARK                            x       y       z     vdW  Elec       q    Type
REMARK                         _______ _______ _______ _____ _____    ______ ____
ROOT
ATOM      1  C   UNL     1       0.785   9.953  19.596  0.00  0.00    +0.000 C 
ATOM      2  S   UNL     1       1.642   9.220  18.175  0.00  0.00    +0.000 S 
ATOM      3  C   UNL     1       2.107   7.842  19.151  0.00  0.00    +0.000 C 
ATOM      4  N   UNL     1       1.785   7.874  20.404  0.00  0.00    +0.000 NA
ATOM      5  C   UNL     1       1.077   9.004  20.747  0.00  0.00    +0.000 C 
ATOM      6  O   UNL     1       0.709   9.252  21.891  0.00  0.00    +0.000 OA
ENDROOT
BRANCH   3   7
ATOM      7  C   UNL     1       2.807   6.713  18.484  0.00  0.00    +0.000 A 
ATOM      8  C   UNL     1       3.722   7.047  17.555  0.00  0.00    +0.000 A 
ATOM      9  C   UNL     1       4.475   6.009  16.863  0.00  0.00    +0.000 A 
ATOM     10  C   UNL     1       5.388   6.294  15.846  0.00  0.00    +0.000 A 
ATOM     11  C   UNL     1       6.097   5.255  15.230  0.00  0.00    +0.000 A 
ATOM     12  C   UNL     1       5.905   3.932  15.633  0.00  0.00    +0.000 A 
ATOM     13  C   UNL     1       4.997   3.640  16.648  0.00  0.00    +0.000 A 
ATOM     14  C   UNL     1       4.290   4.683  17.243  0.00  0.00    +0.000 A 
ATOM     15  O   UNL     1       3.353   4.341  18.230  0.00  0.00    +0.000 OA
ATOM     16  C   UNL     1       2.513   5.298  18.791  0.00  0.00    +0.000 A 
ATOM     17  O   UNL     1       1.563   4.953  19.488  0.00  0.00    +0.000 OA
ENDBRANCH   3   7
BRANCH   1  18
ATOM     18  C   UNL     1      -0.710  10.185  19.382  0.00  0.00    +0.000 C 
BRANCH  18  20
ATOM     19  O   UNL     1      -1.785  12.341  19.418  0.00  0.00    +0.000 OA
ATOM     20  C   UNL     1      -1.270  11.430  20.056  0.00  0.00    +0.000 C 
ATOM     21  N   UNL     1      -1.103  11.410  21.431  0.00  0.00    +0.000 N 
ATOM     22  H   UNL     1      -0.483  10.707  21.824  0.00  0.00    +0.000 HD
BRANCH  21  23
ATOM     23  C   UNL     1      -1.577  12.378  22.359  0.00  0.00    +0.000 A 
ATOM     24  C   UNL     1      -2.770  12.208  23.072  0.00  0.00    +0.000 A 
ATOM     25  C   UNL     1      -3.237  13.197  23.942  0.00  0.00    +0.000 A 
ATOM     26  C   UNL     1      -2.507  14.369  24.121  0.00  0.00    +0.000 A 
ATOM     27  C   UNL     1      -1.294  14.543  23.454  0.00  0.00    +0.000 A 
ATOM     28 CL   UNL     1      -0.433  16.014  23.746  0.00  0.00    +0.000 Cl
ATOM     29  C   UNL     1      -0.818  13.548  22.582  0.00  0.00    +0.000 A 
ATOM     30 CL   UNL     1       0.697  13.744  21.751  0.00  0.00    +0.000 Cl
ENDBRANCH  21  23
ENDBRANCH  18  20
ENDBRANCH   1  18
TORSDOF 4
ENDMDL
MODEL 8
REMARK VINA RESULT:      -8.6      1.304      1.608
REMARK  Name = 
REMARK  4 active torsions:
REMARK  status: ('A' for Active; 'I' for Inactive)
REMARK    1  A    between atoms: C_2  and  C_3
REMARK    2  A    between atoms: C_3  and  C_4
REMARK    3  A    between atoms: C_6  and  C_7
REMARK    4  A    between atoms: N_21  and  C_22
REMARK                            x       y       z     vdW  Elec       q    Type
REMARK                         _______ _______ _______ _____ _____    ______ ____
ROOT
ATOM      1  C   UNL     1       3.618   5.548  19.780  0.00  0.00    +0.000 C 
ATOM      2  S   UNL     1       4.594   6.399  18.509  0.00  0.00    +0.000 S 
ATOM      3  C   UNL     1       5.026   4.859  17.794  0.00  0.00    +0.000 C 
ATOM      4  N   UNL     1       4.614   3.793  18.401  0.00  0.00    +0.000 NA
ATOM      5  C   UNL     1       3.853   4.070  19.514  0.00  0.00    +0.000 C 
ATOM      6  O   UNL     1       3.398   3.206  20.257  0.00  0.00    +0.000 OA
ENDROOT
BRANCH   3   7
ATOM      7  C   UNL     1       5.802   4.866  16.526  0.00  0.00    +0.000 A 
ATOM      8  C   UNL     1       5.260   4.191  15.494  0.00  0.00    +0.000 A 
ATOM      9  C   UNL     1       5.936   4.160  14.204  0.00  0.00    +0.000 A 
ATOM     10  C   UNL     1       5.454   3.424  13.120  0.00  0.00    +0.000 A 
ATOM     11  C   UNL     1       6.138   3.447  11.898  0.00  0.00    +0.000 A 
ATOM     12  C   UNL     1       7.296   4.212  11.750  0.00  0.00    +0.000 A 
ATOM     13  C   UNL     1       7.782   4.950  12.827  0.00  0.00    +0.000 A 
ATOM     14  C   UNL     1       7.098   4.908  14.040  0.00  0.00    +0.000 A 
ATOM     15  O   UNL     1       7.646   5.630  15.111  0.00  0.00    +0.000 OA
ATOM     16  C   UNL     1       7.105   5.548  16.390  0.00  0.00    +0.000 A 
ATOM     17  O   UNL     1       7.716   6.010  17.349  0.00  0.00    +0.000 OA
ENDBRANCH   3   7
BRANCH   1  18
ATOM     18  C   UNL     1       2.136   5.921  19.794  0.00  0.00    +0.000 C 
BRANCH  18  20
ATOM     19  O   UNL     1       1.935   7.699  18.181  0.00  0.00    +0.000 OA
ATOM     20  C   UNL     1       1.826   7.344  19.348  0.00  0.00    +0.000 C 
ATOM     21  N   UNL     1       1.446   8.159  20.402  0.00  0.00    +0.000 N 
ATOM     22  H   UNL     1       1.591   7.814  21.346  0.00  0.00    +0.000 HD
BRANCH  21  23
ATOM     23  C   UNL     1       1.020   9.514  20.317  0.00  0.00    +0.000 A 
ATOM     24  C   UNL     1       1.235  10.293  19.174  0.00  0.00    +0.000 A 
ATOM     25  C   UNL     1       0.849  11.636  19.135  0.00  0.00    +0.000 A 
ATOM     26  C   UNL     1       0.228  12.215  20.238  0.00  0.00    +0.000 A 
ATOM     27  C   UNL     1      -0.035  11.446  21.372  0.00  0.00    +0.000 A 
ATOM     28 CL   UNL     1      -0.831  12.230  22.692  0.00  0.00    +0.000 Cl
ATOM     29  C   UNL     1       0.347  10.094  21.414  0.00  0.00    +0.000 A 
ATOM     30 CL   UNL     1       0.017   9.119  22.815  0.00  0.00    +0.000 Cl
ENDBRANCH  21  23
ENDBRANCH  18  20
ENDBRANCH   1  18
TORSDOF 4
ENDMDL
MODEL 9
REMARK VINA RESULT:      -8.6      3.817      5.919
REMARK  Name = 
REMARK  4 active torsions:
REMARK  status: ('A' for Active; 'I' for Inactive)
REMARK    1  A    between atoms: C_2  and  C_3
REMARK    2  A    between atoms: C_3  and  C_4
REMARK    3  A    between atoms: C_6  and  C_7
REMARK    4  A    between atoms: N_21  and  C_22
REMARK                            x       y       z     vdW  Elec       q    Type
REMARK                         _______ _______ _______ _____ _____    ______ ____
ROOT
ATOM      1  C   UNL     1       0.911   9.912  19.463  0.00  0.00    +0.000 C 
ATOM      2  S   UNL     1       1.844   9.199  18.080  0.00  0.00    +0.000 S 
ATOM      3  C   UNL     1       2.192   7.772  19.035  0.00  0.00    +0.000 C 
ATOM      4  N   UNL     1       1.781   7.772  20.262  0.00  0.00    +0.000 NA
ATOM      5  C   UNL     1       1.087   8.914  20.596  0.00  0.00    +0.000 C 
ATOM      6  O   UNL     1       0.645   9.135  21.719  0.00  0.00    +0.000 OA
ENDROOT
BRANCH   3   7
ATOM      7  C   UNL     1       2.900   6.642  18.378  0.00  0.00    +0.000 A 
ATOM      8  C   UNL     1       3.799   6.974  17.433  0.00  0.00    +0.000 A 
ATOM      9  C   UNL     1       4.559   5.937  16.748  0.00  0.00    +0.000 A 
ATOM     10  C   UNL     1       5.456   6.219  15.716  0.00  0.00    +0.000 A 
ATOM     11  C   UNL     1       6.173   5.180  15.108  0.00  0.00    +0.000 A 
ATOM     12  C   UNL     1       6.006   3.862  15.535  0.00  0.00    +0.000 A 
ATOM     13  C   UNL     1       5.115   3.573  16.565  0.00  0.00    +0.000 A 
ATOM     14  C   UNL     1       4.399   4.614  17.153  0.00  0.00    +0.000 A 
ATOM     15  O   UNL     1       3.480   4.276  18.157  0.00  0.00    +0.000 OA
ATOM     16  C   UNL     1       2.631   5.228  18.712  0.00  0.00    +0.000 A 
ATOM     17  O   UNL     1       1.696   4.880  19.426  0.00  0.00    +0.000 OA
ENDBRANCH   3   7
BRANCH   1  18
ATOM     18  C   UNL     1      -0.556  10.204  19.152  0.00  0.00    +0.000 C 
BRANCH  18  20
ATOM     19  O   UNL     1      -1.822  12.003  18.168  0.00  0.00    +0.000 OA
ATOM     20  C   UNL     1      -0.875  11.666  18.869  0.00  0.00    +0.000 C 
ATOM     21  N   UNL     1       0.029  12.531  19.464  0.00  0.00    +0.000 N 
ATOM     22  H   UNL     1       0.885  12.136  19.844  0.00  0.00    +0.000 HD
BRANCH  21  23
ATOM     23  C   UNL     1      -0.025  13.952  19.459  0.00  0.00    +0.000 A 
ATOM     24  C   UNL     1      -1.052  14.663  20.090  0.00  0.00    +0.000 A 
ATOM     25  C   UNL     1      -1.107  16.058  20.029  0.00  0.00    +0.000 A 
ATOM     26  C   UNL     1      -0.124  16.764  19.343  0.00  0.00    +0.000 A 
ATOM     27  C   UNL     1       0.934  16.081  18.741  0.00  0.00    +0.000 A 
ATOM     28 CL   UNL     1       2.129  17.030  17.928  0.00  0.00    +0.000 Cl
ATOM     29  C   UNL     1       0.995  14.678  18.806  0.00  0.00    +0.000 A 
ATOM     30 CL   UNL     1       2.312  13.811  18.071  0.00  0.00    +0.000 Cl
ENDBRANCH  21  23
ENDBRANCH  18  20
ENDBRANCH   1  18
TORSDOF 4
ENDMDL
