MODEL 1
REMARK VINA RESULT:      -8.7      0.000      0.000
REMARK  Name = 
REMARK  4 active torsions:
REMARK  status: ('A' for Active; 'I' for Inactive)
REMARK    1  A    between atoms: S_2  and  N_4
REMARK    2  A    between atoms: S_2  and  C_17
REMARK    3  A    between atoms: N_9  and  C_10
REMARK    4  A    between atoms: C_10  and  C_11
REMARK                            x       y       z     vdW  Elec       q    Type
REMARK                         _______ _______ _______ _____ _____    ______ ____
ROOT
ATOM      1  N   UNL     1       3.397   4.995  18.184  0.00  0.00    +0.000 N 
ATOM      2  C   UNL     1       3.020   6.357  18.279  0.00  0.00    +0.000 A 
ATOM      3  N   UNL     1       3.160   7.207  17.288  0.00  0.00    +0.000 NA
ATOM      4  N   UNL     1       2.586   8.402  17.658  0.00  0.00    +0.000 NA
ATOM      5  C   UNL     1       2.114   8.258  18.877  0.00  0.00    +0.000 A 
ATOM      6  N   UNL     1       2.355   6.975  19.295  0.00  0.00    +0.000 N 
ATOM      7  H   UNL     1       2.853   4.347  18.748  0.00  0.00    +0.000 HD
ENDROOT
BRANCH   1   9
ATOM      8  O   UNL     1       5.629   5.819  19.216  0.00  0.00    +0.000 OA
ATOM      9  S   UNL     1       5.046   4.710  18.529  0.00  0.00    +0.000 S 
ATOM     10  O   UNL     1       5.048   3.362  19.083  0.00  0.00    +0.000 OA
BRANCH   9  11
ATOM     11  C   UNL     1       5.747   4.602  16.894  0.00  0.00    +0.000 A 
ATOM     12  C   UNL     1       7.101   4.902  16.793  0.00  0.00    +0.000 A 
ATOM     13  C   UNL     1       7.662   5.065  15.539  0.00  0.00    +0.000 A 
ATOM     14  C   UNL     1       6.907   4.792  14.401  0.00  0.00    +0.000 A 
ATOM     15  C   UNL     1       7.484   4.972  13.160  0.00  0.00    +0.000 A 
ATOM     16  C   UNL     1       7.188   4.065  12.162  0.00  0.00    +0.000 A 
ATOM     17  C   UNL     1       5.971   3.411  12.234  0.00  0.00    +0.000 A 
ATOM     18  C   UNL     1       5.121   3.606  13.340  0.00  0.00    +0.000 A 
ATOM     19  C   UNL     1       5.618   4.220  14.501  0.00  0.00    +0.000 A 
ATOM     20  C   UNL     1       4.986   4.256  15.773  0.00  0.00    +0.000 A 
ENDBRANCH   9  11
ENDBRANCH   1   9
BRANCH   6  21
ATOM     21  C   UNL     1       2.123   6.476  20.638  0.00  0.00    +0.000 C 
BRANCH  21  22
ATOM     22  C   UNL     1       1.862   4.989  20.665  0.00  0.00    +0.000 A 
ATOM     23  C   UNL     1       2.592   4.165  21.539  0.00  0.00    +0.000 A 
ATOM     24  C   UNL     1       2.328   2.794  21.598  0.00  0.00    +0.000 A 
ATOM     25  C   UNL     1       1.339   2.233  20.798  0.00  0.00    +0.000 A 
ATOM     26  C   UNL     1       0.604   3.039  19.937  0.00  0.00    +0.000 A 
ATOM     27  C   UNL     1       0.861   4.411  19.873  0.00  0.00    +0.000 A 
ENDBRANCH  21  22
ENDBRANCH   6  21
TORSDOF 4
ENDMDL
MODEL 2
REMARK VINA RESULT:      -8.4      2.874      7.123
REMARK  Name = 
REMARK  4 active torsions:
REMARK  status: ('A' for Active; 'I' for Inactive)
REMARK    1  A    between atoms: S_2  and  N_4
REMARK    2  A    between atoms: S_2  and  C_17
REMARK    3  A    between atoms: N_9  and  C_10
REMARK    4  A    between atoms: C_10  and  C_11
REMARK                            x       y       z     vdW  Elec       q    Type
REMARK                         _______ _______ _______ _____ _____    ______ ____
ROOT
ATOM      1  N   UNL     1       1.997   4.585  18.796  0.00  0.00    +0.000 N 
ATOM      2  C   UNL     1       2.811   3.480  18.443  0.00  0.00    +0.000 A 
ATOM      3  N   UNL     1       2.769   2.330  19.075  0.00  0.00    +0.000 NA
ATOM      4  N   UNL     1       3.580   1.440  18.410  0.00  0.00    +0.000 NA
ATOM      5  C   UNL     1       4.112   2.072  17.386  0.00  0.00    +0.000 A 
ATOM      6  N   UNL     1       3.636   3.356  17.365  0.00  0.00    +0.000 N 
ATOM      7  H   UNL     1       1.741   5.206  18.032  0.00  0.00    +0.000 HD
ENDROOT
BRANCH   1   9
ATOM      8  O   UNL     1       2.106   5.197  21.314  0.00  0.00    +0.000 OA
ATOM      9  S   UNL     1       2.652   5.553  20.042  0.00  0.00    +0.000 S 
ATOM     10  O   UNL     1       4.084   5.525  19.775  0.00  0.00    +0.000 OA
BRANCH   9  11
ATOM     11  C   UNL     1       2.069   7.174  19.589  0.00  0.00    +0.000 A 
ATOM     12  C   UNL     1       2.308   7.561  18.276  0.00  0.00    +0.000 A 
ATOM     13  C   UNL     1       2.096   8.880  17.913  0.00  0.00    +0.000 A 
ATOM     14  C   UNL     1       1.517   9.763  18.820  0.00  0.00    +0.000 A 
ATOM     15  C   UNL     1       1.324  11.076  18.440  0.00  0.00    +0.000 A 
ATOM     16  C   UNL     1       0.173  11.716  18.853  0.00  0.00    +0.000 A 
ATOM     17  C   UNL     1      -0.416  11.276  20.026  0.00  0.00    +0.000 A 
ATOM     18  C   UNL     1       0.100  10.157  20.707  0.00  0.00    +0.000 A 
ATOM     19  C   UNL     1       1.016   9.309  20.061  0.00  0.00    +0.000 A 
ATOM     20  C   UNL     1       1.425   8.021  20.498  0.00  0.00    +0.000 A 
ENDBRANCH   9  11
ENDBRANCH   1   9
BRANCH   6  21
ATOM     21  C   UNL     1       4.105   4.407  16.480  0.00  0.00    +0.000 C 
BRANCH  21  22
ATOM     22  C   UNL     1       5.321   5.119  17.023  0.00  0.00    +0.000 A 
ATOM     23  C   UNL     1       6.355   4.381  17.624  0.00  0.00    +0.000 A 
ATOM     24  C   UNL     1       7.502   5.029  18.093  0.00  0.00    +0.000 A 
ATOM     25  C   UNL     1       7.632   6.407  17.965  0.00  0.00    +0.000 A 
ATOM     26  C   UNL     1       6.621   7.147  17.363  0.00  0.00    +0.000 A 
ATOM     27  C   UNL     1       5.472   6.506  16.891  0.00  0.00    +0.000 A 
ENDBRANCH  21  22
ENDBRANCH   6  21
TORSDOF 4
ENDMDL
MODEL 3
REMARK VINA RESULT:      -8.4      3.086      7.403
REMARK  Name = 
REMARK  4 active torsions:
REMARK  status: ('A' for Active; 'I' for Inactive)
REMARK    1  A    between atoms: S_2  and  N_4
REMARK    2  A    between atoms: S_2  and  C_17
REMARK    3  A    between atoms: N_9  and  C_10
REMARK    4  A    between atoms: C_10  and  C_11
REMARK                            x       y       z     vdW  Elec       q    Type
REMARK                         _______ _______ _______ _____ _____    ______ ____
ROOT
ATOM      1  N   UNL     1       3.367   6.752  18.778  0.00  0.00    +0.000 N 
ATOM      2  C   UNL     1       4.211   6.091  17.852  0.00  0.00    +0.000 A 
ATOM      3  N   UNL     1       5.351   6.594  17.440  0.00  0.00    +0.000 NA
ATOM      4  N   UNL     1       5.981   5.656  16.654  0.00  0.00    +0.000 NA
ATOM      5  C   UNL     1       5.201   4.598  16.594  0.00  0.00    +0.000 A 
ATOM      6  N   UNL     1       4.084   4.829  17.352  0.00  0.00    +0.000 N 
ATOM      7  H   UNL     1       2.810   6.147  19.376  0.00  0.00    +0.000 HD
ENDROOT
BRANCH   1   9
ATOM      8  O   UNL     1       3.020   8.906  17.375  0.00  0.00    +0.000 OA
ATOM      9  S   UNL     1       2.301   7.877  18.057  0.00  0.00    +0.000 S 
ATOM     10  O   UNL     1       1.323   7.032  17.383  0.00  0.00    +0.000 OA
BRANCH   9  11
ATOM     11  C   UNL     1       1.491   8.576  19.482  0.00  0.00    +0.000 A 
ATOM     12  C   UNL     1       1.711   7.922  20.688  0.00  0.00    +0.000 A 
ATOM     13  C   UNL     1       0.942   8.260  21.788  0.00  0.00    +0.000 A 
ATOM     14  C   UNL     1       0.064   9.338  21.714  0.00  0.00    +0.000 A 
ATOM     15  C   UNL     1      -0.701   9.651  22.820  0.00  0.00    +0.000 A 
ATOM     16  C   UNL     1      -0.921  10.983  23.108  0.00  0.00    +0.000 A 
ATOM     17  C   UNL     1      -0.889  11.879  22.054  0.00  0.00    +0.000 A 
ATOM     18  C   UNL     1      -0.551  11.444  20.758  0.00  0.00    +0.000 A 
ATOM     19  C   UNL     1       0.038  10.180  20.579  0.00  0.00    +0.000 A 
ATOM     20  C   UNL     1       0.667   9.703  19.398  0.00  0.00    +0.000 A 
ENDBRANCH   9  11
ENDBRANCH   1   9
BRANCH   6  21
ATOM     21  C   UNL     1       2.920   3.963  17.413  0.00  0.00    +0.000 C 
BRANCH  21  22
ATOM     22  C   UNL     1       2.546   3.595  18.828  0.00  0.00    +0.000 A 
ATOM     23  C   UNL     1       3.470   2.920  19.644  0.00  0.00    +0.000 A 
ATOM     24  C   UNL     1       3.146   2.611  20.968  0.00  0.00    +0.000 A 
ATOM     25  C   UNL     1       1.910   2.973  21.492  0.00  0.00    +0.000 A 
ATOM     26  C   UNL     1       0.991   3.649  20.699  0.00  0.00    +0.000 A 
ATOM     27  C   UNL     1       1.308   3.963  19.374  0.00  0.00    +0.000 A 
ENDBRANCH  21  22
ENDBRANCH   6  21
TORSDOF 4
ENDMDL
MODEL 4
REMARK VINA RESULT:      -8.4      2.758      7.759
REMARK  Name = 
REMARK  4 active torsions:
REMARK  status: ('A' for Active; 'I' for Inactive)
REMARK    1  A    between atoms: S_2  and  N_4
REMARK    2  A    between atoms: S_2  and  C_17
REMARK    3  A    between atoms: N_9  and  C_10
REMARK    4  A    between atoms: C_10  and  C_11
REMARK                            x       y       z     vdW  Elec       q    Type
REMARK                         _______ _______ _______ _____ _____    ______ ____
ROOT
ATOM      1  N   UNL     1       1.621   5.733  18.294  0.00  0.00    +0.000 N 
ATOM      2  C   UNL     1       1.767   4.440  18.856  0.00  0.00    +0.000 A 
ATOM      3  N   UNL     1       1.285   4.114  20.032  0.00  0.00    +0.000 NA
ATOM      4  N   UNL     1       1.484   2.766  20.224  0.00  0.00    +0.000 NA
ATOM      5  C   UNL     1       2.097   2.297  19.158  0.00  0.00    +0.000 A 
ATOM      6  N   UNL     1       2.277   3.322  18.267  0.00  0.00    +0.000 N 
ATOM      7  H   UNL     1       1.578   5.770  17.279  0.00  0.00    +0.000 HD
ENDROOT
BRANCH   1   9
ATOM      8  O   UNL     1       3.695   6.255  19.762  0.00  0.00    +0.000 OA
ATOM      9  S   UNL     1       2.821   6.842  18.794  0.00  0.00    +0.000 S 
ATOM     10  O   UNL     1       3.311   7.399  17.540  0.00  0.00    +0.000 OA
BRANCH   9  11
ATOM     11  C   UNL     1       1.845   8.107  19.580  0.00  0.00    +0.000 A 
ATOM     12  C   UNL     1       1.403   9.135  18.755  0.00  0.00    +0.000 A 
ATOM     13  C   UNL     1       0.841  10.263  19.326  0.00  0.00    +0.000 A 
ATOM     14  C   UNL     1       0.597  10.297  20.696  0.00  0.00    +0.000 A 
ATOM     15  C   UNL     1       0.046  11.438  21.246  0.00  0.00    +0.000 A 
ATOM     16  C   UNL     1      -0.884  11.294  22.256  0.00  0.00    +0.000 A 
ATOM     17  C   UNL     1      -0.804  10.157  23.041  0.00  0.00    +0.000 A 
ATOM     18  C   UNL     1       0.135   9.151  22.744  0.00  0.00    +0.000 A 
ATOM     19  C   UNL     1       0.787   9.150  21.499  0.00  0.00    +0.000 A 
ATOM     20  C   UNL     1       1.550   8.087  20.948  0.00  0.00    +0.000 A 
ENDBRANCH   9  11
ENDBRANCH   1   9
BRANCH   6  21
ATOM     21  C   UNL     1       3.051   3.238  17.041  0.00  0.00    +0.000 C 
BRANCH  21  22
ATOM     22  C   UNL     1       4.383   3.940  17.149  0.00  0.00    +0.000 A 
ATOM     23  C   UNL     1       4.841   4.741  16.090  0.00  0.00    +0.000 A 
ATOM     24  C   UNL     1       6.055   5.426  16.198  0.00  0.00    +0.000 A 
ATOM     25  C   UNL     1       6.818   5.324  17.357  0.00  0.00    +0.000 A 
ATOM     26  C   UNL     1       6.371   4.543  18.415  0.00  0.00    +0.000 A 
ATOM     27  C   UNL     1       5.157   3.856  18.315  0.00  0.00    +0.000 A 
ENDBRANCH  21  22
ENDBRANCH   6  21
TORSDOF 4
ENDMDL
MODEL 5
REMARK VINA RESULT:      -8.4      2.908      7.302
REMARK  Name = 
REMARK  4 active torsions:
REMARK  status: ('A' for Active; 'I' for Inactive)
REMARK    1  A    between atoms: S_2  and  N_4
REMARK    2  A    between atoms: S_2  and  C_17
REMARK    3  A    between atoms: N_9  and  C_10
REMARK    4  A    between atoms: C_10  and  C_11
REMARK                            x       y       z     vdW  Elec       q    Type
REMARK                         _______ _______ _______ _____ _____    ______ ____
ROOT
ATOM      1  N   UNL     1       3.613   6.406  18.828  0.00  0.00    +0.000 N 
ATOM      2  C   UNL     1       4.485   5.742  17.929  0.00  0.00    +0.000 A 
ATOM      3  N   UNL     1       5.633   6.247  17.542  0.00  0.00    +0.000 NA
ATOM      4  N   UNL     1       6.287   5.306  16.781  0.00  0.00    +0.000 NA
ATOM      5  C   UNL     1       5.515   4.244  16.711  0.00  0.00    +0.000 A 
ATOM      6  N   UNL     1       4.377   4.476  17.438  0.00  0.00    +0.000 N 
ATOM      7  H   UNL     1       3.045   5.803  19.417  0.00  0.00    +0.000 HD
ENDROOT
BRANCH   1   9
ATOM      8  O   UNL     1       3.291   8.550  17.403  0.00  0.00    +0.000 OA
ATOM      9  S   UNL     1       2.560   7.519  18.071  0.00  0.00    +0.000 S 
ATOM     10  O   UNL     1       1.609   6.663  17.373  0.00  0.00    +0.000 OA
BRANCH   9  11
ATOM     11  C   UNL     1       1.705   8.220  19.467  0.00  0.00    +0.000 A 
ATOM     12  C   UNL     1       1.700   7.451  20.626  0.00  0.00    +0.000 A 
ATOM     13  C   UNL     1       0.870   7.815  21.672  0.00  0.00    +0.000 A 
ATOM     14  C   UNL     1       0.163   9.012  21.610  0.00  0.00    +0.000 A 
ATOM     15  C   UNL     1      -0.667   9.350  22.661  0.00  0.00    +0.000 A 
ATOM     16  C   UNL     1      -0.731  10.674  23.045  0.00  0.00    +0.000 A 
ATOM     17  C   UNL     1      -0.462  11.632  22.084  0.00  0.00    +0.000 A 
ATOM     18  C   UNL     1      -0.048  11.251  20.794  0.00  0.00    +0.000 A 
ATOM     19  C   UNL     1       0.376   9.932  20.559  0.00  0.00    +0.000 A 
ATOM     20  C   UNL     1       1.058   9.459  19.406  0.00  0.00    +0.000 A 
ENDBRANCH   9  11
ENDBRANCH   1   9
BRANCH   6  21
ATOM     21  C   UNL     1       3.217   3.604  17.476  0.00  0.00    +0.000 C 
BRANCH  21  22
ATOM     22  C   UNL     1       2.691   3.401  18.877  0.00  0.00    +0.000 A 
ATOM     23  C   UNL     1       1.356   3.717  19.177  0.00  0.00    +0.000 A 
ATOM     24  C   UNL     1       0.851   3.495  20.461  0.00  0.00    +0.000 A 
ATOM     25  C   UNL     1       1.663   2.955  21.452  0.00  0.00    +0.000 A 
ATOM     26  C   UNL     1       2.984   2.630  21.165  0.00  0.00    +0.000 A 
ATOM     27  C   UNL     1       3.495   2.848  19.883  0.00  0.00    +0.000 A 
ENDBRANCH  21  22
ENDBRANCH   6  21
TORSDOF 4
ENDMDL
MODEL 6
REMARK VINA RESULT:      -8.2      3.082      7.091
REMARK  Name = 
REMARK  4 active torsions:
REMARK  status: ('A' for Active; 'I' for Inactive)
REMARK    1  A    between atoms: S_2  and  N_4
REMARK    2  A    between atoms: S_2  and  C_17
REMARK    3  A    between atoms: N_9  and  C_10
REMARK    4  A    between atoms: C_10  and  C_11
REMARK                            x       y       z     vdW  Elec       q    Type
REMARK                         _______ _______ _______ _____ _____    ______ ____
ROOT
ATOM      1  N   UNL     1       3.565   6.185  19.228  0.00  0.00    +0.000 N 
ATOM      2  C   UNL     1       4.741   5.575  18.725  0.00  0.00    +0.000 A 
ATOM      3  N   UNL     1       5.904   6.183  18.694  0.00  0.00    +0.000 NA
ATOM      4  N   UNL     1       6.854   5.282  18.274  0.00  0.00    +0.000 NA
ATOM      5  C   UNL     1       6.246   4.138  18.045  0.00  0.00    +0.000 A 
ATOM      6  N   UNL     1       4.914   4.280  18.336  0.00  0.00    +0.000 N 
ATOM      7  H   UNL     1       2.886   5.554  19.647  0.00  0.00    +0.000 HD
ENDROOT
BRANCH   1   9
ATOM      8  O   UNL     1       3.646   7.863  17.252  0.00  0.00    +0.000 OA
ATOM      9  S   UNL     1       2.734   7.133  18.075  0.00  0.00    +0.000 S 
ATOM     10  O   UNL     1       1.754   6.208  17.518  0.00  0.00    +0.000 OA
BRANCH   9  11
ATOM     11  C   UNL     1       1.843   8.274  19.113  0.00  0.00    +0.000 A 
ATOM     12  C   UNL     1       1.336   9.403  18.481  0.00  0.00    +0.000 A 
ATOM     13  C   UNL     1       0.838  10.440  19.251  0.00  0.00    +0.000 A 
ATOM     14  C   UNL     1       0.720  10.283  20.630  0.00  0.00    +0.000 A 
ATOM     15  C   UNL     1       0.230  11.334  21.379  0.00  0.00    +0.000 A 
ATOM     16  C   UNL     1      -0.604  11.049  22.441  0.00  0.00    +0.000 A 
ATOM     17  C   UNL     1      -0.463   9.814  23.051  0.00  0.00    +0.000 A 
ATOM     18  C   UNL     1       0.438   8.863  22.534  0.00  0.00    +0.000 A 
ATOM     19  C   UNL     1       0.973   9.037  21.246  0.00  0.00    +0.000 A 
ATOM     20  C   UNL     1       1.674   8.063  20.486  0.00  0.00    +0.000 A 
ENDBRANCH   9  11
ENDBRANCH   1   9
BRANCH   6  21
ATOM     21  C   UNL     1       3.888   3.289  18.067  0.00  0.00    +0.000 C 
BRANCH  21  22
ATOM     22  C   UNL     1       2.960   3.084  19.239  0.00  0.00    +0.000 A 
ATOM     23  C   UNL     1       3.484   2.729  20.494  0.00  0.00    +0.000 A 
ATOM     24  C   UNL     1       2.635   2.576  21.594  0.00  0.00    +0.000 A 
ATOM     25  C   UNL     1       1.266   2.778  21.458  0.00  0.00    +0.000 A 
ATOM     26  C   UNL     1       0.737   3.138  20.224  0.00  0.00    +0.000 A 
ATOM     27  C   UNL     1       1.579   3.294  19.120  0.00  0.00    +0.000 A 
ENDBRANCH  21  22
ENDBRANCH   6  21
TORSDOF 4
ENDMDL
MODEL 7
REMARK VINA RESULT:      -8.2      1.316      1.680
REMARK  Name = 
REMARK  4 active torsions:
REMARK  status: ('A' for Active; 'I' for Inactive)
REMARK    1  A    between atoms: S_2  and  N_4
REMARK    2  A    between atoms: S_2  and  C_17
REMARK    3  A    between atoms: N_9  and  C_10
REMARK    4  A    between atoms: C_10  and  C_11
REMARK                            x       y       z     vdW  Elec       q    Type
REMARK                         _______ _______ _______ _____ _____    ______ ____
ROOT
ATOM      1  N   UNL     1       3.835   5.802  17.408  0.00  0.00    +0.000 N 
ATOM      2  C   UNL     1       3.141   6.711  18.244  0.00  0.00    +0.000 A 
ATOM      3  N   UNL     1       2.773   7.907  17.849  0.00  0.00    +0.000 NA
ATOM      4  N   UNL     1       2.016   8.480  18.845  0.00  0.00    +0.000 NA
ATOM      5  C   UNL     1       1.946   7.619  19.837  0.00  0.00    +0.000 A 
ATOM      6  N   UNL     1       2.629   6.484  19.487  0.00  0.00    +0.000 N 
ATOM      7  H   UNL     1       3.660   4.816  17.587  0.00  0.00    +0.000 HD
ENDROOT
BRANCH   1   9
ATOM      8  O   UNL     1       5.866   7.414  17.368  0.00  0.00    +0.000 OA
ATOM      9  S   UNL     1       5.529   6.025  17.403  0.00  0.00    +0.000 S 
ATOM     10  O   UNL     1       5.991   5.138  18.463  0.00  0.00    +0.000 OA
BRANCH   9  11
ATOM     11  C   UNL     1       5.992   5.274  15.855  0.00  0.00    +0.000 A 
ATOM     12  C   UNL     1       7.353   5.247  15.575  0.00  0.00    +0.000 A 
ATOM     13  C   UNL     1       7.773   4.894  14.305  0.00  0.00    +0.000 A 
ATOM     14  C   UNL     1       6.847   4.437  13.372  0.00  0.00    +0.000 A 
ATOM     15  C   UNL     1       7.286   4.100  12.107  0.00  0.00    +0.000 A 
ATOM     16  C   UNL     1       6.718   3.006  11.486  0.00  0.00    +0.000 A 
ATOM     17  C   UNL     1       5.425   2.667  11.846  0.00  0.00    +0.000 A 
ATOM     18  C   UNL     1       4.766   3.364  12.876  0.00  0.00    +0.000 A 
ATOM     19  C   UNL     1       5.502   4.197  13.736  0.00  0.00    +0.000 A 
ATOM     20  C   UNL     1       5.049   4.755  14.961  0.00  0.00    +0.000 A 
ENDBRANCH   9  11
ENDBRANCH   1   9
BRANCH   6  21
ATOM     21  C   UNL     1       2.911   5.370  20.374  0.00  0.00    +0.000 C 
BRANCH  21  22
ATOM     22  C   UNL     1       2.463   4.047  19.801  0.00  0.00    +0.000 A 
ATOM     23  C   UNL     1       1.096   3.808  19.576  0.00  0.00    +0.000 A 
ATOM     24  C   UNL     1       0.677   2.602  19.008  0.00  0.00    +0.000 A 
ATOM     25  C   UNL     1       1.607   1.629  18.657  0.00  0.00    +0.000 A 
ATOM     26  C   UNL     1       2.962   1.858  18.866  0.00  0.00    +0.000 A 
ATOM     27  C   UNL     1       3.389   3.063  19.431  0.00  0.00    +0.000 A 
ENDBRANCH  21  22
ENDBRANCH   6  21
TORSDOF 4
ENDMDL
MODEL 8
REMARK VINA RESULT:      -8.1      1.969      3.302
REMARK  Name = 
REMARK  4 active torsions:
REMARK  status: ('A' for Active; 'I' for Inactive)
REMARK    1  A    between atoms: S_2  and  N_4
REMARK    2  A    between atoms: S_2  and  C_17
REMARK    3  A    between atoms: N_9  and  C_10
REMARK    4  A    between atoms: C_10  and  C_11
REMARK                            x       y       z     vdW  Elec       q    Type
REMARK                         _______ _______ _______ _____ _____    ______ ____
ROOT
ATOM      1  N   UNL     1       4.958   4.798  18.013  0.00  0.00    +0.000 N 
ATOM      2  C   UNL     1       3.562   4.556  18.039  0.00  0.00    +0.000 A 
ATOM      3  N   UNL     1       2.948   3.816  17.144  0.00  0.00    +0.000 NA
ATOM      4  N   UNL     1       1.634   3.676  17.525  0.00  0.00    +0.000 NA
ATOM      5  C   UNL     1       1.469   4.346  18.645  0.00  0.00    +0.000 A 
ATOM      6  N   UNL     1       2.669   4.899  19.009  0.00  0.00    +0.000 N 
ATOM      7  H   UNL     1       5.397   4.941  18.918  0.00  0.00    +0.000 HD
ENDROOT
BRANCH   1   9
ATOM      8  O   UNL     1       4.290   6.947  16.721  0.00  0.00    +0.000 OA
ATOM      9  S   UNL     1       5.411   6.109  17.014  0.00  0.00    +0.000 S 
ATOM     10  O   UNL     1       6.618   6.618  17.651  0.00  0.00    +0.000 OA
BRANCH   9  11
ATOM     11  C   UNL     1       5.920   5.274  15.525  0.00  0.00    +0.000 A 
ATOM     12  C   UNL     1       7.290   5.230  15.291  0.00  0.00    +0.000 A 
ATOM     13  C   UNL     1       7.749   4.808  14.055  0.00  0.00    +0.000 A 
ATOM     14  C   UNL     1       6.851   4.302  13.119  0.00  0.00    +0.000 A 
ATOM     15  C   UNL     1       7.330   3.897  11.889  0.00  0.00    +0.000 A 
ATOM     16  C   UNL     1       6.778   2.772  11.310  0.00  0.00    +0.000 A 
ATOM     17  C   UNL     1       5.473   2.455  11.646  0.00  0.00    +0.000 A 
ATOM     18  C   UNL     1       4.784   3.208  12.615  0.00  0.00    +0.000 A 
ATOM     19  C   UNL     1       5.495   4.085  13.452  0.00  0.00    +0.000 A 
ATOM     20  C   UNL     1       5.005   4.710  14.630  0.00  0.00    +0.000 A 
ENDBRANCH   9  11
ENDBRANCH   1   9
BRANCH   6  21
ATOM     21  C   UNL     1       2.860   5.836  20.101  0.00  0.00    +0.000 C 
BRANCH  21  22
ATOM     22  C   UNL     1       2.160   7.152  19.864  0.00  0.00    +0.000 A 
ATOM     23  C   UNL     1       1.433   7.757  20.904  0.00  0.00    +0.000 A 
ATOM     24  C   UNL     1       0.815   8.994  20.705  0.00  0.00    +0.000 A 
ATOM     25  C   UNL     1       0.916   9.641  19.478  0.00  0.00    +0.000 A 
ATOM     26  C   UNL     1       1.640   9.058  18.444  0.00  0.00    +0.000 A 
ATOM     27  C   UNL     1       2.262   7.821  18.637  0.00  0.00    +0.000 A 
ENDBRANCH  21  22
ENDBRANCH   6  21
TORSDOF 4
ENDMDL
MODEL 9
REMARK VINA RESULT:      -8.1      2.781      6.766
REMARK  Name = 
REMARK  4 active torsions:
REMARK  status: ('A' for Active; 'I' for Inactive)
REMARK    1  A    between atoms: S_2  and  N_4
REMARK    2  A    between atoms: S_2  and  C_17
REMARK    3  A    between atoms: N_9  and  C_10
REMARK    4  A    between atoms: C_10  and  C_11
REMARK                            x       y       z     vdW  Elec       q    Type
REMARK                         _______ _______ _______ _____ _____    ______ ____
ROOT
ATOM      1  N   UNL     1       4.200   6.763  18.810  0.00  0.00    +0.000 N 
ATOM      2  C   UNL     1       4.742   6.241  17.609  0.00  0.00    +0.000 A 
ATOM      3  N   UNL     1       4.731   6.900  16.474  0.00  0.00    +0.000 NA
ATOM      4  N   UNL     1       5.442   6.177  15.545  0.00  0.00    +0.000 NA
ATOM      5  C   UNL     1       5.867   5.079  16.134  0.00  0.00    +0.000 A 
ATOM      6  N   UNL     1       5.458   5.094  17.442  0.00  0.00    +0.000 N 
ATOM      7  H   UNL     1       4.646   6.450  19.668  0.00  0.00    +0.000 HD
ENDROOT
BRANCH   1   9
ATOM      8  O   UNL     1       1.989   5.804  17.848  0.00  0.00    +0.000 OA
ATOM      9  S   UNL     1       2.521   6.494  18.981  0.00  0.00    +0.000 S 
ATOM     10  O   UNL     1       2.398   5.974  20.337  0.00  0.00    +0.000 OA
BRANCH   9  11
ATOM     11  C   UNL     1       1.885   8.158  19.002  0.00  0.00    +0.000 A 
ATOM     12  C   UNL     1       2.104   8.907  17.852  0.00  0.00    +0.000 A 
ATOM     13  C   UNL     1       1.849  10.267  17.874  0.00  0.00    +0.000 A 
ATOM     14  C   UNL     1       1.248  10.840  18.992  0.00  0.00    +0.000 A 
ATOM     15  C   UNL     1       1.013  12.201  18.997  0.00  0.00    +0.000 A 
ATOM     16  C   UNL     1      -0.156  12.661  19.571  0.00  0.00    +0.000 A 
ATOM     17  C   UNL     1      -0.724  11.890  20.570  0.00  0.00    +0.000 A 
ATOM     18  C   UNL     1      -0.169  10.641  20.909  0.00  0.00    +0.000 A 
ATOM     19  C   UNL     1       0.769  10.039  20.054  0.00  0.00    +0.000 A 
ATOM     20  C   UNL     1       1.221   8.694  20.111  0.00  0.00    +0.000 A 
ENDBRANCH   9  11
ENDBRANCH   1   9
BRANCH   6  21
ATOM     21  C   UNL     1       5.598   3.989  18.374  0.00  0.00    +0.000 C 
BRANCH  21  22
ATOM     22  C   UNL     1       4.294   3.267  18.613  0.00  0.00    +0.000 A 
ATOM     23  C   UNL     1       3.834   3.067  19.926  0.00  0.00    +0.000 A 
ATOM     24  C   UNL     1       2.609   2.435  20.155  0.00  0.00    +0.000 A 
ATOM     25  C   UNL     1       1.831   2.002  19.087  0.00  0.00    +0.000 A 
ATOM     26  C   UNL     1       2.271   2.202  17.783  0.00  0.00    +0.000 A 
ATOM     27  C   UNL     1       3.494   2.835  17.546  0.00  0.00    +0.000 A 
ENDBRANCH  21  22
ENDBRANCH   6  21
TORSDOF 4
ENDMDL
