MODEL 1
REMARK VINA RESULT:      -8.4      0.000      0.000
REMARK  Name = 
REMARK  3 active torsions:
REMARK  status: ('A' for Active; 'I' for Inactive)
REMARK    1  A    between atoms: C_2  and  C_15
REMARK    2  A    between atoms: C_7  and  C_8
REMARK    3  A    between atoms: N_18  and  C_19
REMARK                            x       y       z     vdW  Elec       q    Type
REMARK                         _______ _______ _______ _____ _____    ______ ____
ROOT
ATOM      1  O   UNL     1       8.210   6.746  18.923  0.00  0.00    +0.000 OA
ATOM      2  C   UNL     1       7.401   7.148  18.093  0.00  0.00    +0.000 C 
ATOM      3  N   UNL     1       7.326   8.421  17.561  0.00  0.00    +0.000 N 
ATOM      4  C   UNL     1       8.203   9.396  17.967  0.00  0.00    +0.000 A 
ATOM      5  N   UNL     1       9.189   9.303  18.830  0.00  0.00    +0.000 NA
ATOM      6  N   UNL     1       9.764  10.539  18.975  0.00  0.00    +0.000 NA
ATOM      7  C   UNL     1       9.124  11.382  18.191  0.00  0.00    +0.000 A 
ATOM      8  N   UNL     1       8.158  10.685  17.507  0.00  0.00    +0.000 N 
ATOM      9  H   UNL     1       6.585   8.600  16.896  0.00  0.00    +0.000 HD
ATOM     10  H   UNL     1       7.528  11.090  16.833  0.00  0.00    +0.000 HD
ENDROOT
BRANCH   7  11
ATOM     11  C   UNL     1       9.348  12.814  18.066  0.00  0.00    +0.000 A 
ATOM     12  C   UNL     1       8.312  13.719  18.276  0.00  0.00    +0.000 A 
ATOM     13  C   UNL     1       8.566  15.077  18.111  0.00  0.00    +0.000 A 
ATOM     14  C   UNL     1       9.844  15.485  17.751  0.00  0.00    +0.000 A 
ATOM     15  C   UNL     1      10.819  14.515  17.568  0.00  0.00    +0.000 A 
ATOM     16  N   UNL     1      10.605  13.185  17.712  0.00  0.00    +0.000 NA
ENDBRANCH   7  11
BRANCH   2  17
ATOM     17  C   UNL     1       6.366   6.233  17.577  0.00  0.00    +0.000 A 
ATOM     18  C   UNL     1       6.199   5.891  16.215  0.00  0.00    +0.000 A 
ATOM     19  C   UNL     1       5.138   5.028  16.184  0.00  0.00    +0.000 A 
ATOM     20  N   UNL     1       4.679   4.903  17.475  0.00  0.00    +0.000 N 
ATOM     21  N   UNL     1       5.454   5.610  18.355  0.00  0.00    +0.000 NA
BRANCH  20  22
ATOM     22  C   UNL     1       3.538   4.167  17.908  0.00  0.00    +0.000 A 
ATOM     23  C   UNL     1       3.314   2.869  17.423  0.00  0.00    +0.000 A 
ATOM     24  C   UNL     1       2.212   2.130  17.872  0.00  0.00    +0.000 A 
ATOM     25  C   UNL     1       1.328   2.682  18.797  0.00  0.00    +0.000 A 
ATOM     26  C   UNL     1       1.550   3.970  19.267  0.00  0.00    +0.000 A 
ATOM     27  F   UNL     1       0.701   4.502  20.156  0.00  0.00    +0.000 F 
ATOM     28  C   UNL     1       2.641   4.717  18.835  0.00  0.00    +0.000 A 
ENDBRANCH  20  22
ENDBRANCH   2  17
TORSDOF 3
ENDMDL
MODEL 2
REMARK VINA RESULT:      -8.3      6.284      7.912
REMARK  Name = 
REMARK  3 active torsions:
REMARK  status: ('A' for Active; 'I' for Inactive)
REMARK    1  A    between atoms: C_2  and  C_15
REMARK    2  A    between atoms: C_7  and  C_8
REMARK    3  A    between atoms: N_18  and  C_19
REMARK                            x       y       z     vdW  Elec       q    Type
REMARK                         _______ _______ _______ _____ _____    ______ ____
ROOT
ATOM      1  O   UNL     1       3.263   3.948  19.068  0.00  0.00    +0.000 OA
ATOM      2  C   UNL     1       3.891   4.923  18.667  0.00  0.00    +0.000 C 
ATOM      3  N   UNL     1       3.653   6.246  18.987  0.00  0.00    +0.000 N 
ATOM      4  C   UNL     1       2.615   6.584  19.819  0.00  0.00    +0.000 A 
ATOM      5  N   UNL     1       1.757   5.792  20.422  0.00  0.00    +0.000 NA
ATOM      6  N   UNL     1       0.853   6.563  21.106  0.00  0.00    +0.000 NA
ATOM      7  C   UNL     1       1.170   7.829  20.917  0.00  0.00    +0.000 A 
ATOM      8  N   UNL     1       2.304   7.878  20.144  0.00  0.00    +0.000 N 
ATOM      9  H   UNL     1       4.252   6.939  18.557  0.00  0.00    +0.000 HD
ATOM     10  H   UNL     1       2.765   8.725  19.857  0.00  0.00    +0.000 HD
ENDROOT
BRANCH   7  11
ATOM     11  C   UNL     1       0.453   8.998  21.401  0.00  0.00    +0.000 A 
ATOM     12  C   UNL     1      -0.011   9.058  22.712  0.00  0.00    +0.000 A 
ATOM     13  C   UNL     1      -0.722  10.182  23.119  0.00  0.00    +0.000 A 
ATOM     14  C   UNL     1      -0.938  11.210  22.210  0.00  0.00    +0.000 A 
ATOM     15  C   UNL     1      -0.435  11.069  20.924  0.00  0.00    +0.000 A 
ATOM     16  N   UNL     1       0.253   9.986  20.491  0.00  0.00    +0.000 NA
ENDBRANCH   7  11
BRANCH   2  17
ATOM     17  C   UNL     1       5.019   4.735  17.737  0.00  0.00    +0.000 A 
ATOM     18  C   UNL     1       6.379   4.690  18.119  0.00  0.00    +0.000 A 
ATOM     19  C   UNL     1       7.078   4.503  16.957  0.00  0.00    +0.000 A 
ATOM     20  N   UNL     1       6.161   4.480  15.933  0.00  0.00    +0.000 N 
ATOM     21  N   UNL     1       4.878   4.580  16.403  0.00  0.00    +0.000 NA
BRANCH  20  22
ATOM     22  C   UNL     1       6.441   4.387  14.539  0.00  0.00    +0.000 A 
ATOM     23  C   UNL     1       7.459   5.170  13.973  0.00  0.00    +0.000 A 
ATOM     24  C   UNL     1       7.760   5.058  12.610  0.00  0.00    +0.000 A 
ATOM     25  C   UNL     1       7.046   4.173  11.806  0.00  0.00    +0.000 A 
ATOM     26  C   UNL     1       6.033   3.407  12.368  0.00  0.00    +0.000 A 
ATOM     27  F   UNL     1       5.344   2.556  11.596  0.00  0.00    +0.000 F 
ATOM     28  C   UNL     1       5.723   3.502  13.720  0.00  0.00    +0.000 A 
ENDBRANCH  20  22
ENDBRANCH   2  17
TORSDOF 3
ENDMDL
MODEL 3
REMARK VINA RESULT:      -8.3      1.187      1.617
REMARK  Name = 
REMARK  3 active torsions:
REMARK  status: ('A' for Active; 'I' for Inactive)
REMARK    1  A    between atoms: C_2  and  C_15
REMARK    2  A    between atoms: C_7  and  C_8
REMARK    3  A    between atoms: N_18  and  C_19
REMARK                            x       y       z     vdW  Elec       q    Type
REMARK                         _______ _______ _______ _____ _____    ______ ____
ROOT
ATOM      1  O   UNL     1       8.315   6.925  18.896  0.00  0.00    +0.000 OA
ATOM      2  C   UNL     1       7.537   7.333  18.038  0.00  0.00    +0.000 C 
ATOM      3  N   UNL     1       7.471   8.614  17.526  0.00  0.00    +0.000 N 
ATOM      4  C   UNL     1       8.318   9.591  17.987  0.00  0.00    +0.000 A 
ATOM      5  N   UNL     1       9.266   9.494  18.890  0.00  0.00    +0.000 NA
ATOM      6  N   UNL     1       9.820  10.733  19.082  0.00  0.00    +0.000 NA
ATOM      7  C   UNL     1       9.204  11.583  18.285  0.00  0.00    +0.000 A 
ATOM      8  N   UNL     1       8.278  10.888  17.547  0.00  0.00    +0.000 N 
ATOM      9  H   UNL     1       6.758   8.797  16.832  0.00  0.00    +0.000 HD
ATOM     10  H   UNL     1       7.673  11.297  16.854  0.00  0.00    +0.000 HD
ENDROOT
BRANCH   7  11
ATOM     11  C   UNL     1       9.418  13.019  18.195  0.00  0.00    +0.000 A 
ATOM     12  C   UNL     1      10.650  13.534  17.801  0.00  0.00    +0.000 A 
ATOM     13  C   UNL     1      10.818  14.914  17.763  0.00  0.00    +0.000 A 
ATOM     14  C   UNL     1       9.750  15.733  18.110  0.00  0.00    +0.000 A 
ATOM     15  C   UNL     1       8.555  15.135  18.484  0.00  0.00    +0.000 A 
ATOM     16  N   UNL     1       8.360  13.796  18.542  0.00  0.00    +0.000 NA
ENDBRANCH   7  11
BRANCH   2  17
ATOM     17  C   UNL     1       6.537   6.415  17.462  0.00  0.00    +0.000 A 
ATOM     18  C   UNL     1       6.352   6.191  16.079  0.00  0.00    +0.000 A 
ATOM     19  C   UNL     1       5.335   5.280  15.990  0.00  0.00    +0.000 A 
ATOM     20  N   UNL     1       4.917   5.014  17.273  0.00  0.00    +0.000 N 
ATOM     21  N   UNL     1       5.678   5.677  18.198  0.00  0.00    +0.000 NA
BRANCH  20  22
ATOM     22  C   UNL     1       3.826   4.183  17.660  0.00  0.00    +0.000 A 
ATOM     23  C   UNL     1       2.523   4.703  17.690  0.00  0.00    +0.000 A 
ATOM     24  C   UNL     1       1.443   3.882  18.037  0.00  0.00    +0.000 A 
ATOM     25  C   UNL     1       1.658   2.544  18.362  0.00  0.00    +0.000 A 
ATOM     26  C   UNL     1       2.950   2.036  18.339  0.00  0.00    +0.000 A 
ATOM     27  F   UNL     1       3.158   0.750  18.652  0.00  0.00    +0.000 F 
ATOM     28  C   UNL     1       4.033   2.836  17.993  0.00  0.00    +0.000 A 
ENDBRANCH  20  22
ENDBRANCH   2  17
TORSDOF 3
ENDMDL
MODEL 4
REMARK VINA RESULT:      -8.2      2.904      4.098
REMARK  Name = 
REMARK  3 active torsions:
REMARK  status: ('A' for Active; 'I' for Inactive)
REMARK    1  A    between atoms: C_2  and  C_15
REMARK    2  A    between atoms: C_7  and  C_8
REMARK    3  A    between atoms: N_18  and  C_19
REMARK                            x       y       z     vdW  Elec       q    Type
REMARK                         _______ _______ _______ _____ _____    ______ ____
ROOT
ATOM      1  O   UNL     1       8.166   6.712  19.050  0.00  0.00    +0.000 OA
ATOM      2  C   UNL     1       7.736   7.063  17.955  0.00  0.00    +0.000 C 
ATOM      3  N   UNL     1       7.829   8.324  17.398  0.00  0.00    +0.000 N 
ATOM      4  C   UNL     1       8.435   9.345  18.087  0.00  0.00    +0.000 A 
ATOM      5  N   UNL     1       9.002   9.311  19.271  0.00  0.00    +0.000 NA
ATOM      6  N   UNL     1       9.425  10.575  19.593  0.00  0.00    +0.000 NA
ATOM      7  C   UNL     1       9.114  11.376  18.594  0.00  0.00    +0.000 A 
ATOM      8  N   UNL     1       8.526  10.624  17.606  0.00  0.00    +0.000 N 
ATOM      9  H   UNL     1       7.405   8.459  16.490  0.00  0.00    +0.000 HD
ATOM     10  H   UNL     1       8.199  10.989  16.726  0.00  0.00    +0.000 HD
ENDROOT
BRANCH   7  11
ATOM     11  C   UNL     1       9.315  12.815  18.523  0.00  0.00    +0.000 A 
ATOM     12  C   UNL     1      10.236  13.364  17.635  0.00  0.00    +0.000 A 
ATOM     13  C   UNL     1      10.418  14.742  17.627  0.00  0.00    +0.000 A 
ATOM     14  C   UNL     1       9.673  15.526  18.498  0.00  0.00    +0.000 A 
ATOM     15  C   UNL     1       8.773  14.897  19.346  0.00  0.00    +0.000 A 
ATOM     16  N   UNL     1       8.576  13.557  19.386  0.00  0.00    +0.000 NA
ENDBRANCH   7  11
BRANCH   2  17
ATOM     17  C   UNL     1       7.026   6.093  17.102  0.00  0.00    +0.000 A 
ATOM     18  C   UNL     1       6.096   5.137  17.571  0.00  0.00    +0.000 A 
ATOM     19  C   UNL     1       5.685   4.453  16.460  0.00  0.00    +0.000 A 
ATOM     20  N   UNL     1       6.379   4.965  15.389  0.00  0.00    +0.000 N 
ATOM     21  N   UNL     1       7.183   6.009  15.763  0.00  0.00    +0.000 NA
BRANCH  20  22
ATOM     22  C   UNL     1       6.333   4.503  14.042  0.00  0.00    +0.000 A 
ATOM     23  C   UNL     1       7.457   4.643  13.212  0.00  0.00    +0.000 A 
ATOM     24  C   UNL     1       7.428   4.161  11.898  0.00  0.00    +0.000 A 
ATOM     25  C   UNL     1       6.280   3.544  11.404  0.00  0.00    +0.000 A 
ATOM     26  C   UNL     1       5.168   3.415  12.226  0.00  0.00    +0.000 A 
ATOM     27  F   UNL     1       4.063   2.824  11.752  0.00  0.00    +0.000 F 
ATOM     28  C   UNL     1       5.181   3.885  13.535  0.00  0.00    +0.000 A 
ENDBRANCH  20  22
ENDBRANCH   2  17
TORSDOF 3
ENDMDL
MODEL 5
REMARK VINA RESULT:      -8.1      6.048      7.628
REMARK  Name = 
REMARK  3 active torsions:
REMARK  status: ('A' for Active; 'I' for Inactive)
REMARK    1  A    between atoms: C_2  and  C_15
REMARK    2  A    between atoms: C_7  and  C_8
REMARK    3  A    between atoms: N_18  and  C_19
REMARK                            x       y       z     vdW  Elec       q    Type
REMARK                         _______ _______ _______ _____ _____    ______ ____
ROOT
ATOM      1  O   UNL     1       4.056   5.439  19.680  0.00  0.00    +0.000 OA
ATOM      2  C   UNL     1       4.256   5.972  18.592  0.00  0.00    +0.000 C 
ATOM      3  N   UNL     1       3.614   7.087  18.090  0.00  0.00    +0.000 N 
ATOM      4  C   UNL     1       2.628   7.709  18.815  0.00  0.00    +0.000 A 
ATOM      5  N   UNL     1       2.175   7.403  20.010  0.00  0.00    +0.000 NA
ATOM      6  N   UNL     1       1.147   8.255  20.321  0.00  0.00    +0.000 NA
ATOM      7  C   UNL     1       0.982   9.083  19.309  0.00  0.00    +0.000 A 
ATOM      8  N   UNL     1       1.930   8.794  18.358  0.00  0.00    +0.000 N 
ATOM      9  H   UNL     1       3.881   7.395  17.163  0.00  0.00    +0.000 HD
ATOM     10  H   UNL     1       2.032   9.283  17.484  0.00  0.00    +0.000 HD
ENDROOT
BRANCH   7  11
ATOM     11  C   UNL     1      -0.033  10.116  19.172  0.00  0.00    +0.000 A 
ATOM     12  C   UNL     1      -0.311  10.986  20.222  0.00  0.00    +0.000 A 
ATOM     13  C   UNL     1      -1.314  11.936  20.056  0.00  0.00    +0.000 A 
ATOM     14  C   UNL     1      -1.999  11.989  18.849  0.00  0.00    +0.000 A 
ATOM     15  C   UNL     1      -1.653  11.087  17.854  0.00  0.00    +0.000 A 
ATOM     16  N   UNL     1      -0.688  10.144  17.984  0.00  0.00    +0.000 NA
ENDBRANCH   7  11
BRANCH   2  17
ATOM     17  C   UNL     1       5.261   5.406  17.674  0.00  0.00    +0.000 A 
ATOM     18  C   UNL     1       6.532   4.927  18.067  0.00  0.00    +0.000 A 
ATOM     19  C   UNL     1       7.131   4.498  16.915  0.00  0.00    +0.000 A 
ATOM     20  N   UNL     1       6.259   4.755  15.884  0.00  0.00    +0.000 N 
ATOM     21  N   UNL     1       5.079   5.279  16.342  0.00  0.00    +0.000 NA
BRANCH  20  22
ATOM     22  C   UNL     1       6.494   4.548  14.494  0.00  0.00    +0.000 A 
ATOM     23  C   UNL     1       7.508   5.264  13.839  0.00  0.00    +0.000 A 
ATOM     24  C   UNL     1       7.765   5.040  12.481  0.00  0.00    +0.000 A 
ATOM     25  C   UNL     1       7.012   4.107  11.770  0.00  0.00    +0.000 A 
ATOM     26  C   UNL     1       6.004   3.406  12.421  0.00  0.00    +0.000 A 
ATOM     27  F   UNL     1       5.278   2.511  11.739  0.00  0.00    +0.000 F 
ATOM     28  C   UNL     1       5.738   3.614  13.770  0.00  0.00    +0.000 A 
ENDBRANCH  20  22
ENDBRANCH   2  17
TORSDOF 3
ENDMDL
MODEL 6
REMARK VINA RESULT:      -8.1      1.023      1.041
REMARK  Name = 
REMARK  3 active torsions:
REMARK  status: ('A' for Active; 'I' for Inactive)
REMARK    1  A    between atoms: C_2  and  C_15
REMARK    2  A    between atoms: C_7  and  C_8
REMARK    3  A    between atoms: N_18  and  C_19
REMARK                            x       y       z     vdW  Elec       q    Type
REMARK                         _______ _______ _______ _____ _____    ______ ____
ROOT
ATOM      1  O   UNL     1       8.654   7.007  19.131  0.00  0.00    +0.000 OA
ATOM      2  C   UNL     1       7.823   7.288  18.274  0.00  0.00    +0.000 C 
ATOM      3  N   UNL     1       7.615   8.527  17.700  0.00  0.00    +0.000 N 
ATOM      4  C   UNL     1       8.365   9.609  18.090  0.00  0.00    +0.000 A 
ATOM      5  N   UNL     1       9.336   9.655  18.974  0.00  0.00    +0.000 NA
ATOM      6  N   UNL     1       9.763  10.953  19.090  0.00  0.00    +0.000 NA
ATOM      7  C   UNL     1       9.048  11.693  18.267  0.00  0.00    +0.000 A 
ATOM      8  N   UNL     1       8.183  10.869  17.588  0.00  0.00    +0.000 N 
ATOM      9  H   UNL     1       6.873   8.600  17.016  0.00  0.00    +0.000 HD
ATOM     10  H   UNL     1       7.527  11.179  16.890  0.00  0.00    +0.000 HD
ENDROOT
BRANCH   7  11
ATOM     11  C   UNL     1       9.110  13.137  18.100  0.00  0.00    +0.000 A 
ATOM     12  C   UNL     1       7.947  13.901  18.056  0.00  0.00    +0.000 A 
ATOM     13  C   UNL     1       8.055  15.273  17.860  0.00  0.00    +0.000 A 
ATOM     14  C   UNL     1       9.316  15.837  17.721  0.00  0.00    +0.000 A 
ATOM     15  C   UNL     1      10.423  15.003  17.783  0.00  0.00    +0.000 A 
ATOM     16  N   UNL     1      10.354  13.662  17.964  0.00  0.00    +0.000 NA
ENDBRANCH   7  11
BRANCH   2  17
ATOM     17  C   UNL     1       6.911   6.245  17.769  0.00  0.00    +0.000 A 
ATOM     18  C   UNL     1       6.816   5.843  16.417  0.00  0.00    +0.000 A 
ATOM     19  C   UNL     1       5.861   4.864  16.395  0.00  0.00    +0.000 A 
ATOM     20  N   UNL     1       5.388   4.728  17.679  0.00  0.00    +0.000 N 
ATOM     21  N   UNL     1       6.057   5.547  18.550  0.00  0.00    +0.000 NA
BRANCH  20  22
ATOM     22  C   UNL     1       4.328   3.882  18.114  0.00  0.00    +0.000 A 
ATOM     23  C   UNL     1       3.409   3.373  17.184  0.00  0.00    +0.000 A 
ATOM     24  C   UNL     1       2.385   2.514  17.601  0.00  0.00    +0.000 A 
ATOM     25  C   UNL     1       2.269   2.164  18.945  0.00  0.00    +0.000 A 
ATOM     26  C   UNL     1       3.177   2.677  19.864  0.00  0.00    +0.000 A 
ATOM     27  F   UNL     1       3.066   2.343  21.156  0.00  0.00    +0.000 F 
ATOM     28  C   UNL     1       4.202   3.528  19.465  0.00  0.00    +0.000 A 
ENDBRANCH  20  22
ENDBRANCH   2  17
TORSDOF 3
ENDMDL
MODEL 7
REMARK VINA RESULT:      -8.1      3.582     10.198
REMARK  Name = 
REMARK  3 active torsions:
REMARK  status: ('A' for Active; 'I' for Inactive)
REMARK    1  A    between atoms: C_2  and  C_15
REMARK    2  A    between atoms: C_7  and  C_8
REMARK    3  A    between atoms: N_18  and  C_19
REMARK                            x       y       z     vdW  Elec       q    Type
REMARK                         _______ _______ _______ _____ _____    ______ ____
ROOT
ATOM      1  O   UNL     1       9.711  10.147  19.808  0.00  0.00    +0.000 OA
ATOM      2  C   UNL     1       9.372  10.632  18.733  0.00  0.00    +0.000 C 
ATOM      3  N   UNL     1       8.641  10.008  17.740  0.00  0.00    +0.000 N 
ATOM      4  C   UNL     1       8.231   8.707  17.893  0.00  0.00    +0.000 A 
ATOM      5  N   UNL     1       8.418   7.904  18.915  0.00  0.00    +0.000 NA
ATOM      6  N   UNL     1       7.890   6.675  18.612  0.00  0.00    +0.000 NA
ATOM      7  C   UNL     1       7.377   6.739  17.400  0.00  0.00    +0.000 A 
ATOM      8  N   UNL     1       7.536   8.021  16.932  0.00  0.00    +0.000 N 
ATOM      9  H   UNL     1       8.457  10.539  16.899  0.00  0.00    +0.000 HD
ATOM     10  H   UNL     1       7.225   8.344  16.031  0.00  0.00    +0.000 HD
ENDROOT
BRANCH   7  11
ATOM     11  C   UNL     1       6.768   5.657  16.643  0.00  0.00    +0.000 A 
ATOM     12  C   UNL     1       5.732   4.902  17.186  0.00  0.00    +0.000 A 
ATOM     13  C   UNL     1       5.204   3.855  16.438  0.00  0.00    +0.000 A 
ATOM     14  C   UNL     1       5.720   3.602  15.173  0.00  0.00    +0.000 A 
ATOM     15  C   UNL     1       6.748   4.408  14.707  0.00  0.00    +0.000 A 
ATOM     16  N   UNL     1       7.292   5.430  15.412  0.00  0.00    +0.000 NA
ENDBRANCH   7  11
BRANCH   2  17
ATOM     17  C   UNL     1       9.762  12.013  18.397  0.00  0.00    +0.000 A 
ATOM     18  C   UNL     1      10.976  12.378  17.770  0.00  0.00    +0.000 A 
ATOM     19  C   UNL     1      10.929  13.739  17.648  0.00  0.00    +0.000 A 
ATOM     20  N   UNL     1       9.748  14.156  18.218  0.00  0.00    +0.000 N 
ATOM     21  N   UNL     1       8.996  13.096  18.649  0.00  0.00    +0.000 NA
BRANCH  20  22
ATOM     22  C   UNL     1       9.312  15.502  18.390  0.00  0.00    +0.000 A 
ATOM     23  C   UNL     1      10.252  16.542  18.459  0.00  0.00    +0.000 A 
ATOM     24  C   UNL     1       9.826  17.869  18.594  0.00  0.00    +0.000 A 
ATOM     25  C   UNL     1       8.466  18.164  18.669  0.00  0.00    +0.000 A 
ATOM     26  C   UNL     1       7.540  17.130  18.609  0.00  0.00    +0.000 A 
ATOM     27  F   UNL     1       6.233  17.412  18.681  0.00  0.00    +0.000 F 
ATOM     28  C   UNL     1       7.945  15.807  18.470  0.00  0.00    +0.000 A 
ENDBRANCH  20  22
ENDBRANCH   2  17
TORSDOF 3
ENDMDL
MODEL 8
REMARK VINA RESULT:      -8.1      6.908      8.571
REMARK  Name = 
REMARK  3 active torsions:
REMARK  status: ('A' for Active; 'I' for Inactive)
REMARK    1  A    between atoms: C_2  and  C_15
REMARK    2  A    between atoms: C_7  and  C_8
REMARK    3  A    between atoms: N_18  and  C_19
REMARK                            x       y       z     vdW  Elec       q    Type
REMARK                         _______ _______ _______ _____ _____    ______ ____
ROOT
ATOM      1  O   UNL     1       1.323   9.502  17.756  0.00  0.00    +0.000 OA
ATOM      2  C   UNL     1       1.541   8.877  18.789  0.00  0.00    +0.000 C 
ATOM      3  N   UNL     1       1.043   9.162  20.046  0.00  0.00    +0.000 N 
ATOM      4  C   UNL     1       0.228  10.248  20.242  0.00  0.00    +0.000 A 
ATOM      5  N   UNL     1      -0.205  11.117  19.356  0.00  0.00    +0.000 NA
ATOM      6  N   UNL     1      -0.946  12.072  20.003  0.00  0.00    +0.000 NA
ATOM      7  C   UNL     1      -0.963  11.775  21.287  0.00  0.00    +0.000 A 
ATOM      8  N   UNL     1      -0.267  10.604  21.468  0.00  0.00    +0.000 N 
ATOM      9  H   UNL     1       1.334   8.558  20.805  0.00  0.00    +0.000 HD
ATOM     10  H   UNL     1      -0.133  10.149  22.356  0.00  0.00    +0.000 HD
ENDROOT
BRANCH   7  11
ATOM     11  C   UNL     1      -1.575  12.542  22.361  0.00  0.00    +0.000 A 
ATOM     12  C   UNL     1      -2.839  12.213  22.842  0.00  0.00    +0.000 A 
ATOM     13  C   UNL     1      -3.398  12.996  23.846  0.00  0.00    +0.000 A 
ATOM     14  C   UNL     1      -2.676  14.075  24.340  0.00  0.00    +0.000 A 
ATOM     15  C   UNL     1      -1.420  14.328  23.808  0.00  0.00    +0.000 A 
ATOM     16  N   UNL     1      -0.849  13.591  22.824  0.00  0.00    +0.000 NA
ENDBRANCH   7  11
BRANCH   2  17
ATOM     17  C   UNL     1       2.428   7.700  18.759  0.00  0.00    +0.000 A 
ATOM     18  C   UNL     1       2.463   6.692  19.750  0.00  0.00    +0.000 A 
ATOM     19  C   UNL     1       3.414   5.802  19.331  0.00  0.00    +0.000 A 
ATOM     20  N   UNL     1       3.941   6.294  18.160  0.00  0.00    +0.000 N 
ATOM     21  N   UNL     1       3.312   7.447  17.770  0.00  0.00    +0.000 NA
BRANCH  20  22
ATOM     22  C   UNL     1       5.017   5.739  17.409  0.00  0.00    +0.000 A 
ATOM     23  C   UNL     1       4.972   5.746  16.006  0.00  0.00    +0.000 A 
ATOM     24  C   UNL     1       6.042   5.232  15.264  0.00  0.00    +0.000 A 
ATOM     25  C   UNL     1       7.156   4.704  15.913  0.00  0.00    +0.000 A 
ATOM     26  C   UNL     1       7.192   4.691  17.302  0.00  0.00    +0.000 A 
ATOM     27  F   UNL     1       8.261   4.182  17.928  0.00  0.00    +0.000 F 
ATOM     28  C   UNL     1       6.140   5.201  18.055  0.00  0.00    +0.000 A 
ENDBRANCH  20  22
ENDBRANCH   2  17
TORSDOF 3
ENDMDL
MODEL 9
REMARK VINA RESULT:      -8.0      6.353      7.956
REMARK  Name = 
REMARK  3 active torsions:
REMARK  status: ('A' for Active; 'I' for Inactive)
REMARK    1  A    between atoms: C_2  and  C_15
REMARK    2  A    between atoms: C_7  and  C_8
REMARK    3  A    between atoms: N_18  and  C_19
REMARK                            x       y       z     vdW  Elec       q    Type
REMARK                         _______ _______ _______ _____ _____    ______ ____
ROOT
ATOM      1  O   UNL     1       3.133   3.945  18.872  0.00  0.00    +0.000 OA
ATOM      2  C   UNL     1       3.843   4.901  18.578  0.00  0.00    +0.000 C 
ATOM      3  N   UNL     1       3.676   6.210  18.988  0.00  0.00    +0.000 N 
ATOM      4  C   UNL     1       2.619   6.557  19.794  0.00  0.00    +0.000 A 
ATOM      5  N   UNL     1       1.682   5.783  20.292  0.00  0.00    +0.000 NA
ATOM      6  N   UNL     1       0.795   6.562  20.990  0.00  0.00    +0.000 NA
ATOM      7  C   UNL     1       1.204   7.813  20.916  0.00  0.00    +0.000 A 
ATOM      8  N   UNL     1       2.378   7.841  20.203  0.00  0.00    +0.000 N 
ATOM      9  H   UNL     1       4.340   6.890  18.642  0.00  0.00    +0.000 HD
ATOM     10  H   UNL     1       2.907   8.674  20.005  0.00  0.00    +0.000 HD
ENDROOT
BRANCH   7  11
ATOM     11  C   UNL     1       0.540   8.990  21.454  0.00  0.00    +0.000 A 
ATOM     12  C   UNL     1      -0.101   8.945  22.689  0.00  0.00    +0.000 A 
ATOM     13  C   UNL     1      -0.751  10.086  23.148  0.00  0.00    +0.000 A 
ATOM     14  C   UNL     1      -0.734  11.232  22.364  0.00  0.00    +0.000 A 
ATOM     15  C   UNL     1      -0.066  11.191  21.149  0.00  0.00    +0.000 A 
ATOM     16  N   UNL     1       0.570  10.096  20.668  0.00  0.00    +0.000 NA
ENDBRANCH   7  11
BRANCH   2  17
ATOM     17  C   UNL     1       5.004   4.706  17.690  0.00  0.00    +0.000 A 
ATOM     18  C   UNL     1       6.343   4.593  18.128  0.00  0.00    +0.000 A 
ATOM     19  C   UNL     1       7.085   4.423  16.991  0.00  0.00    +0.000 A 
ATOM     20  N   UNL     1       6.214   4.476  15.928  0.00  0.00    +0.000 N 
ATOM     21  N   UNL     1       4.917   4.608  16.346  0.00  0.00    +0.000 NA
BRANCH  20  22
ATOM     22  C   UNL     1       6.552   4.427  14.545  0.00  0.00    +0.000 A 
ATOM     23  C   UNL     1       5.959   3.467  13.710  0.00  0.00    +0.000 A 
ATOM     24  C   UNL     1       6.262   3.437  12.343  0.00  0.00    +0.000 A 
ATOM     25  C   UNL     1       7.162   4.355  11.805  0.00  0.00    +0.000 A 
ATOM     26  C   UNL     1       7.753   5.297  12.637  0.00  0.00    +0.000 A 
ATOM     27  F   UNL     1       8.619   6.180  12.122  0.00  0.00    +0.000 F 
ATOM     28  C   UNL     1       7.460   5.344  13.996  0.00  0.00    +0.000 A 
ENDBRANCH  20  22
ENDBRANCH   2  17
TORSDOF 3
ENDMDL
