MODEL 1
REMARK VINA RESULT:      -9.2      0.000      0.000
REMARK  Name = 
REMARK  4 active torsions:
REMARK  status: ('A' for Active; 'I' for Inactive)
REMARK    1  A    between atoms: C_2  and  C_3
REMARK    2  A    between atoms: C_3  and  C_4
REMARK    3  A    between atoms: C_4  and  C_5
REMARK    4  A    between atoms: C_5  and  C_6
REMARK                            x       y       z     vdW  Elec       q    Type
REMARK                         _______ _______ _______ _____ _____    ______ ____
ROOT
ATOM      1  C   UNL     1       2.459   3.883  20.682  0.00  0.00    +0.000 C 
ENDROOT
BRANCH   1   3
ATOM      2  O   UNL     1       1.612   2.946  18.635  0.00  0.00    +0.000 OA
ATOM      3  C   UNL     1       2.594   3.344  19.265  0.00  0.00    +0.000 C 
ATOM      4  N   UNL     1       3.856   3.376  18.700  0.00  0.00    +0.000 N 
ATOM      5  C   UNL     1       4.022   3.028  17.293  0.00  0.00    +0.000 C 
ATOM      6  C   UNL     1       4.410   4.281  16.500  0.00  0.00    +0.000 C 
ATOM      7  C   UNL     1       5.529   5.054  17.166  0.00  0.00    +0.000 A 
ATOM      8  C   UNL     1       6.231   6.029  16.440  0.00  0.00    +0.000 A 
ATOM      9  C   UNL     1       7.260   6.751  17.045  0.00  0.00    +0.000 A 
ATOM     10  C   UNL     1       7.588   6.499  18.370  0.00  0.00    +0.000 A 
ATOM     11  F   UNL     1       8.590   7.178  18.944  0.00  0.00    +0.000 F 
ATOM     12  C   UNL     1       6.890   5.555  19.115  0.00  0.00    +0.000 A 
ATOM     13  C   UNL     1       5.834   4.843  18.529  0.00  0.00    +0.000 A 
ATOM     14  C   UNL     1       5.078   3.825  19.355  0.00  0.00    +0.000 C 
ENDBRANCH   1   3
BRANCH   1  15
ATOM     15  C   UNL     1       1.636   5.172  20.728  0.00  0.00    +0.000 C 
BRANCH  15  16
ATOM     16  C   UNL     1       2.311   6.309  19.967  0.00  0.00    +0.000 C 
BRANCH  16  17
ATOM     17  C   UNL     1       1.626   7.632  20.255  0.00  0.00    +0.000 A 
ATOM     18  N   UNL     1       1.024   7.830  21.375  0.00  0.00    +0.000 NA
ATOM     19  C   UNL     1       0.418   9.084  21.587  0.00  0.00    +0.000 A 
ATOM     20  C   UNL     1      -0.221   9.328  22.803  0.00  0.00    +0.000 A 
ATOM     21  C   UNL     1      -0.835  10.561  23.050  0.00  0.00    +0.000 A 
ATOM     22  C   UNL     1      -0.812  11.565  22.080  0.00  0.00    +0.000 A 
ATOM     23  C   UNL     1      -0.174  11.338  20.862  0.00  0.00    +0.000 A 
ATOM     24  C   UNL     1       0.436  10.099  20.627  0.00  0.00    +0.000 A 
ATOM     25  C   UNL     1       1.126   9.818  19.359  0.00  0.00    +0.000 A 
ATOM     26  O   UNL     1       1.183  10.633  18.448  0.00  0.00    +0.000 OA
ATOM     27  N   UNL     1       1.706   8.577  19.263  0.00  0.00    +0.000 N 
ATOM     28  H   UNL     1       2.168   8.384  18.389  0.00  0.00    +0.000 HD
ENDBRANCH  16  17
ENDBRANCH  15  16
ENDBRANCH   1  15
TORSDOF 4
ENDMDL
MODEL 2
REMARK VINA RESULT:      -9.1      1.166      1.845
REMARK  Name = 
REMARK  4 active torsions:
REMARK  status: ('A' for Active; 'I' for Inactive)
REMARK    1  A    between atoms: C_2  and  C_3
REMARK    2  A    between atoms: C_3  and  C_4
REMARK    3  A    between atoms: C_4  and  C_5
REMARK    4  A    between atoms: C_5  and  C_6
REMARK                            x       y       z     vdW  Elec       q    Type
REMARK                         _______ _______ _______ _____ _____    ______ ____
ROOT
ATOM      1  C   UNL     1       2.191   4.148  20.753  0.00  0.00    +0.000 C 
ENDROOT
BRANCH   1   3
ATOM      2  O   UNL     1       1.417   2.917  18.837  0.00  0.00    +0.000 OA
ATOM      3  C   UNL     1       2.378   3.399  19.440  0.00  0.00    +0.000 C 
ATOM      4  N   UNL     1       3.663   3.336  18.933  0.00  0.00    +0.000 N 
ATOM      5  C   UNL     1       3.882   2.777  17.603  0.00  0.00    +0.000 C 
ATOM      6  C   UNL     1       4.319   3.892  16.647  0.00  0.00    +0.000 C 
ATOM      7  C   UNL     1       5.421   4.749  17.236  0.00  0.00    +0.000 A 
ATOM      8  C   UNL     1       6.165   5.598  16.401  0.00  0.00    +0.000 A 
ATOM      9  C   UNL     1       7.178   6.396  16.934  0.00  0.00    +0.000 A 
ATOM     10  C   UNL     1       7.447   6.346  18.295  0.00  0.00    +0.000 A 
ATOM     11  F   UNL     1       8.433   7.097  18.802  0.00  0.00    +0.000 F 
ATOM     12  C   UNL     1       6.706   5.531  19.143  0.00  0.00    +0.000 A 
ATOM     13  C   UNL     1       5.666   4.746  18.627  0.00  0.00    +0.000 A 
ATOM     14  C   UNL     1       4.862   3.871  19.564  0.00  0.00    +0.000 C 
ENDBRANCH   1   3
BRANCH   1  15
ATOM     15  C   UNL     1       1.431   5.461  20.558  0.00  0.00    +0.000 C 
BRANCH  15  16
ATOM     16  C   UNL     1       2.363   6.614  20.196  0.00  0.00    +0.000 C 
BRANCH  16  17
ATOM     17  C   UNL     1       1.688   7.951  20.440  0.00  0.00    +0.000 A 
ATOM     18  N   UNL     1       1.308   8.685  19.453  0.00  0.00    +0.000 NA
ATOM     19  C   UNL     1       0.675   9.909  19.746  0.00  0.00    +0.000 A 
ATOM     20  C   UNL     1       0.235  10.711  18.693  0.00  0.00    +0.000 A 
ATOM     21  C   UNL     1      -0.396  11.934  18.943  0.00  0.00    +0.000 A 
ATOM     22  C   UNL     1      -0.595  12.366  20.256  0.00  0.00    +0.000 A 
ATOM     23  C   UNL     1      -0.165  11.574  21.320  0.00  0.00    +0.000 A 
ATOM     24  C   UNL     1       0.466  10.353  21.054  0.00  0.00    +0.000 A 
ATOM     25  C   UNL     1       0.931   9.483  22.146  0.00  0.00    +0.000 A 
ATOM     26  O   UNL     1       0.811   9.788  23.324  0.00  0.00    +0.000 OA
ATOM     27  N   UNL     1       1.509   8.301  21.755  0.00  0.00    +0.000 N 
ATOM     28  H   UNL     1       1.835   7.712  22.505  0.00  0.00    +0.000 HD
ENDBRANCH  16  17
ENDBRANCH  15  16
ENDBRANCH   1  15
TORSDOF 4
ENDMDL
MODEL 3
REMARK VINA RESULT:      -8.7      5.377      7.821
REMARK  Name = 
REMARK  4 active torsions:
REMARK  status: ('A' for Active; 'I' for Inactive)
REMARK    1  A    between atoms: C_2  and  C_3
REMARK    2  A    between atoms: C_3  and  C_4
REMARK    3  A    between atoms: C_4  and  C_5
REMARK    4  A    between atoms: C_5  and  C_6
REMARK                            x       y       z     vdW  Elec       q    Type
REMARK                         _______ _______ _______ _____ _____    ______ ____
ROOT
ATOM      1  C   UNL     1       7.335   7.104  17.995  0.00  0.00    +0.000 C 
ENDROOT
BRANCH   1   3
ATOM      2  O   UNL     1       7.750   6.015  15.890  0.00  0.00    +0.000 OA
ATOM      3  C   UNL     1       6.916   6.389  16.717  0.00  0.00    +0.000 C 
ATOM      4  N   UNL     1       5.567   6.131  16.557  0.00  0.00    +0.000 N 
ATOM      5  C   UNL     1       5.122   5.308  15.437  0.00  0.00    +0.000 C 
ATOM      6  C   UNL     1       4.590   3.972  15.967  0.00  0.00    +0.000 C 
ATOM      7  C   UNL     1       3.631   4.157  17.124  0.00  0.00    +0.000 A 
ATOM      8  C   UNL     1       2.803   3.094  17.520  0.00  0.00    +0.000 A 
ATOM      9  C   UNL     1       1.920   3.251  18.589  0.00  0.00    +0.000 A 
ATOM     10  C   UNL     1       1.862   4.466  19.257  0.00  0.00    +0.000 A 
ATOM     11  F   UNL     1       0.998   4.623  20.270  0.00  0.00    +0.000 F 
ATOM     12  C   UNL     1       2.689   5.524  18.897  0.00  0.00    +0.000 A 
ATOM     13  C   UNL     1       3.602   5.371  17.845  0.00  0.00    +0.000 A 
ATOM     14  C   UNL     1       4.503   6.528  17.470  0.00  0.00    +0.000 C 
ENDBRANCH   1   3
BRANCH   1  15
ATOM     15  C   UNL     1       7.901   8.496  17.712  0.00  0.00    +0.000 C 
BRANCH  15  16
ATOM     16  C   UNL     1       8.872   8.950  18.798  0.00  0.00    +0.000 C 
BRANCH  16  17
ATOM     17  C   UNL     1       9.183  10.429  18.660  0.00  0.00    +0.000 A 
ATOM     18  N   UNL     1      10.205  10.943  19.249  0.00  0.00    +0.000 NA
ATOM     19  C   UNL     1      10.447  12.320  19.071  0.00  0.00    +0.000 A 
ATOM     20  C   UNL     1      11.562  12.894  19.682  0.00  0.00    +0.000 A 
ATOM     21  C   UNL     1      11.835  14.258  19.530  0.00  0.00    +0.000 A 
ATOM     22  C   UNL     1      10.992  15.061  18.760  0.00  0.00    +0.000 A 
ATOM     23  C   UNL     1       9.876  14.501  18.138  0.00  0.00    +0.000 A 
ATOM     24  C   UNL     1       9.615  13.136  18.300  0.00  0.00    +0.000 A 
ATOM     25  C   UNL     1       8.452  12.502  17.659  0.00  0.00    +0.000 A 
ATOM     26  O   UNL     1       7.654  13.131  16.979  0.00  0.00    +0.000 OA
ATOM     27  N   UNL     1       8.322  11.151  17.873  0.00  0.00    +0.000 N 
ATOM     28  H   UNL     1       7.519  10.723  17.440  0.00  0.00    +0.000 HD
ENDBRANCH  16  17
ENDBRANCH  15  16
ENDBRANCH   1  15
TORSDOF 4
ENDMDL
MODEL 4
REMARK VINA RESULT:      -8.6      5.372      8.177
REMARK  Name = 
REMARK  4 active torsions:
REMARK  status: ('A' for Active; 'I' for Inactive)
REMARK    1  A    between atoms: C_2  and  C_3
REMARK    2  A    between atoms: C_3  and  C_4
REMARK    3  A    between atoms: C_4  and  C_5
REMARK    4  A    between atoms: C_5  and  C_6
REMARK                            x       y       z     vdW  Elec       q    Type
REMARK                         _______ _______ _______ _____ _____    ______ ____
ROOT
ATOM      1  C   UNL     1       7.341   6.824  18.510  0.00  0.00    +0.000 C 
ENDROOT
BRANCH   1   3
ATOM      2  O   UNL     1       7.759   6.098  16.254  0.00  0.00    +0.000 OA
ATOM      3  C   UNL     1       6.922   6.354  17.123  0.00  0.00    +0.000 C 
ATOM      4  N   UNL     1       5.569   6.173  16.905  0.00  0.00    +0.000 N 
ATOM      5  C   UNL     1       5.117   5.570  15.656  0.00  0.00    +0.000 C 
ATOM      6  C   UNL     1       4.534   4.182  15.942  0.00  0.00    +0.000 C 
ATOM      7  C   UNL     1       3.560   4.200  17.103  0.00  0.00    +0.000 A 
ATOM      8  C   UNL     1       2.693   3.114  17.301  0.00  0.00    +0.000 A 
ATOM      9  C   UNL     1       1.796   3.117  18.370  0.00  0.00    +0.000 A 
ATOM     10  C   UNL     1       1.765   4.201  19.237  0.00  0.00    +0.000 A 
ATOM     11  F   UNL     1       0.890   4.212  20.251  0.00  0.00    +0.000 F 
ATOM     12  C   UNL     1       2.632   5.276  19.073  0.00  0.00    +0.000 A 
ATOM     13  C   UNL     1       3.559   5.273  18.021  0.00  0.00    +0.000 A 
ATOM     14  C   UNL     1       4.502   6.445  17.861  0.00  0.00    +0.000 C 
ENDBRANCH   1   3
BRANCH   1  15
ATOM     15  C   UNL     1       8.506   7.813  18.449  0.00  0.00    +0.000 C 
BRANCH  15  16
ATOM     16  C   UNL     1       8.065   9.188  17.953  0.00  0.00    +0.000 C 
BRANCH  16  17
ATOM     17  C   UNL     1       9.017  10.266  18.435  0.00  0.00    +0.000 A 
ATOM     18  N   UNL     1       9.752  10.915  17.601  0.00  0.00    +0.000 NA
ATOM     19  C   UNL     1      10.606  11.913  18.109  0.00  0.00    +0.000 A 
ATOM     20  C   UNL     1      11.395  12.643  17.221  0.00  0.00    +0.000 A 
ATOM     21  C   UNL     1      12.256  13.642  17.688  0.00  0.00    +0.000 A 
ATOM     22  C   UNL     1      12.333  13.922  19.054  0.00  0.00    +0.000 A 
ATOM     23  C   UNL     1      11.547  13.204  19.954  0.00  0.00    +0.000 A 
ATOM     24  C   UNL     1      10.690  12.207  19.473  0.00  0.00    +0.000 A 
ATOM     25  C   UNL     1       9.839  11.428  20.386  0.00  0.00    +0.000 A 
ATOM     26  O   UNL     1       9.852  11.596  21.597  0.00  0.00    +0.000 OA
ATOM     27  N   UNL     1       9.024  10.498  19.788  0.00  0.00    +0.000 N 
ATOM     28  H   UNL     1       8.450   9.961  20.417  0.00  0.00    +0.000 HD
ENDBRANCH  16  17
ENDBRANCH  15  16
ENDBRANCH   1  15
TORSDOF 4
ENDMDL
MODEL 5
REMARK VINA RESULT:      -8.4      5.566      7.689
REMARK  Name = 
REMARK  4 active torsions:
REMARK  status: ('A' for Active; 'I' for Inactive)
REMARK    1  A    between atoms: C_2  and  C_3
REMARK    2  A    between atoms: C_3  and  C_4
REMARK    3  A    between atoms: C_4  and  C_5
REMARK    4  A    between atoms: C_5  and  C_6
REMARK                            x       y       z     vdW  Elec       q    Type
REMARK                         _______ _______ _______ _____ _____    ______ ____
ROOT
ATOM      1  C   UNL     1       6.800   7.856  17.815  0.00  0.00    +0.000 C 
ENDROOT
BRANCH   1   3
ATOM      2  O   UNL     1       7.692   6.428  16.097  0.00  0.00    +0.000 OA
ATOM      3  C   UNL     1       6.700   6.787  16.735  0.00  0.00    +0.000 C 
ATOM      4  N   UNL     1       5.461   6.203  16.545  0.00  0.00    +0.000 N 
ATOM      5  C   UNL     1       5.337   5.062  15.643  0.00  0.00    +0.000 C 
ATOM      6  C   UNL     1       5.018   3.803  16.455  0.00  0.00    +0.000 C 
ATOM      7  C   UNL     1       3.899   4.033  17.450  0.00  0.00    +0.000 A 
ATOM      8  C   UNL     1       3.256   2.935  18.041  0.00  0.00    +0.000 A 
ATOM      9  C   UNL     1       2.228   3.135  18.964  0.00  0.00    +0.000 A 
ATOM     10  C   UNL     1       1.844   4.428  19.292  0.00  0.00    +0.000 A 
ATOM     11  F   UNL     1       0.843   4.619  20.162  0.00  0.00    +0.000 F 
ATOM     12  C   UNL     1       2.483   5.530  18.737  0.00  0.00    +0.000 A 
ATOM     13  C   UNL     1       3.538   5.344  17.831  0.00  0.00    +0.000 A 
ATOM     14  C   UNL     1       4.231   6.553  17.242  0.00  0.00    +0.000 C 
ENDBRANCH   1   3
BRANCH   1  15
ATOM     15  C   UNL     1       8.015   8.763  17.611  0.00  0.00    +0.000 C 
BRANCH  15  16
ATOM     16  C   UNL     1       8.844   8.904  18.885  0.00  0.00    +0.000 C 
BRANCH  16  17
ATOM     17  C   UNL     1       9.286  10.341  19.085  0.00  0.00    +0.000 A 
ATOM     18  N   UNL     1       9.193  10.902  20.240  0.00  0.00    +0.000 NA
ATOM     19  C   UNL     1       9.632  12.235  20.364  0.00  0.00    +0.000 A 
ATOM     20  C   UNL     1       9.562  12.856  21.611  0.00  0.00    +0.000 A 
ATOM     21  C   UNL     1       9.987  14.179  21.774  0.00  0.00    +0.000 A 
ATOM     22  C   UNL     1      10.491  14.894  20.685  0.00  0.00    +0.000 A 
ATOM     23  C   UNL     1      10.573  14.286  19.433  0.00  0.00    +0.000 A 
ATOM     24  C   UNL     1      10.143  12.962  19.285  0.00  0.00    +0.000 A 
ATOM     25  C   UNL     1      10.215  12.279  17.984  0.00  0.00    +0.000 A 
ATOM     26  O   UNL     1      10.629  12.832  16.975  0.00  0.00    +0.000 OA
ATOM     27  N   UNL     1       9.788  10.974  17.975  0.00  0.00    +0.000 N 
ATOM     28  H   UNL     1       9.830  10.513  17.081  0.00  0.00    +0.000 HD
ENDBRANCH  16  17
ENDBRANCH  15  16
ENDBRANCH   1  15
TORSDOF 4
ENDMDL
MODEL 6
REMARK VINA RESULT:      -8.2      2.853      7.949
REMARK  Name = 
REMARK  4 active torsions:
REMARK  status: ('A' for Active; 'I' for Inactive)
REMARK    1  A    between atoms: C_2  and  C_3
REMARK    2  A    between atoms: C_3  and  C_4
REMARK    3  A    between atoms: C_4  and  C_5
REMARK    4  A    between atoms: C_5  and  C_6
REMARK                            x       y       z     vdW  Elec       q    Type
REMARK                         _______ _______ _______ _____ _____    ______ ____
ROOT
ATOM      1  C   UNL     1       1.961   5.399  20.109  0.00  0.00    +0.000 C 
ENDROOT
BRANCH   1   3
ATOM      2  O   UNL     1       2.304   6.114  17.837  0.00  0.00    +0.000 OA
ATOM      3  C   UNL     1       2.159   6.442  19.017  0.00  0.00    +0.000 C 
ATOM      4  N   UNL     1       2.112   7.769  19.402  0.00  0.00    +0.000 N 
ATOM      5  C   UNL     1       2.130   8.813  18.383  0.00  0.00    +0.000 C 
ATOM      6  C   UNL     1       0.767   9.512  18.344  0.00  0.00    +0.000 C 
ATOM      7  C   UNL     1       0.281   9.893  19.727  0.00  0.00    +0.000 A 
ATOM      8  C   UNL     1      -0.769  10.814  19.868  0.00  0.00    +0.000 A 
ATOM      9  C   UNL     1      -1.229  11.168  21.137  0.00  0.00    +0.000 A 
ATOM     10  C   UNL     1      -0.641  10.605  22.261  0.00  0.00    +0.000 A 
ATOM     11  F   UNL     1      -1.069  10.961  23.480  0.00  0.00    +0.000 F 
ATOM     12  C   UNL     1       0.384   9.672  22.145  0.00  0.00    +0.000 A 
ATOM     13  C   UNL     1       0.836   9.285  20.875  0.00  0.00    +0.000 A 
ATOM     14  C   UNL     1       1.945   8.262  20.764  0.00  0.00    +0.000 C 
ENDBRANCH   1   3
BRANCH   1  15
ATOM     15  C   UNL     1       2.007   3.975  19.553  0.00  0.00    +0.000 C 
BRANCH  15  16
ATOM     16  C   UNL     1       3.342   3.292  19.837  0.00  0.00    +0.000 C 
BRANCH  16  17
ATOM     17  C   UNL     1       4.389   3.714  18.824  0.00  0.00    +0.000 A 
ATOM     18  N   UNL     1       4.180   3.565  17.562  0.00  0.00    +0.000 NA
ATOM     19  C   UNL     1       5.187   3.989  16.671  0.00  0.00    +0.000 A 
ATOM     20  C   UNL     1       4.973   3.857  15.299  0.00  0.00    +0.000 A 
ATOM     21  C   UNL     1       5.949   4.265  14.383  0.00  0.00    +0.000 A 
ATOM     22  C   UNL     1       7.151   4.813  14.835  0.00  0.00    +0.000 A 
ATOM     23  C   UNL     1       7.378   4.956  16.204  0.00  0.00    +0.000 A 
ATOM     24  C   UNL     1       6.393   4.542  17.109  0.00  0.00    +0.000 A 
ATOM     25  C   UNL     1       6.587   4.679  18.560  0.00  0.00    +0.000 A 
ATOM     26  O   UNL     1       7.614   5.134  19.045  0.00  0.00    +0.000 OA
ATOM     27  N   UNL     1       5.537   4.262  19.340  0.00  0.00    +0.000 N 
ATOM     28  H   UNL     1       5.678   4.347  20.334  0.00  0.00    +0.000 HD
ENDBRANCH  16  17
ENDBRANCH  15  16
ENDBRANCH   1  15
TORSDOF 4
ENDMDL
MODEL 7
REMARK VINA RESULT:      -8.0      2.756      4.216
REMARK  Name = 
REMARK  4 active torsions:
REMARK  status: ('A' for Active; 'I' for Inactive)
REMARK    1  A    between atoms: C_2  and  C_3
REMARK    2  A    between atoms: C_3  and  C_4
REMARK    3  A    between atoms: C_4  and  C_5
REMARK    4  A    between atoms: C_5  and  C_6
REMARK                            x       y       z     vdW  Elec       q    Type
REMARK                         _______ _______ _______ _____ _____    ______ ____
ROOT
ATOM      1  C   UNL     1       4.303   7.641  16.961  0.00  0.00    +0.000 C 
ENDROOT
BRANCH   1   3
ATOM      2  O   UNL     1       6.486   7.055  17.785  0.00  0.00    +0.000 OA
ATOM      3  C   UNL     1       5.374   6.663  17.423  0.00  0.00    +0.000 C 
ATOM      4  N   UNL     1       5.023   5.326  17.471  0.00  0.00    +0.000 N 
ATOM      5  C   UNL     1       5.948   4.362  18.058  0.00  0.00    +0.000 C 
ATOM      6  C   UNL     1       5.364   3.831  19.371  0.00  0.00    +0.000 C 
ATOM      7  C   UNL     1       3.916   3.411  19.224  0.00  0.00    +0.000 A 
ATOM      8  C   UNL     1       3.318   2.611  20.210  0.00  0.00    +0.000 A 
ATOM      9  C   UNL     1       1.983   2.224  20.088  0.00  0.00    +0.000 A 
ATOM     10  C   UNL     1       1.249   2.633  18.984  0.00  0.00    +0.000 A 
ATOM     11  F   UNL     1      -0.027   2.244  18.857  0.00  0.00    +0.000 F 
ATOM     12  C   UNL     1       1.813   3.446  18.008  0.00  0.00    +0.000 A 
ATOM     13  C   UNL     1       3.145   3.868  18.132  0.00  0.00    +0.000 A 
ATOM     14  C   UNL     1       3.742   4.760  17.067  0.00  0.00    +0.000 C 
ENDBRANCH   1   3
BRANCH   1  15
ATOM     15  C   UNL     1       3.224   7.852  18.025  0.00  0.00    +0.000 C 
BRANCH  15  16
ATOM     16  C   UNL     1       2.054   8.677  17.498  0.00  0.00    +0.000 C 
BRANCH  16  17
ATOM     17  C   UNL     1       1.319   9.360  18.636  0.00  0.00    +0.000 A 
ATOM     18  N   UNL     1       1.283   8.827  19.807  0.00  0.00    +0.000 NA
ATOM     19  C   UNL     1       0.595   9.516  20.826  0.00  0.00    +0.000 A 
ATOM     20  C   UNL     1       0.562   8.968  22.108  0.00  0.00    +0.000 A 
ATOM     21  C   UNL     1      -0.112   9.622  23.145  0.00  0.00    +0.000 A 
ATOM     22  C   UNL     1      -0.759  10.837  22.907  0.00  0.00    +0.000 A 
ATOM     23  C   UNL     1      -0.730  11.400  21.632  0.00  0.00    +0.000 A 
ATOM     24  C   UNL     1      -0.053  10.734  20.603  0.00  0.00    +0.000 A 
ATOM     25  C   UNL     1       0.006  11.293  19.244  0.00  0.00    +0.000 A 
ATOM     26  O   UNL     1      -0.543  12.343  18.942  0.00  0.00    +0.000 OA
ATOM     27  N   UNL     1       0.724  10.558  18.332  0.00  0.00    +0.000 N 
ATOM     28  H   UNL     1       0.754  10.939  17.400  0.00  0.00    +0.000 HD
ENDBRANCH  16  17
ENDBRANCH  15  16
ENDBRANCH   1  15
TORSDOF 4
ENDMDL
MODEL 8
REMARK VINA RESULT:      -8.0      0.990      1.404
REMARK  Name = 
REMARK  4 active torsions:
REMARK  status: ('A' for Active; 'I' for Inactive)
REMARK    1  A    between atoms: C_2  and  C_3
REMARK    2  A    between atoms: C_3  and  C_4
REMARK    3  A    between atoms: C_4  and  C_5
REMARK    4  A    between atoms: C_5  and  C_6
REMARK                            x       y       z     vdW  Elec       q    Type
REMARK                         _______ _______ _______ _____ _____    ______ ____
ROOT
ATOM      1  C   UNL     1       1.844   4.734  20.390  0.00  0.00    +0.000 C 
ENDROOT
BRANCH   1   3
ATOM      2  O   UNL     1       1.172   3.330  18.555  0.00  0.00    +0.000 OA
ATOM      3  C   UNL     1       2.103   3.817  19.201  0.00  0.00    +0.000 C 
ATOM      4  N   UNL     1       3.423   3.606  18.848  0.00  0.00    +0.000 N 
ATOM      5  C   UNL     1       3.730   2.873  17.624  0.00  0.00    +0.000 C 
ATOM      6  C   UNL     1       4.350   3.830  16.600  0.00  0.00    +0.000 C 
ATOM      7  C   UNL     1       5.451   4.677  17.204  0.00  0.00    +0.000 A 
ATOM      8  C   UNL     1       6.342   5.364  16.364  0.00  0.00    +0.000 A 
ATOM      9  C   UNL     1       7.356   6.152  16.908  0.00  0.00    +0.000 A 
ATOM     10  C   UNL     1       7.481   6.252  18.287  0.00  0.00    +0.000 A 
ATOM     11  F   UNL     1       8.468   6.992  18.810  0.00  0.00    +0.000 F 
ATOM     12  C   UNL     1       6.596   5.600  19.137  0.00  0.00    +0.000 A 
ATOM     13  C   UNL     1       5.553   4.828  18.604  0.00  0.00    +0.000 A 
ATOM     14  C   UNL     1       4.591   4.132  19.542  0.00  0.00    +0.000 C 
ENDBRANCH   1   3
BRANCH   1  15
ATOM     15  C   UNL     1       2.020   6.208  20.024  0.00  0.00    +0.000 C 
BRANCH  15  16
ATOM     16  C   UNL     1       1.452   7.136  21.094  0.00  0.00    +0.000 C 
BRANCH  16  17
ATOM     17  C   UNL     1       1.100   8.488  20.504  0.00  0.00    +0.000 A 
ATOM     18  N   UNL     1       0.318   9.295  21.133  0.00  0.00    +0.000 NA
ATOM     19  C   UNL     1       0.039  10.542  20.538  0.00  0.00    +0.000 A 
ATOM     20  C   UNL     1      -0.788  11.441  21.212  0.00  0.00    +0.000 A 
ATOM     21  C   UNL     1      -1.088  12.688  20.654  0.00  0.00    +0.000 A 
ATOM     22  C   UNL     1      -0.560  13.048  19.412  0.00  0.00    +0.000 A 
ATOM     23  C   UNL     1       0.272  12.162  18.729  0.00  0.00    +0.000 A 
ATOM     24  C   UNL     1       0.564  10.918  19.299  0.00  0.00    +0.000 A 
ATOM     25  C   UNL     1       1.441   9.954  18.616  0.00  0.00    +0.000 A 
ATOM     26  O   UNL     1       1.936  10.180  17.520  0.00  0.00    +0.000 OA
ATOM     27  N   UNL     1       1.671   8.781  19.291  0.00  0.00    +0.000 N 
ATOM     28  H   UNL     1       2.264   8.119  18.816  0.00  0.00    +0.000 HD
ENDBRANCH  16  17
ENDBRANCH  15  16
ENDBRANCH   1  15
TORSDOF 4
ENDMDL
MODEL 9
REMARK VINA RESULT:      -8.0      6.017      9.238
REMARK  Name = 
REMARK  4 active torsions:
REMARK  status: ('A' for Active; 'I' for Inactive)
REMARK    1  A    between atoms: C_2  and  C_3
REMARK    2  A    between atoms: C_3  and  C_4
REMARK    3  A    between atoms: C_4  and  C_5
REMARK    4  A    between atoms: C_5  and  C_6
REMARK                            x       y       z     vdW  Elec       q    Type
REMARK                         _______ _______ _______ _____ _____    ______ ____
ROOT
ATOM      1  C   UNL     1       8.291  10.297  18.506  0.00  0.00    +0.000 C 
ENDROOT
BRANCH   1   3
ATOM      2  O   UNL     1      10.363  11.081  17.570  0.00  0.00    +0.000 OA
ATOM      3  C   UNL     1       9.674  10.929  18.581  0.00  0.00    +0.000 C 
ATOM      4  N   UNL     1      10.093  11.375  19.821  0.00  0.00    +0.000 N 
ATOM      5  C   UNL     1      11.334  12.135  19.928  0.00  0.00    +0.000 C 
ATOM      6  C   UNL     1      11.012  13.586  20.303  0.00  0.00    +0.000 C 
ATOM      7  C   UNL     1      10.036  13.674  21.458  0.00  0.00    +0.000 A 
ATOM      8  C   UNL     1       9.877  14.887  22.145  0.00  0.00    +0.000 A 
ATOM      9  C   UNL     1       8.976  14.982  23.206  0.00  0.00    +0.000 A 
ATOM     10  C   UNL     1       8.238  13.867  23.581  0.00  0.00    +0.000 A 
ATOM     11  F   UNL     1       7.388  13.953  24.613  0.00  0.00    +0.000 F 
ATOM     12  C   UNL     1       8.361  12.662  22.899  0.00  0.00    +0.000 A 
ATOM     13  C   UNL     1       9.241  12.561  21.811  0.00  0.00    +0.000 A 
ATOM     14  C   UNL     1       9.358  11.246  21.073  0.00  0.00    +0.000 C 
ENDBRANCH   1   3
BRANCH   1  15
ATOM     15  C   UNL     1       8.275   9.061  17.605  0.00  0.00    +0.000 C 
BRANCH  15  16
ATOM     16  C   UNL     1       8.373   7.766  18.407  0.00  0.00    +0.000 C 
BRANCH  16  17
ATOM     17  C   UNL     1       7.374   6.742  17.901  0.00  0.00    +0.000 A 
ATOM     18  N   UNL     1       6.532   6.194  18.706  0.00  0.00    +0.000 NA
ATOM     19  C   UNL     1       5.622   5.259  18.173  0.00  0.00    +0.000 A 
ATOM     20  C   UNL     1       4.685   4.669  19.022  0.00  0.00    +0.000 A 
ATOM     21  C   UNL     1       3.766   3.736  18.530  0.00  0.00    +0.000 A 
ATOM     22  C   UNL     1       3.774   3.387  17.178  0.00  0.00    +0.000 A 
ATOM     23  C   UNL     1       4.701   3.972  16.316  0.00  0.00    +0.000 A 
ATOM     24  C   UNL     1       5.615   4.903  16.822  0.00  0.00    +0.000 A 
ATOM     25  C   UNL     1       6.607   5.549  15.947  0.00  0.00    +0.000 A 
ATOM     26  O   UNL     1       6.695   5.293  14.755  0.00  0.00    +0.000 OA
ATOM     27  N   UNL     1       7.429   6.463  16.559  0.00  0.00    +0.000 N 
ATOM     28  H   UNL     1       8.113   6.896  15.959  0.00  0.00    +0.000 HD
ENDBRANCH  16  17
ENDBRANCH  15  16
ENDBRANCH   1  15
TORSDOF 4
ENDMDL
