MODEL 1
REMARK VINA RESULT:      -7.9      0.000      0.000
REMARK  Name = 
REMARK  4 active torsions:
REMARK  status: ('A' for Active; 'I' for Inactive)
REMARK    1  A    between atoms: C_2  and  C_3
REMARK    2  A    between atoms: N_6  and  C_7
REMARK    3  A    between atoms: C_7  and  C_8
REMARK    4  A    between atoms: C_19  and  C_20
REMARK                            x       y       z     vdW  Elec       q    Type
REMARK                         _______ _______ _______ _____ _____    ______ ____
ROOT
ATOM      1  O   UNL     1       0.903   3.671  17.806  0.00  0.00    +0.000 OA
ATOM      2  C   UNL     1       1.960   4.072  18.296  0.00  0.00    +0.000 C 
ATOM      3  N   UNL     1       3.059   3.216  18.381  0.00  0.00    +0.000 N 
ATOM      4  C   UNL     1       2.911   1.820  17.991  0.00  0.00    +0.000 C 
ATOM      5  C   UNL     1       3.491   1.047  19.160  0.00  0.00    +0.000 C 
ATOM      6  C   UNL     1       4.642   1.929  19.620  0.00  0.00    +0.000 C 
ATOM      7  C   UNL     1       4.188   3.355  19.282  0.00  0.00    +0.000 C 
ENDROOT
BRANCH   7   8
ATOM      8  C   UNL     1       5.325   4.207  18.814  0.00  0.00    +0.000 A 
ATOM      9  N   UNL     1       6.000   4.961  19.668  0.00  0.00    +0.000 NA
ATOM     10  N   UNL     1       6.764   5.852  18.970  0.00  0.00    +0.000 NA
ATOM     11  C   UNL     1       6.594   5.598  17.699  0.00  0.00    +0.000 A 
ATOM     12  C   UNL     1       7.036   6.275  16.520  0.00  0.00    +0.000 A 
ATOM     13  C   UNL     1       7.248   5.493  15.438  0.00  0.00    +0.000 A 
ATOM     14  C   UNL     1       6.350   4.340  15.237  0.00  0.00    +0.000 A 
ATOM     15  C   UNL     1       5.645   3.866  16.276  0.00  0.00    +0.000 A 
ATOM     16  N   UNL     1       5.801   4.464  17.537  0.00  0.00    +0.000 N 
ENDBRANCH   7   8
BRANCH   2  17
ATOM     17  C   UNL     1       2.080   5.476  18.686  0.00  0.00    +0.000 A 
ATOM     18  C   UNL     1       2.176   6.164  19.919  0.00  0.00    +0.000 A 
ATOM     19  N   UNL     1       2.378   7.475  19.781  0.00  0.00    +0.000 NA
ATOM     20  N   UNL     1       2.302   7.668  18.455  0.00  0.00    +0.000 N 
ATOM     21  C   UNL     1       2.106   6.511  17.762  0.00  0.00    +0.000 A 
BRANCH  20  22
ATOM     22  C   UNL     1       2.423   9.016  17.912  0.00  0.00    +0.000 C 
BRANCH  22  23
ATOM     23  C   UNL     1       1.204   9.844  18.241  0.00  0.00    +0.000 A 
ATOM     24  C   UNL     1       1.311  10.950  19.100  0.00  0.00    +0.000 A 
ATOM     25  C   UNL     1       0.173  11.650  19.482  0.00  0.00    +0.000 A 
ATOM     26  C   UNL     1      -1.077  11.267  19.003  0.00  0.00    +0.000 A 
ATOM     27  C   UNL     1      -1.187  10.193  18.121  0.00  0.00    +0.000 A 
ATOM     28  C   UNL     1      -0.053   9.484  17.739  0.00  0.00    +0.000 A 
ENDBRANCH  22  23
ENDBRANCH  20  22
ENDBRANCH   2  17
TORSDOF 4
ENDMDL
MODEL 2
REMARK VINA RESULT:      -7.7      0.786      1.060
REMARK  Name = 
REMARK  4 active torsions:
REMARK  status: ('A' for Active; 'I' for Inactive)
REMARK    1  A    between atoms: C_2  and  C_3
REMARK    2  A    between atoms: N_6  and  C_7
REMARK    3  A    between atoms: C_7  and  C_8
REMARK    4  A    between atoms: C_19  and  C_20
REMARK                            x       y       z     vdW  Elec       q    Type
REMARK                         _______ _______ _______ _____ _____    ______ ____
ROOT
ATOM      1  O   UNL     1       0.963   4.092  17.451  0.00  0.00    +0.000 OA
ATOM      2  C   UNL     1       2.019   4.422  17.993  0.00  0.00    +0.000 C 
ATOM      3  N   UNL     1       3.015   3.471  18.221  0.00  0.00    +0.000 N 
ATOM      4  C   UNL     1       2.749   2.071  17.915  0.00  0.00    +0.000 C 
ATOM      5  C   UNL     1       3.163   1.334  19.175  0.00  0.00    +0.000 C 
ATOM      6  C   UNL     1       4.365   2.130  19.662  0.00  0.00    +0.000 C 
ATOM      7  C   UNL     1       4.086   3.565  19.194  0.00  0.00    +0.000 C 
ENDROOT
BRANCH   7   8
ATOM      8  C   UNL     1       5.336   4.262  18.759  0.00  0.00    +0.000 A 
ATOM      9  N   UNL     1       6.093   4.902  19.636  0.00  0.00    +0.000 NA
ATOM     10  N   UNL     1       6.981   5.693  18.966  0.00  0.00    +0.000 NA
ATOM     11  C   UNL     1       6.800   5.487  17.688  0.00  0.00    +0.000 A 
ATOM     12  C   UNL     1       7.348   6.118  16.529  0.00  0.00    +0.000 A 
ATOM     13  C   UNL     1       7.469   5.334  15.434  0.00  0.00    +0.000 A 
ATOM     14  C   UNL     1       6.427   4.318  15.199  0.00  0.00    +0.000 A 
ATOM     15  C   UNL     1       5.648   3.926  16.218  0.00  0.00    +0.000 A 
ATOM     16  N   UNL     1       5.862   4.475  17.493  0.00  0.00    +0.000 N 
ENDBRANCH   7   8
BRANCH   2  17
ATOM     17  C   UNL     1       2.258   5.833  18.296  0.00  0.00    +0.000 A 
ATOM     18  C   UNL     1       2.973   6.881  17.669  0.00  0.00    +0.000 A 
ATOM     19  N   UNL     1       2.822   8.062  18.271  0.00  0.00    +0.000 NA
ATOM     20  N   UNL     1       2.097   7.768  19.362  0.00  0.00    +0.000 N 
ATOM     21  C   UNL     1       1.753   6.451  19.431  0.00  0.00    +0.000 A 
BRANCH  20  22
ATOM     22  C   UNL     1       1.769   8.820  20.317  0.00  0.00    +0.000 C 
BRANCH  22  23
ATOM     23  C   UNL     1       0.648   9.689  19.801  0.00  0.00    +0.000 A 
ATOM     24  C   UNL     1      -0.038  10.552  20.672  0.00  0.00    +0.000 A 
ATOM     25  C   UNL     1      -1.134  11.276  20.219  0.00  0.00    +0.000 A 
ATOM     26  C   UNL     1      -1.549  11.160  18.895  0.00  0.00    +0.000 A 
ATOM     27  C   UNL     1      -0.851  10.335  18.015  0.00  0.00    +0.000 A 
ATOM     28  C   UNL     1       0.243   9.602  18.463  0.00  0.00    +0.000 A 
ENDBRANCH  22  23
ENDBRANCH  20  22
ENDBRANCH   2  17
TORSDOF 4
ENDMDL
MODEL 3
REMARK VINA RESULT:      -7.6      1.002      1.469
REMARK  Name = 
REMARK  4 active torsions:
REMARK  status: ('A' for Active; 'I' for Inactive)
REMARK    1  A    between atoms: C_2  and  C_3
REMARK    2  A    between atoms: N_6  and  C_7
REMARK    3  A    between atoms: C_7  and  C_8
REMARK    4  A    between atoms: C_19  and  C_20
REMARK                            x       y       z     vdW  Elec       q    Type
REMARK                         _______ _______ _______ _____ _____    ______ ____
ROOT
ATOM      1  O   UNL     1       0.979   4.031  17.460  0.00  0.00    +0.000 OA
ATOM      2  C   UNL     1       2.009   4.329  18.068  0.00  0.00    +0.000 C 
ATOM      3  N   UNL     1       3.027   3.386  18.223  0.00  0.00    +0.000 N 
ATOM      4  C   UNL     1       2.814   2.021  17.760  0.00  0.00    +0.000 C 
ATOM      5  C   UNL     1       3.213   1.163  18.945  0.00  0.00    +0.000 C 
ATOM      6  C   UNL     1       4.376   1.933  19.553  0.00  0.00    +0.000 C 
ATOM      7  C   UNL     1       4.066   3.403  19.235  0.00  0.00    +0.000 C 
ENDROOT
BRANCH   7   8
ATOM      8  C   UNL     1       5.305   4.178  18.918  0.00  0.00    +0.000 A 
ATOM      9  N   UNL     1       6.106   4.599  19.886  0.00  0.00    +0.000 NA
ATOM     10  N   UNL     1       6.975   5.520  19.377  0.00  0.00    +0.000 NA
ATOM     11  C   UNL     1       6.740   5.612  18.094  0.00  0.00    +0.000 A 
ATOM     12  C   UNL     1       7.248   6.489  17.087  0.00  0.00    +0.000 A 
ATOM     13  C   UNL     1       7.316   5.976  15.839  0.00  0.00    +0.000 A 
ATOM     14  C   UNL     1       6.252   5.043  15.422  0.00  0.00    +0.000 A 
ATOM     15  C   UNL     1       5.510   4.430  16.357  0.00  0.00    +0.000 A 
ATOM     16  N   UNL     1       5.783   4.673  17.713  0.00  0.00    +0.000 N 
ENDBRANCH   7   8
BRANCH   2  17
ATOM     17  C   UNL     1       2.195   5.704  18.530  0.00  0.00    +0.000 A 
ATOM     18  C   UNL     1       2.814   6.860  17.998  0.00  0.00    +0.000 A 
ATOM     19  N   UNL     1       2.643   7.948  18.750  0.00  0.00    +0.000 NA
ATOM     20  N   UNL     1       2.005   7.484  19.835  0.00  0.00    +0.000 N 
ATOM     21  C   UNL     1       1.733   6.150  19.760  0.00  0.00    +0.000 A 
BRANCH  20  22
ATOM     22  C   UNL     1       1.685   8.392  20.930  0.00  0.00    +0.000 C 
BRANCH  22  23
ATOM     23  C   UNL     1       0.664   9.418  20.502  0.00  0.00    +0.000 A 
ATOM     24  C   UNL     1       0.388   9.617  19.139  0.00  0.00    +0.000 A 
ATOM     25  C   UNL     1      -0.476  10.630  18.742  0.00  0.00    +0.000 A 
ATOM     26  C   UNL     1      -1.084  11.443  19.694  0.00  0.00    +0.000 A 
ATOM     27  C   UNL     1      -0.845  11.228  21.051  0.00  0.00    +0.000 A 
ATOM     28  C   UNL     1       0.024  10.220  21.455  0.00  0.00    +0.000 A 
ENDBRANCH  22  23
ENDBRANCH  20  22
ENDBRANCH   2  17
TORSDOF 4
ENDMDL
MODEL 4
REMARK VINA RESULT:      -7.5      1.406      1.727
REMARK  Name = 
REMARK  4 active torsions:
REMARK  status: ('A' for Active; 'I' for Inactive)
REMARK    1  A    between atoms: C_2  and  C_3
REMARK    2  A    between atoms: N_6  and  C_7
REMARK    3  A    between atoms: C_7  and  C_8
REMARK    4  A    between atoms: C_19  and  C_20
REMARK                            x       y       z     vdW  Elec       q    Type
REMARK                         _______ _______ _______ _____ _____    ______ ____
ROOT
ATOM      1  O   UNL     1       0.905   4.196  17.418  0.00  0.00    +0.000 OA
ATOM      2  C   UNL     1       2.003   4.512  17.880  0.00  0.00    +0.000 C 
ATOM      3  N   UNL     1       2.901   3.523  18.287  0.00  0.00    +0.000 N 
ATOM      4  C   UNL     1       2.484   2.127  18.266  0.00  0.00    +0.000 C 
ATOM      5  C   UNL     1       2.849   1.612  19.645  0.00  0.00    +0.000 C 
ATOM      6  C   UNL     1       4.140   2.354  19.960  0.00  0.00    +0.000 C 
ATOM      7  C   UNL     1       4.000   3.691  19.218  0.00  0.00    +0.000 C 
ENDROOT
BRANCH   7   8
ATOM      8  C   UNL     1       5.304   4.152  18.648  0.00  0.00    +0.000 A 
ATOM      9  N   UNL     1       6.252   4.637  19.435  0.00  0.00    +0.000 NA
ATOM     10  N   UNL     1       7.195   5.257  18.668  0.00  0.00    +0.000 NA
ATOM     11  C   UNL     1       6.848   5.097  17.418  0.00  0.00    +0.000 A 
ATOM     12  C   UNL     1       7.379   5.625  16.201  0.00  0.00    +0.000 A 
ATOM     13  C   UNL     1       7.242   4.840  15.109  0.00  0.00    +0.000 A 
ATOM     14  C   UNL     1       6.013   4.032  14.995  0.00  0.00    +0.000 A 
ATOM     15  C   UNL     1       5.285   3.782  16.094  0.00  0.00    +0.000 A 
ATOM     16  N   UNL     1       5.727   4.274  17.332  0.00  0.00    +0.000 N 
ENDBRANCH   7   8
BRANCH   2  17
ATOM     17  C   UNL     1       2.395   5.921  17.896  0.00  0.00    +0.000 A 
ATOM     18  C   UNL     1       3.567   6.635  17.553  0.00  0.00    +0.000 A 
ATOM     19  N   UNL     1       3.428   7.959  17.638  0.00  0.00    +0.000 NA
ATOM     20  N   UNL     1       2.195   8.113  18.146  0.00  0.00    +0.000 N 
ATOM     21  C   UNL     1       1.548   6.928  18.336  0.00  0.00    +0.000 A 
BRANCH  20  22
ATOM     22  C   UNL     1       1.695   9.451  18.436  0.00  0.00    +0.000 C 
BRANCH  22  23
ATOM     23  C   UNL     1       1.027   9.499  19.789  0.00  0.00    +0.000 A 
ATOM     24  C   UNL     1      -0.099  10.314  19.995  0.00  0.00    +0.000 A 
ATOM     25  C   UNL     1      -0.651  10.435  21.264  0.00  0.00    +0.000 A 
ATOM     26  C   UNL     1      -0.099   9.738  22.335  0.00  0.00    +0.000 A 
ATOM     27  C   UNL     1       0.996   8.899  22.132  0.00  0.00    +0.000 A 
ATOM     28  C   UNL     1       1.557   8.778  20.865  0.00  0.00    +0.000 A 
ENDBRANCH  22  23
ENDBRANCH  20  22
ENDBRANCH   2  17
TORSDOF 4
ENDMDL
MODEL 5
REMARK VINA RESULT:      -7.4      1.929      6.279
REMARK  Name = 
REMARK  4 active torsions:
REMARK  status: ('A' for Active; 'I' for Inactive)
REMARK    1  A    between atoms: C_2  and  C_3
REMARK    2  A    between atoms: N_6  and  C_7
REMARK    3  A    between atoms: C_7  and  C_8
REMARK    4  A    between atoms: C_19  and  C_20
REMARK                            x       y       z     vdW  Elec       q    Type
REMARK                         _______ _______ _______ _____ _____    ______ ____
ROOT
ATOM      1  O   UNL     1       5.089   2.436  19.949  0.00  0.00    +0.000 OA
ATOM      2  C   UNL     1       4.429   3.430  19.639  0.00  0.00    +0.000 C 
ATOM      3  N   UNL     1       3.150   3.612  20.166  0.00  0.00    +0.000 N 
ATOM      4  C   UNL     1       2.562   2.566  20.993  0.00  0.00    +0.000 C 
ATOM      5  C   UNL     1       1.188   2.347  20.389  0.00  0.00    +0.000 C 
ATOM      6  C   UNL     1       0.776   3.746  19.952  0.00  0.00    +0.000 C 
ATOM      7  C   UNL     1       2.100   4.442  19.606  0.00  0.00    +0.000 C 
ENDROOT
BRANCH   7   8
ATOM      8  C   UNL     1       2.093   5.884  20.004  0.00  0.00    +0.000 A 
ATOM      9  N   UNL     1       2.005   6.232  21.279  0.00  0.00    +0.000 NA
ATOM     10  N   UNL     1       1.715   7.564  21.357  0.00  0.00    +0.000 NA
ATOM     11  C   UNL     1       1.685   8.030  20.136  0.00  0.00    +0.000 A 
ATOM     12  C   UNL     1       1.316   9.305  19.606  0.00  0.00    +0.000 A 
ATOM     13  C   UNL     1       1.952   9.677  18.473  0.00  0.00    +0.000 A 
ATOM     14  C   UNL     1       2.277   8.625  17.491  0.00  0.00    +0.000 A 
ATOM     15  C   UNL     1       2.311   7.343  17.886  0.00  0.00    +0.000 A 
ATOM     16  N   UNL     1       2.063   7.037  19.234  0.00  0.00    +0.000 N 
ENDBRANCH   7   8
BRANCH   2  17
ATOM     17  C   UNL     1       5.040   4.461  18.802  0.00  0.00    +0.000 A 
ATOM     18  C   UNL     1       6.092   5.392  18.973  0.00  0.00    +0.000 A 
ATOM     19  N   UNL     1       6.374   6.086  17.869  0.00  0.00    +0.000 NA
ATOM     20  N   UNL     1       5.431   5.690  17.000  0.00  0.00    +0.000 N 
ATOM     21  C   UNL     1       4.601   4.739  17.514  0.00  0.00    +0.000 A 
BRANCH  20  22
ATOM     22  C   UNL     1       5.381   6.282  15.669  0.00  0.00    +0.000 C 
BRANCH  22  23
ATOM     23  C   UNL     1       5.871   5.309  14.624  0.00  0.00    +0.000 A 
ATOM     24  C   UNL     1       7.176   5.415  14.114  0.00  0.00    +0.000 A 
ATOM     25  C   UNL     1       7.591   4.584  13.082  0.00  0.00    +0.000 A 
ATOM     26  C   UNL     1       6.722   3.632  12.557  0.00  0.00    +0.000 A 
ATOM     27  C   UNL     1       5.438   3.496  13.082  0.00  0.00    +0.000 A 
ATOM     28  C   UNL     1       5.012   4.329  14.112  0.00  0.00    +0.000 A 
ENDBRANCH  22  23
ENDBRANCH  20  22
ENDBRANCH   2  17
TORSDOF 4
ENDMDL
MODEL 6
REMARK VINA RESULT:      -7.4      1.973      4.091
REMARK  Name = 
REMARK  4 active torsions:
REMARK  status: ('A' for Active; 'I' for Inactive)
REMARK    1  A    between atoms: C_2  and  C_3
REMARK    2  A    between atoms: N_6  and  C_7
REMARK    3  A    between atoms: C_7  and  C_8
REMARK    4  A    between atoms: C_19  and  C_20
REMARK                            x       y       z     vdW  Elec       q    Type
REMARK                         _______ _______ _______ _____ _____    ______ ____
ROOT
ATOM      1  O   UNL     1       5.871   7.426  16.517  0.00  0.00    +0.000 OA
ATOM      2  C   UNL     1       5.114   6.604  17.035  0.00  0.00    +0.000 C 
ATOM      3  N   UNL     1       5.429   5.244  17.003  0.00  0.00    +0.000 N 
ATOM      4  C   UNL     1       6.598   4.799  16.256  0.00  0.00    +0.000 C 
ATOM      5  C   UNL     1       6.075   3.670  15.390  0.00  0.00    +0.000 C 
ATOM      6  C   UNL     1       5.038   3.002  16.282  0.00  0.00    +0.000 C 
ATOM      7  C   UNL     1       4.497   4.143  17.156  0.00  0.00    +0.000 C 
ENDROOT
BRANCH   7   8
ATOM      8  C   UNL     1       4.211   3.689  18.552  0.00  0.00    +0.000 A 
ATOM      9  N   UNL     1       5.183   3.230  19.326  0.00  0.00    +0.000 NA
ATOM     10  N   UNL     1       4.633   2.609  20.410  0.00  0.00    +0.000 NA
ATOM     11  C   UNL     1       3.336   2.743  20.321  0.00  0.00    +0.000 A 
ATOM     12  C   UNL     1       2.262   2.201  21.092  0.00  0.00    +0.000 A 
ATOM     13  C   UNL     1       1.149   2.965  21.171  0.00  0.00    +0.000 A 
ATOM     14  C   UNL     1       0.774   3.755  19.983  0.00  0.00    +0.000 A 
ATOM     15  C   UNL     1       1.698   4.015  19.046  0.00  0.00    +0.000 A 
ATOM     16  N   UNL     1       3.010   3.550  19.233  0.00  0.00    +0.000 N 
ENDBRANCH   7   8
BRANCH   2  17
ATOM     17  C   UNL     1       3.942   7.077  17.773  0.00  0.00    +0.000 A 
ATOM     18  C   UNL     1       3.444   6.885  19.083  0.00  0.00    +0.000 A 
ATOM     19  N   UNL     1       2.363   7.618  19.353  0.00  0.00    +0.000 NA
ATOM     20  N   UNL     1       2.081   8.207  18.181  0.00  0.00    +0.000 N 
ATOM     21  C   UNL     1       2.982   7.901  17.204  0.00  0.00    +0.000 A 
BRANCH  20  22
ATOM     22  C   UNL     1       0.908   9.065  18.066  0.00  0.00    +0.000 C 
BRANCH  22  23
ATOM     23  C   UNL     1       1.110  10.362  18.809  0.00  0.00    +0.000 A 
ATOM     24  C   UNL     1       1.910  11.377  18.259  0.00  0.00    +0.000 A 
ATOM     25  C   UNL     1       2.177  12.529  18.988  0.00  0.00    +0.000 A 
ATOM     26  C   UNL     1       1.641  12.690  20.262  0.00  0.00    +0.000 A 
ATOM     27  C   UNL     1       0.815  11.704  20.801  0.00  0.00    +0.000 A 
ATOM     28  C   UNL     1       0.548  10.545  20.079  0.00  0.00    +0.000 A 
ENDBRANCH  22  23
ENDBRANCH  20  22
ENDBRANCH   2  17
TORSDOF 4
ENDMDL
MODEL 7
REMARK VINA RESULT:      -7.4      1.894      4.118
REMARK  Name = 
REMARK  4 active torsions:
REMARK  status: ('A' for Active; 'I' for Inactive)
REMARK    1  A    between atoms: C_2  and  C_3
REMARK    2  A    between atoms: N_6  and  C_7
REMARK    3  A    between atoms: C_7  and  C_8
REMARK    4  A    between atoms: C_19  and  C_20
REMARK                            x       y       z     vdW  Elec       q    Type
REMARK                         _______ _______ _______ _____ _____    ______ ____
ROOT
ATOM      1  O   UNL     1       6.286   7.839  16.976  0.00  0.00    +0.000 OA
ATOM      2  C   UNL     1       5.473   6.943  17.210  0.00  0.00    +0.000 C 
ATOM      3  N   UNL     1       5.827   5.608  17.004  0.00  0.00    +0.000 N 
ATOM      4  C   UNL     1       7.119   5.294  16.408  0.00  0.00    +0.000 C 
ATOM      5  C   UNL     1       6.783   4.329  15.287  0.00  0.00    +0.000 C 
ATOM      6  C   UNL     1       5.627   3.522  15.860  0.00  0.00    +0.000 C 
ATOM      7  C   UNL     1       4.913   4.498  16.806  0.00  0.00    +0.000 C 
ENDROOT
BRANCH   7   8
ATOM      8  C   UNL     1       4.404   3.814  18.034  0.00  0.00    +0.000 A 
ATOM      9  N   UNL     1       5.243   3.382  18.964  0.00  0.00    +0.000 NA
ATOM     10  N   UNL     1       4.577   2.543  19.810  0.00  0.00    +0.000 NA
ATOM     11  C   UNL     1       3.327   2.514  19.428  0.00  0.00    +0.000 A 
ATOM     12  C   UNL     1       2.213   1.728  19.854  0.00  0.00    +0.000 A 
ATOM     13  C   UNL     1       1.001   2.318  19.747  0.00  0.00    +0.000 A 
ATOM     14  C   UNL     1       0.773   3.213  18.597  0.00  0.00    +0.000 A 
ATOM     15  C   UNL     1       1.826   3.726  17.943  0.00  0.00    +0.000 A 
ATOM     16  N   UNL     1       3.122   3.419  18.388  0.00  0.00    +0.000 N 
ENDBRANCH   7   8
BRANCH   2  17
ATOM     17  C   UNL     1       4.180   7.285  17.801  0.00  0.00    +0.000 A 
ATOM     18  C   UNL     1       3.464   6.864  18.946  0.00  0.00    +0.000 A 
ATOM     19  N   UNL     1       2.336   7.546  19.148  0.00  0.00    +0.000 NA
ATOM     20  N   UNL     1       2.252   8.342  18.070  0.00  0.00    +0.000 N 
ATOM     21  C   UNL     1       3.317   8.209  17.229  0.00  0.00    +0.000 A 
BRANCH  20  22
ATOM     22  C   UNL     1       1.098   9.218  17.906  0.00  0.00    +0.000 C 
BRANCH  22  23
ATOM     23  C   UNL     1       1.199  10.423  18.808  0.00  0.00    +0.000 A 
ATOM     24  C   UNL     1       0.500  10.457  20.026  0.00  0.00    +0.000 A 
ATOM     25  C   UNL     1       0.513  11.606  20.807  0.00  0.00    +0.000 A 
ATOM     26  C   UNL     1       1.232  12.724  20.394  0.00  0.00    +0.000 A 
ATOM     27  C   UNL     1       1.960  12.685  19.206  0.00  0.00    +0.000 A 
ATOM     28  C   UNL     1       1.945  11.541  18.415  0.00  0.00    +0.000 A 
ENDBRANCH  22  23
ENDBRANCH  20  22
ENDBRANCH   2  17
TORSDOF 4
ENDMDL
MODEL 8
REMARK VINA RESULT:      -7.4      0.865      1.366
REMARK  Name = 
REMARK  4 active torsions:
REMARK  status: ('A' for Active; 'I' for Inactive)
REMARK    1  A    between atoms: C_2  and  C_3
REMARK    2  A    between atoms: N_6  and  C_7
REMARK    3  A    between atoms: C_7  and  C_8
REMARK    4  A    between atoms: C_19  and  C_20
REMARK                            x       y       z     vdW  Elec       q    Type
REMARK                         _______ _______ _______ _____ _____    ______ ____
ROOT
ATOM      1  O   UNL     1       0.825   4.461  17.246  0.00  0.00    +0.000 OA
ATOM      2  C   UNL     1       1.922   4.696  17.755  0.00  0.00    +0.000 C 
ATOM      3  N   UNL     1       2.772   3.644  18.101  0.00  0.00    +0.000 N 
ATOM      4  C   UNL     1       2.303   2.271  17.961  0.00  0.00    +0.000 C 
ATOM      5  C   UNL     1       2.616   1.636  19.302  0.00  0.00    +0.000 C 
ATOM      6  C   UNL     1       3.925   2.301  19.702  0.00  0.00    +0.000 C 
ATOM      7  C   UNL     1       3.854   3.696  19.066  0.00  0.00    +0.000 C 
ENDROOT
BRANCH   7   8
ATOM      8  C   UNL     1       5.187   4.149  18.563  0.00  0.00    +0.000 A 
ATOM      9  N   UNL     1       6.124   4.558  19.404  0.00  0.00    +0.000 NA
ATOM     10  N   UNL     1       7.108   5.192  18.703  0.00  0.00    +0.000 NA
ATOM     11  C   UNL     1       6.796   5.115  17.435  0.00  0.00    +0.000 A 
ATOM     12  C   UNL     1       7.379   5.696  16.268  0.00  0.00    +0.000 A 
ATOM     13  C   UNL     1       7.253   4.980  15.128  0.00  0.00    +0.000 A 
ATOM     14  C   UNL     1       6.006   4.218  14.931  0.00  0.00    +0.000 A 
ATOM     15  C   UNL     1       5.237   3.927  15.991  0.00  0.00    +0.000 A 
ATOM     16  N   UNL     1       5.654   4.333  17.269  0.00  0.00    +0.000 N 
ENDBRANCH   7   8
BRANCH   2  17
ATOM     17  C   UNL     1       2.366   6.083  17.891  0.00  0.00    +0.000 A 
ATOM     18  C   UNL     1       3.399   6.862  17.318  0.00  0.00    +0.000 A 
ATOM     19  N   UNL     1       3.358   8.146  17.675  0.00  0.00    +0.000 NA
ATOM     20  N   UNL     1       2.362   8.191  18.574  0.00  0.00    +0.000 N 
ATOM     21  C   UNL     1       1.754   6.984  18.752  0.00  0.00    +0.000 A 
BRANCH  20  22
ATOM     22  C   UNL     1       2.046   9.448  19.242  0.00  0.00    +0.000 C 
BRANCH  22  23
ATOM     23  C   UNL     1       0.609   9.842  19.002  0.00  0.00    +0.000 A 
ATOM     24  C   UNL     1       0.015   9.628  17.747  0.00  0.00    +0.000 A 
ATOM     25  C   UNL     1      -1.273  10.082  17.497  0.00  0.00    +0.000 A 
ATOM     26  C   UNL     1      -1.988  10.740  18.494  0.00  0.00    +0.000 A 
ATOM     27  C   UNL     1      -1.421  10.923  19.754  0.00  0.00    +0.000 A 
ATOM     28  C   UNL     1      -0.128  10.477  20.009  0.00  0.00    +0.000 A 
ENDBRANCH  22  23
ENDBRANCH  20  22
ENDBRANCH   2  17
TORSDOF 4
ENDMDL
MODEL 9
REMARK VINA RESULT:      -7.2      2.253      4.237
REMARK  Name = 
REMARK  4 active torsions:
REMARK  status: ('A' for Active; 'I' for Inactive)
REMARK    1  A    between atoms: C_2  and  C_3
REMARK    2  A    between atoms: N_6  and  C_7
REMARK    3  A    between atoms: C_7  and  C_8
REMARK    4  A    between atoms: C_19  and  C_20
REMARK                            x       y       z     vdW  Elec       q    Type
REMARK                         _______ _______ _______ _____ _____    ______ ____
ROOT
ATOM      1  O   UNL     1       5.649   7.681  16.580  0.00  0.00    +0.000 OA
ATOM      2  C   UNL     1       4.931   6.825  17.098  0.00  0.00    +0.000 C 
ATOM      3  N   UNL     1       5.251   5.473  16.970  0.00  0.00    +0.000 N 
ATOM      4  C   UNL     1       6.372   5.080  16.126  0.00  0.00    +0.000 C 
ATOM      5  C   UNL     1       5.800   3.996  15.233  0.00  0.00    +0.000 C 
ATOM      6  C   UNL     1       4.827   3.271  16.151  0.00  0.00    +0.000 C 
ATOM      7  C   UNL     1       4.337   4.356  17.120  0.00  0.00    +0.000 C 
ENDROOT
BRANCH   7   8
ATOM      8  C   UNL     1       4.143   3.822  18.504  0.00  0.00    +0.000 A 
ATOM      9  N   UNL     1       5.173   3.376  19.206  0.00  0.00    +0.000 NA
ATOM     10  N   UNL     1       4.710   2.678  20.284  0.00  0.00    +0.000 NA
ATOM     11  C   UNL     1       3.405   2.751  20.264  0.00  0.00    +0.000 A 
ATOM     12  C   UNL     1       2.398   2.119  21.057  0.00  0.00    +0.000 A 
ATOM     13  C   UNL     1       1.256   2.822  21.227  0.00  0.00    +0.000 A 
ATOM     14  C   UNL     1       0.784   3.648  20.100  0.00  0.00    +0.000 A 
ATOM     15  C   UNL     1       1.646   3.998  19.133  0.00  0.00    +0.000 A 
ATOM     16  N   UNL     1       2.986   3.591  19.234  0.00  0.00    +0.000 N 
ENDBRANCH   7   8
BRANCH   2  17
ATOM     17  C   UNL     1       3.807   7.246  17.935  0.00  0.00    +0.000 A 
ATOM     18  C   UNL     1       3.338   6.900  19.224  0.00  0.00    +0.000 A 
ATOM     19  N   UNL     1       2.303   7.637  19.630  0.00  0.00    +0.000 NA
ATOM     20  N   UNL     1       2.018   8.394  18.558  0.00  0.00    +0.000 N 
ATOM     21  C   UNL     1       2.872   8.183  17.517  0.00  0.00    +0.000 A 
BRANCH  20  22
ATOM     22  C   UNL     1       0.885   9.311  18.602  0.00  0.00    +0.000 C 
BRANCH  22  23
ATOM     23  C   UNL     1       0.522   9.655  20.026  0.00  0.00    +0.000 A 
ATOM     24  C   UNL     1       0.109   8.648  20.915  0.00  0.00    +0.000 A 
ATOM     25  C   UNL     1      -0.322   8.978  22.194  0.00  0.00    +0.000 A 
ATOM     26  C   UNL     1      -0.332  10.308  22.606  0.00  0.00    +0.000 A 
ATOM     27  C   UNL     1       0.111  11.309  21.743  0.00  0.00    +0.000 A 
ATOM     28  C   UNL     1       0.537  10.986  20.459  0.00  0.00    +0.000 A 
ENDBRANCH  22  23
ENDBRANCH  20  22
ENDBRANCH   2  17
TORSDOF 4
ENDMDL
