MODEL 1
REMARK VINA RESULT:      -8.6      0.000      0.000
REMARK  Name = 
REMARK  6 active torsions:
REMARK  status: ('A' for Active; 'I' for Inactive)
REMARK    1  A    between atoms: C_1  and  C_2
REMARK    2  A    between atoms: C_6  and  C_7
REMARK    3  A    between atoms: C_10  and  C_11
REMARK    4  A    between atoms: C_11  and  N_12
REMARK    5  A    between atoms: N_12  and  C_13
REMARK    6  A    between atoms: C_18  and  N_19
REMARK                            x       y       z     vdW  Elec       q    Type
REMARK                         _______ _______ _______ _____ _____    ______ ____
ROOT
ATOM      1  N   UNL     1       3.326   6.049  19.179  0.00  0.00    +0.000 N 
ATOM      2  H   UNL     1       2.955   6.306  20.093  0.00  0.00    +0.000 HD
ENDROOT
BRANCH   1   3
ATOM      3  C   UNL     1       2.958   4.715  18.889  0.00  0.00    +0.000 A 
ATOM      4  C   UNL     1       1.769   4.189  19.443  0.00  0.00    +0.000 A 
ATOM      5  C   UNL     1       1.369   2.876  19.212  0.00  0.00    +0.000 A 
ATOM      6  C   UNL     1       2.166   2.051  18.440  0.00  0.00    +0.000 A 
ATOM      7  C   UNL     1       3.388   2.522  17.955  0.00  0.00    +0.000 A 
ATOM      8  C   UNL     1       3.837   3.834  18.199  0.00  0.00    +0.000 A 
BRANCH   8   9
ATOM      9  N   UNL     1       5.135   4.221  17.729  0.00  0.00    +0.000 N 
ATOM     10  C   UNL     1       5.474   4.381  16.335  0.00  0.00    +0.000 C 
ATOM     11  C   UNL     1       6.988   4.452  16.322  0.00  0.00    +0.000 C 
ATOM     12  C   UNL     1       7.317   5.114  17.643  0.00  0.00    +0.000 C 
ATOM     13  C   UNL     1       6.189   4.672  18.543  0.00  0.00    +0.000 C 
ATOM     14  O   UNL     1       6.235   4.797  19.758  0.00  0.00    +0.000 OA
ENDBRANCH   8   9
ENDBRANCH   1   3
BRANCH   1  15
ATOM     15  C   UNL     1       2.961   7.051  18.166  0.00  0.00    +0.000 C 
BRANCH  15  19
ATOM     16  C   UNL     1       0.972   9.536  19.778  0.00  0.00    +0.000 A 
ATOM     17  N   UNL     1       1.093  10.111  18.570  0.00  0.00    +0.000 NA
ATOM     18  O   UNL     1       1.879   9.211  17.849  0.00  0.00    +0.000 OA
ATOM     19  C   UNL     1       2.150   8.181  18.695  0.00  0.00    +0.000 A 
ATOM     20  N   UNL     1       1.632   8.331  19.891  0.00  0.00    +0.000 NA
BRANCH  16  26
ATOM     21  C   UNL     1      -2.256  12.917  21.551  0.00  0.00    +0.000 C 
ATOM     22  C   UNL     1      -1.382  11.717  21.769  0.00  0.00    +0.000 A 
ATOM     23  C   UNL     1      -1.342  11.071  23.010  0.00  0.00    +0.000 A 
ATOM     24  C   UNL     1      -0.540   9.945  23.194  0.00  0.00    +0.000 A 
ATOM     25  C   UNL     1       0.223   9.453  22.135  0.00  0.00    +0.000 A 
ATOM     26  C   UNL     1       0.195  10.084  20.882  0.00  0.00    +0.000 A 
ATOM     27  C   UNL     1      -0.608  11.220  20.712  0.00  0.00    +0.000 A 
ENDBRANCH  16  26
ENDBRANCH  15  19
ENDBRANCH   1  15
TORSDOF 5
ENDMDL
MODEL 2
REMARK VINA RESULT:      -8.5      1.693      3.228
REMARK  Name = 
REMARK  6 active torsions:
REMARK  status: ('A' for Active; 'I' for Inactive)
REMARK    1  A    between atoms: C_1  and  C_2
REMARK    2  A    between atoms: C_6  and  C_7
REMARK    3  A    between atoms: C_10  and  C_11
REMARK    4  A    between atoms: C_11  and  N_12
REMARK    5  A    between atoms: N_12  and  C_13
REMARK    6  A    between atoms: C_18  and  N_19
REMARK                            x       y       z     vdW  Elec       q    Type
REMARK                         _______ _______ _______ _____ _____    ______ ____
ROOT
ATOM      1  N   UNL     1       3.345   6.722  18.151  0.00  0.00    +0.000 N 
ATOM      2  H   UNL     1       2.556   6.246  18.588  0.00  0.00    +0.000 HD
ENDROOT
BRANCH   1   3
ATOM      3  C   UNL     1       4.110   5.781  17.425  0.00  0.00    +0.000 A 
ATOM      4  C   UNL     1       4.950   6.229  16.381  0.00  0.00    +0.000 A 
ATOM      5  C   UNL     1       5.706   5.346  15.616  0.00  0.00    +0.000 A 
ATOM      6  C   UNL     1       5.619   3.989  15.864  0.00  0.00    +0.000 A 
ATOM      7  C   UNL     1       4.729   3.516  16.831  0.00  0.00    +0.000 A 
ATOM      8  C   UNL     1       3.925   4.381  17.598  0.00  0.00    +0.000 A 
BRANCH   8   9
ATOM      9  N   UNL     1       2.985   3.816  18.521  0.00  0.00    +0.000 N 
ATOM     10  C   UNL     1       3.302   3.467  19.885  0.00  0.00    +0.000 C 
ATOM     11  C   UNL     1       2.132   2.616  20.337  0.00  0.00    +0.000 C 
ATOM     12  C   UNL     1       0.964   3.192  19.567  0.00  0.00    +0.000 C 
ATOM     13  C   UNL     1       1.602   3.697  18.296  0.00  0.00    +0.000 C 
ATOM     14  O   UNL     1       0.944   4.004  17.312  0.00  0.00    +0.000 OA
ENDBRANCH   8   9
ENDBRANCH   1   3
BRANCH   1  15
ATOM     15  C   UNL     1       2.890   7.901  17.397  0.00  0.00    +0.000 C 
BRANCH  15  19
ATOM     16  C   UNL     1       0.975   9.932  19.618  0.00  0.00    +0.000 A 
ATOM     17  N   UNL     1       1.022  10.759  18.560  0.00  0.00    +0.000 NA
ATOM     18  O   UNL     1       1.773  10.054  17.619  0.00  0.00    +0.000 OA
ATOM     19  C   UNL     1       2.101   8.871  18.203  0.00  0.00    +0.000 A 
ATOM     20  N   UNL     1       1.652   8.745  19.429  0.00  0.00    +0.000 NA
BRANCH  16  26
ATOM     21  C   UNL     1      -2.148  12.796  22.271  0.00  0.00    +0.000 C 
ATOM     22  C   UNL     1      -1.266  11.586  22.168  0.00  0.00    +0.000 A 
ATOM     23  C   UNL     1      -1.163  10.677  23.228  0.00  0.00    +0.000 A 
ATOM     24  C   UNL     1      -0.355   9.547  23.112  0.00  0.00    +0.000 A 
ATOM     25  C   UNL     1       0.350   9.313  21.931  0.00  0.00    +0.000 A 
ATOM     26  C   UNL     1       0.259  10.210  20.856  0.00  0.00    +0.000 A 
ATOM     27  C   UNL     1      -0.549  11.347  20.987  0.00  0.00    +0.000 A 
ENDBRANCH  16  26
ENDBRANCH  15  19
ENDBRANCH   1  15
TORSDOF 5
ENDMDL
MODEL 3
REMARK VINA RESULT:      -8.3      2.948      4.503
REMARK  Name = 
REMARK  6 active torsions:
REMARK  status: ('A' for Active; 'I' for Inactive)
REMARK    1  A    between atoms: C_1  and  C_2
REMARK    2  A    between atoms: C_6  and  C_7
REMARK    3  A    between atoms: C_10  and  C_11
REMARK    4  A    between atoms: C_11  and  N_12
REMARK    5  A    between atoms: N_12  and  C_13
REMARK    6  A    between atoms: C_18  and  N_19
REMARK                            x       y       z     vdW  Elec       q    Type
REMARK                         _______ _______ _______ _____ _____    ______ ____
ROOT
ATOM      1  N   UNL     1       2.575   6.969  18.488  0.00  0.00    +0.000 N 
ATOM      2  H   UNL     1       1.646   6.587  18.313  0.00  0.00    +0.000 HD
ENDROOT
BRANCH   1   3
ATOM      3  C   UNL     1       3.535   6.181  17.812  0.00  0.00    +0.000 A 
ATOM      4  C   UNL     1       4.451   6.806  16.937  0.00  0.00    +0.000 A 
ATOM      5  C   UNL     1       5.401   6.078  16.226  0.00  0.00    +0.000 A 
ATOM      6  C   UNL     1       5.438   4.702  16.357  0.00  0.00    +0.000 A 
ATOM      7  C   UNL     1       4.486   4.055  17.148  0.00  0.00    +0.000 A 
ATOM      8  C   UNL     1       3.491   4.759  17.852  0.00  0.00    +0.000 A 
BRANCH   8   9
ATOM      9  N   UNL     1       2.505   4.019  18.585  0.00  0.00    +0.000 N 
ATOM     10  C   UNL     1       1.788   2.885  18.053  0.00  0.00    +0.000 C 
ATOM     11  C   UNL     1       0.652   2.666  19.032  0.00  0.00    +0.000 C 
ATOM     12  C   UNL     1       1.242   3.103  20.355  0.00  0.00    +0.000 C 
ATOM     13  C   UNL     1       2.235   4.169  19.956  0.00  0.00    +0.000 C 
ATOM     14  O   UNL     1       2.731   4.937  20.768  0.00  0.00    +0.000 OA
ENDBRANCH   8   9
ENDBRANCH   1   3
BRANCH   1  15
ATOM     15  C   UNL     1       2.608   8.411  18.197  0.00  0.00    +0.000 C 
BRANCH  15  19
ATOM     16  C   UNL     1      -0.589   9.995  18.253  0.00  0.00    +0.000 A 
ATOM     17  N   UNL     1      -0.203  10.249  19.514  0.00  0.00    +0.000 NA
ATOM     18  O   UNL     1       1.054   9.651  19.606  0.00  0.00    +0.000 OA
ATOM     19  C   UNL     1       1.302   9.099  18.388  0.00  0.00    +0.000 A 
ATOM     20  N   UNL     1       0.328   9.266  17.525  0.00  0.00    +0.000 NA
BRANCH  16  26
ATOM     21  C   UNL     1      -3.770  10.122  14.398  0.00  0.00    +0.000 C 
ATOM     22  C   UNL     1      -3.406  10.530  15.796  0.00  0.00    +0.000 A 
ATOM     23  C   UNL     1      -4.278  11.305  16.569  0.00  0.00    +0.000 A 
ATOM     24  C   UNL     1      -3.936  11.661  17.874  0.00  0.00    +0.000 A 
ATOM     25  C   UNL     1      -2.723  11.238  18.416  0.00  0.00    +0.000 A 
ATOM     26  C   UNL     1      -1.836  10.457  17.658  0.00  0.00    +0.000 A 
ATOM     27  C   UNL     1      -2.186  10.114  16.346  0.00  0.00    +0.000 A 
ENDBRANCH  16  26
ENDBRANCH  15  19
ENDBRANCH   1  15
TORSDOF 5
ENDMDL
MODEL 4
REMARK VINA RESULT:      -8.2      2.944      8.359
REMARK  Name = 
REMARK  6 active torsions:
REMARK  status: ('A' for Active; 'I' for Inactive)
REMARK    1  A    between atoms: C_1  and  C_2
REMARK    2  A    between atoms: C_6  and  C_7
REMARK    3  A    between atoms: C_10  and  C_11
REMARK    4  A    between atoms: C_11  and  N_12
REMARK    5  A    between atoms: N_12  and  C_13
REMARK    6  A    between atoms: C_18  and  N_19
REMARK                            x       y       z     vdW  Elec       q    Type
REMARK                         _______ _______ _______ _____ _____    ______ ____
ROOT
ATOM      1  N   UNL     1       4.989   5.045  19.630  0.00  0.00    +0.000 N 
ATOM      2  H   UNL     1       4.878   5.999  19.287  0.00  0.00    +0.000 HD
ENDROOT
BRANCH   1   3
ATOM      3  C   UNL     1       3.798   4.323  19.382  0.00  0.00    +0.000 A 
ATOM      4  C   UNL     1       3.826   2.911  19.412  0.00  0.00    +0.000 A 
ATOM      5  C   UNL     1       2.691   2.149  19.151  0.00  0.00    +0.000 A 
ATOM      6  C   UNL     1       1.507   2.784  18.829  0.00  0.00    +0.000 A 
ATOM      7  C   UNL     1       1.477   4.175  18.708  0.00  0.00    +0.000 A 
ATOM      8  C   UNL     1       2.616   4.973  18.931  0.00  0.00    +0.000 A 
BRANCH   8   9
ATOM      9  N   UNL     1       2.523   6.388  18.716  0.00  0.00    +0.000 N 
ATOM     10  C   UNL     1       1.874   7.302  19.625  0.00  0.00    +0.000 C 
ATOM     11  C   UNL     1       1.733   8.585  18.831  0.00  0.00    +0.000 C 
ATOM     12  C   UNL     1       2.946   8.571  17.927  0.00  0.00    +0.000 C 
ATOM     13  C   UNL     1       3.198   7.098  17.709  0.00  0.00    +0.000 C 
ATOM     14  O   UNL     1       3.943   6.686  16.830  0.00  0.00    +0.000 OA
ENDBRANCH   8   9
ENDBRANCH   1   3
BRANCH   1  15
ATOM     15  C   UNL     1       6.226   4.443  19.108  0.00  0.00    +0.000 C 
BRANCH  15  19
ATOM     16  C   UNL     1       6.938   5.114  15.677  0.00  0.00    +0.000 A 
ATOM     17  N   UNL     1       7.441   6.234  16.221  0.00  0.00    +0.000 NA
ATOM     18  O   UNL     1       7.199   6.079  17.587  0.00  0.00    +0.000 OA
ATOM     19  C   UNL     1       6.577   4.878  17.728  0.00  0.00    +0.000 A 
ATOM     20  N   UNL     1       6.380   4.249  16.594  0.00  0.00    +0.000 NA
BRANCH  16  26
ATOM     21  C   UNL     1       5.302   2.442  11.781  0.00  0.00    +0.000 C 
ATOM     22  C   UNL     1       6.203   3.504  12.341  0.00  0.00    +0.000 A 
ATOM     23  C   UNL     1       7.058   4.235  11.509  0.00  0.00    +0.000 A 
ATOM     24  C   UNL     1       7.877   5.231  12.040  0.00  0.00    +0.000 A 
ATOM     25  C   UNL     1       7.841   5.508  13.406  0.00  0.00    +0.000 A 
ATOM     26  C   UNL     1       6.988   4.788  14.258  0.00  0.00    +0.000 A 
ATOM     27  C   UNL     1       6.177   3.783  13.714  0.00  0.00    +0.000 A 
ENDBRANCH  16  26
ENDBRANCH  15  19
ENDBRANCH   1  15
TORSDOF 5
ENDMDL
MODEL 5
REMARK VINA RESULT:      -8.2      0.886      1.545
REMARK  Name = 
REMARK  6 active torsions:
REMARK  status: ('A' for Active; 'I' for Inactive)
REMARK    1  A    between atoms: C_1  and  C_2
REMARK    2  A    between atoms: C_6  and  C_7
REMARK    3  A    between atoms: C_10  and  C_11
REMARK    4  A    between atoms: C_11  and  N_12
REMARK    5  A    between atoms: N_12  and  C_13
REMARK    6  A    between atoms: C_18  and  N_19
REMARK                            x       y       z     vdW  Elec       q    Type
REMARK                         _______ _______ _______ _____ _____    ______ ____
ROOT
ATOM      1  N   UNL     1       2.902   5.960  17.802  0.00  0.00    +0.000 N 
ATOM      2  H   UNL     1       3.771   6.138  17.298  0.00  0.00    +0.000 HD
ENDROOT
BRANCH   1   3
ATOM      3  C   UNL     1       2.723   4.564  17.938  0.00  0.00    +0.000 A 
ATOM      4  C   UNL     1       1.518   4.071  18.484  0.00  0.00    +0.000 A 
ATOM      5  C   UNL     1       1.297   2.708  18.665  0.00  0.00    +0.000 A 
ATOM      6  C   UNL     1       2.291   1.810  18.325  0.00  0.00    +0.000 A 
ATOM      7  C   UNL     1       3.523   2.280  17.866  0.00  0.00    +0.000 A 
ATOM      8  C   UNL     1       3.790   3.653  17.704  0.00  0.00    +0.000 A 
BRANCH   8   9
ATOM      9  N   UNL     1       5.103   4.059  17.297  0.00  0.00    +0.000 N 
ATOM     10  C   UNL     1       5.495   4.264  15.923  0.00  0.00    +0.000 C 
ATOM     11  C   UNL     1       7.008   4.342  15.972  0.00  0.00    +0.000 C 
ATOM     12  C   UNL     1       7.282   4.966  17.323  0.00  0.00    +0.000 C 
ATOM     13  C   UNL     1       6.122   4.491  18.164  0.00  0.00    +0.000 C 
ATOM     14  O   UNL     1       6.120   4.580  19.384  0.00  0.00    +0.000 OA
ENDBRANCH   8   9
ENDBRANCH   1   3
BRANCH   1  15
ATOM     15  C   UNL     1       2.853   6.740  19.049  0.00  0.00    +0.000 C 
BRANCH  15  19
ATOM     16  C   UNL     1       0.960   9.763  19.105  0.00  0.00    +0.000 A 
ATOM     17  N   UNL     1       1.549   9.903  17.906  0.00  0.00    +0.000 NA
ATOM     18  O   UNL     1       2.338   8.758  17.786  0.00  0.00    +0.000 OA
ATOM     19  C   UNL     1       2.142   8.041  18.925  0.00  0.00    +0.000 A 
ATOM     20  N   UNL     1       1.320   8.611  19.773  0.00  0.00    +0.000 NA
BRANCH  16  26
ATOM     21  C   UNL     1      -1.442  11.654  23.061  0.00  0.00    +0.000 C 
ATOM     22  C   UNL     1      -1.182  11.643  21.583  0.00  0.00    +0.000 A 
ATOM     23  C   UNL     1      -1.808  12.564  20.734  0.00  0.00    +0.000 A 
ATOM     24  C   UNL     1      -1.543  12.554  19.365  0.00  0.00    +0.000 A 
ATOM     25  C   UNL     1      -0.644  11.629  18.836  0.00  0.00    +0.000 A 
ATOM     26  C   UNL     1      -0.003  10.700  19.670  0.00  0.00    +0.000 A 
ATOM     27  C   UNL     1      -0.284  10.712  21.042  0.00  0.00    +0.000 A 
ENDBRANCH  16  26
ENDBRANCH  15  19
ENDBRANCH   1  15
TORSDOF 5
ENDMDL
MODEL 6
REMARK VINA RESULT:      -8.2      2.636      3.259
REMARK  Name = 
REMARK  6 active torsions:
REMARK  status: ('A' for Active; 'I' for Inactive)
REMARK    1  A    between atoms: C_1  and  C_2
REMARK    2  A    between atoms: C_6  and  C_7
REMARK    3  A    between atoms: C_10  and  C_11
REMARK    4  A    between atoms: C_11  and  N_12
REMARK    5  A    between atoms: N_12  and  C_13
REMARK    6  A    between atoms: C_18  and  N_19
REMARK                            x       y       z     vdW  Elec       q    Type
REMARK                         _______ _______ _______ _____ _____    ______ ____
ROOT
ATOM      1  N   UNL     1       3.037   7.098  18.817  0.00  0.00    +0.000 N 
ATOM      2  H   UNL     1       2.443   7.143  19.645  0.00  0.00    +0.000 HD
ENDROOT
BRANCH   1   3
ATOM      3  C   UNL     1       2.947   5.804  18.253  0.00  0.00    +0.000 A 
ATOM      4  C   UNL     1       1.721   5.105  18.316  0.00  0.00    +0.000 A 
ATOM      5  C   UNL     1       1.581   3.820  17.800  0.00  0.00    +0.000 A 
ATOM      6  C   UNL     1       2.675   3.195  17.232  0.00  0.00    +0.000 A 
ATOM      7  C   UNL     1       3.918   3.832  17.238  0.00  0.00    +0.000 A 
ATOM      8  C   UNL     1       4.101   5.117  17.782  0.00  0.00    +0.000 A 
BRANCH   8   9
ATOM      9  N   UNL     1       5.422   5.674  17.816  0.00  0.00    +0.000 N 
ATOM     10  C   UNL     1       6.427   5.308  18.785  0.00  0.00    +0.000 C 
ATOM     11  C   UNL     1       7.495   6.373  18.639  0.00  0.00    +0.000 C 
ATOM     12  C   UNL     1       7.428   6.736  17.171  0.00  0.00    +0.000 C 
ATOM     13  C   UNL     1       5.979   6.497  16.822  0.00  0.00    +0.000 C 
ATOM     14  O   UNL     1       5.478   6.917  15.788  0.00  0.00    +0.000 OA
ENDBRANCH   8   9
ENDBRANCH   1   3
BRANCH   1  15
ATOM     15  C   UNL     1       2.749   8.217  17.907  0.00  0.00    +0.000 C 
BRANCH  15  19
ATOM     16  C   UNL     1      -0.376   9.896  18.287  0.00  0.00    +0.000 A 
ATOM     17  N   UNL     1       0.178  10.206  19.471  0.00  0.00    +0.000 NA
ATOM     18  O   UNL     1       1.423   9.576  19.432  0.00  0.00    +0.000 OA
ATOM     19  C   UNL     1       1.496   8.953  18.226  0.00  0.00    +0.000 A 
ATOM     20  N   UNL     1       0.421   9.102  17.488  0.00  0.00    +0.000 NA
BRANCH  16  26
ATOM     21  C   UNL     1      -4.618  12.402  19.133  0.00  0.00    +0.000 C 
ATOM     22  C   UNL     1      -3.753  11.583  18.220  0.00  0.00    +0.000 A 
ATOM     23  C   UNL     1      -4.153  11.306  16.907  0.00  0.00    +0.000 A 
ATOM     24  C   UNL     1      -3.331  10.560  16.062  0.00  0.00    +0.000 A 
ATOM     25  C   UNL     1      -2.101  10.093  16.522  0.00  0.00    +0.000 A 
ATOM     26  C   UNL     1      -1.680  10.363  17.834  0.00  0.00    +0.000 A 
ATOM     27  C   UNL     1      -2.518  11.105  18.676  0.00  0.00    +0.000 A 
ENDBRANCH  16  26
ENDBRANCH  15  19
ENDBRANCH   1  15
TORSDOF 5
ENDMDL
MODEL 7
REMARK VINA RESULT:      -8.2      2.042      3.736
REMARK  Name = 
REMARK  6 active torsions:
REMARK  status: ('A' for Active; 'I' for Inactive)
REMARK    1  A    between atoms: C_1  and  C_2
REMARK    2  A    between atoms: C_6  and  C_7
REMARK    3  A    between atoms: C_10  and  C_11
REMARK    4  A    between atoms: C_11  and  N_12
REMARK    5  A    between atoms: N_12  and  C_13
REMARK    6  A    between atoms: C_18  and  N_19
REMARK                            x       y       z     vdW  Elec       q    Type
REMARK                         _______ _______ _______ _____ _____    ______ ____
ROOT
ATOM      1  N   UNL     1       3.627   6.853  18.254  0.00  0.00    +0.000 N 
ATOM      2  H   UNL     1       2.969   6.338  18.839  0.00  0.00    +0.000 HD
ENDROOT
BRANCH   1   3
ATOM      3  C   UNL     1       4.263   5.951  17.369  0.00  0.00    +0.000 A 
ATOM      4  C   UNL     1       5.013   6.457  16.284  0.00  0.00    +0.000 A 
ATOM      5  C   UNL     1       5.638   5.617  15.368  0.00  0.00    +0.000 A 
ATOM      6  C   UNL     1       5.505   4.248  15.503  0.00  0.00    +0.000 A 
ATOM      7  C   UNL     1       4.697   3.727  16.516  0.00  0.00    +0.000 A 
ATOM      8  C   UNL     1       4.023   4.550  17.438  0.00  0.00    +0.000 A 
BRANCH   8   9
ATOM      9  N   UNL     1       3.155   3.942  18.403  0.00  0.00    +0.000 N 
ATOM     10  C   UNL     1       3.579   3.517  19.715  0.00  0.00    +0.000 C 
ATOM     11  C   UNL     1       2.439   2.651  20.216  0.00  0.00    +0.000 C 
ATOM     12  C   UNL     1       1.219   3.278  19.578  0.00  0.00    +0.000 C 
ATOM     13  C   UNL     1       1.757   3.847  18.287  0.00  0.00    +0.000 C 
ATOM     14  O   UNL     1       1.025   4.212  17.379  0.00  0.00    +0.000 OA
ENDBRANCH   8   9
ENDBRANCH   1   3
BRANCH   1  15
ATOM     15  C   UNL     1       2.973   8.013  17.629  0.00  0.00    +0.000 C 
BRANCH  15  19
ATOM     16  C   UNL     1       0.310   9.708  19.291  0.00  0.00    +0.000 A 
ATOM     17  N   UNL     1       0.829   9.047  20.339  0.00  0.00    +0.000 NA
ATOM     18  O   UNL     1       1.891   8.328  19.788  0.00  0.00    +0.000 OA
ATOM     19  C   UNL     1       1.907   8.631  18.462  0.00  0.00    +0.000 A 
ATOM     20  N   UNL     1       0.957   9.459  18.098  0.00  0.00    +0.000 NA
BRANCH  16  26
ATOM     21  C   UNL     1      -4.008  11.456  17.477  0.00  0.00    +0.000 C 
ATOM     22  C   UNL     1      -2.919  11.503  18.508  0.00  0.00    +0.000 A 
ATOM     23  C   UNL     1      -2.987  12.391  19.588  0.00  0.00    +0.000 A 
ATOM     24  C   UNL     1      -1.977  12.411  20.549  0.00  0.00    +0.000 A 
ATOM     25  C   UNL     1      -0.896  11.537  20.442  0.00  0.00    +0.000 A 
ATOM     26  C   UNL     1      -0.809  10.637  19.369  0.00  0.00    +0.000 A 
ATOM     27  C   UNL     1      -1.825  10.632  18.404  0.00  0.00    +0.000 A 
ENDBRANCH  16  26
ENDBRANCH  15  19
ENDBRANCH   1  15
TORSDOF 5
ENDMDL
MODEL 8
REMARK VINA RESULT:      -8.2      0.939      1.213
REMARK  Name = 
REMARK  6 active torsions:
REMARK  status: ('A' for Active; 'I' for Inactive)
REMARK    1  A    between atoms: C_1  and  C_2
REMARK    2  A    between atoms: C_6  and  C_7
REMARK    3  A    between atoms: C_10  and  C_11
REMARK    4  A    between atoms: C_11  and  N_12
REMARK    5  A    between atoms: N_12  and  C_13
REMARK    6  A    between atoms: C_18  and  N_19
REMARK                            x       y       z     vdW  Elec       q    Type
REMARK                         _______ _______ _______ _____ _____    ______ ____
ROOT
ATOM      1  N   UNL     1       3.125   6.070  19.112  0.00  0.00    +0.000 N 
ATOM      2  H   UNL     1       2.677   6.277  20.004  0.00  0.00    +0.000 HD
ENDROOT
BRANCH   1   3
ATOM      3  C   UNL     1       2.786   4.755  18.717  0.00  0.00    +0.000 A 
ATOM      4  C   UNL     1       1.539   4.216  19.105  0.00  0.00    +0.000 A 
ATOM      5  C   UNL     1       1.162   2.919  18.767  0.00  0.00    +0.000 A 
ATOM      6  C   UNL     1       2.038   2.124  18.053  0.00  0.00    +0.000 A 
ATOM      7  C   UNL     1       3.310   2.605  17.735  0.00  0.00    +0.000 A 
ATOM      8  C   UNL     1       3.734   3.899  18.091  0.00  0.00    +0.000 A 
BRANCH   8   9
ATOM      9  N   UNL     1       5.080   4.293  17.792  0.00  0.00    +0.000 N 
ATOM     10  C   UNL     1       6.115   4.450  18.786  0.00  0.00    +0.000 C 
ATOM     11  C   UNL     1       7.223   5.188  18.062  0.00  0.00    +0.000 C 
ATOM     12  C   UNL     1       7.098   4.693  16.637  0.00  0.00    +0.000 C 
ATOM     13  C   UNL     1       5.624   4.399  16.500  0.00  0.00    +0.000 C 
ATOM     14  O   UNL     1       5.092   4.218  15.415  0.00  0.00    +0.000 OA
ENDBRANCH   8   9
ENDBRANCH   1   3
BRANCH   1  15
ATOM     15  C   UNL     1       2.844   7.128  18.129  0.00  0.00    +0.000 C 
BRANCH  15  19
ATOM     16  C   UNL     1       0.718   9.521  19.704  0.00  0.00    +0.000 A 
ATOM     17  N   UNL     1       0.566   9.909  18.427  0.00  0.00    +0.000 NA
ATOM     18  O   UNL     1       1.381   9.030  17.712  0.00  0.00    +0.000 OA
ATOM     19  C   UNL     1       1.939   8.198  18.631  0.00  0.00    +0.000 A 
ATOM     20  N   UNL     1       1.581   8.458  19.866  0.00  0.00    +0.000 NA
BRANCH  16  26
ATOM     21  C   UNL     1      -2.072  13.189  21.642  0.00  0.00    +0.000 C 
ATOM     22  C   UNL     1      -1.338  11.891  21.806  0.00  0.00    +0.000 A 
ATOM     23  C   UNL     1      -1.353  11.205  23.026  0.00  0.00    +0.000 A 
ATOM     24  C   UNL     1      -0.682   9.989  23.160  0.00  0.00    +0.000 A 
ATOM     25  C   UNL     1       0.002   9.448  22.072  0.00  0.00    +0.000 A 
ATOM     26  C   UNL     1       0.027  10.118  20.839  0.00  0.00    +0.000 A 
ATOM     27  C   UNL     1      -0.643  11.343  20.720  0.00  0.00    +0.000 A 
ENDBRANCH  16  26
ENDBRANCH  15  19
ENDBRANCH   1  15
TORSDOF 5
ENDMDL
MODEL 9
REMARK VINA RESULT:      -8.2      1.483      1.745
REMARK  Name = 
REMARK  6 active torsions:
REMARK  status: ('A' for Active; 'I' for Inactive)
REMARK    1  A    between atoms: C_1  and  C_2
REMARK    2  A    between atoms: C_6  and  C_7
REMARK    3  A    between atoms: C_10  and  C_11
REMARK    4  A    between atoms: C_11  and  N_12
REMARK    5  A    between atoms: N_12  and  C_13
REMARK    6  A    between atoms: C_18  and  N_19
REMARK                            x       y       z     vdW  Elec       q    Type
REMARK                         _______ _______ _______ _____ _____    ______ ____
ROOT
ATOM      1  N   UNL     1       2.848   5.910  17.685  0.00  0.00    +0.000 N 
ATOM      2  H   UNL     1       3.698   6.070  17.143  0.00  0.00    +0.000 HD
ENDROOT
BRANCH   1   3
ATOM      3  C   UNL     1       2.704   4.523  17.920  0.00  0.00    +0.000 A 
ATOM      4  C   UNL     1       1.507   4.039  18.493  0.00  0.00    +0.000 A 
ATOM      5  C   UNL     1       1.319   2.688  18.770  0.00  0.00    +0.000 A 
ATOM      6  C   UNL     1       2.337   1.793  18.501  0.00  0.00    +0.000 A 
ATOM      7  C   UNL     1       3.560   2.260  18.015  0.00  0.00    +0.000 A 
ATOM      8  C   UNL     1       3.795   3.624  17.757  0.00  0.00    +0.000 A 
BRANCH   8   9
ATOM      9  N   UNL     1       5.100   4.034  17.329  0.00  0.00    +0.000 N 
ATOM     10  C   UNL     1       5.484   4.190  15.947  0.00  0.00    +0.000 C 
ATOM     11  C   UNL     1       6.996   4.292  15.986  0.00  0.00    +0.000 C 
ATOM     12  C   UNL     1       7.265   4.972  17.311  0.00  0.00    +0.000 C 
ATOM     13  C   UNL     1       6.115   4.513  18.175  0.00  0.00    +0.000 C 
ATOM     14  O   UNL     1       6.117   4.649  19.390  0.00  0.00    +0.000 OA
ENDBRANCH   8   9
ENDBRANCH   1   3
BRANCH   1  15
ATOM     15  C   UNL     1       2.821   6.770  18.878  0.00  0.00    +0.000 C 
BRANCH  15  19
ATOM     16  C   UNL     1       1.063   9.866  18.661  0.00  0.00    +0.000 A 
ATOM     17  N   UNL     1       1.839   9.986  17.571  0.00  0.00    +0.000 NA
ATOM     18  O   UNL     1       2.592   8.811  17.567  0.00  0.00    +0.000 OA
ATOM     19  C   UNL     1       2.190   8.099  18.654  0.00  0.00    +0.000 A 
ATOM     20  N   UNL     1       1.268   8.700  19.367  0.00  0.00    +0.000 NA
BRANCH  16  26
ATOM     21  C   UNL     1      -3.607  11.639  18.452  0.00  0.00    +0.000 C 
ATOM     22  C   UNL     1      -2.210  11.719  18.996  0.00  0.00    +0.000 A 
ATOM     23  C   UNL     1      -1.863  12.685  19.947  0.00  0.00    +0.000 A 
ATOM     24  C   UNL     1      -0.566  12.737  20.458  0.00  0.00    +0.000 A 
ATOM     25  C   UNL     1       0.390  11.818  20.026  0.00  0.00    +0.000 A 
ATOM     26  C   UNL     1       0.061  10.840  19.075  0.00  0.00    +0.000 A 
ATOM     27  C   UNL     1      -1.242  10.804  18.562  0.00  0.00    +0.000 A 
ENDBRANCH  16  26
ENDBRANCH  15  19
ENDBRANCH   1  15
TORSDOF 5
ENDMDL
