MODEL 1
REMARK VINA RESULT:      -9.4      0.000      0.000
REMARK  Name = 
REMARK  3 active torsions:
REMARK  status: ('A' for Active; 'I' for Inactive)
REMARK    1  A    between atoms: N_3  and  C_4
REMARK    2  A    between atoms: C_4  and  C_5
REMARK    3  A    between atoms: C_18  and  C_19
REMARK                            x       y       z     vdW  Elec       q    Type
REMARK                         _______ _______ _______ _____ _____    ______ ____
ROOT
ATOM      1  O   UNL     1       1.928   9.346  17.337  0.00  0.00    +0.000 OA
ATOM      2  C   UNL     1       1.995   8.824  18.455  0.00  0.00    +0.000 C 
ATOM      3  N   UNL     1       2.694   7.671  18.654  0.00  0.00    +0.000 N 
ATOM      4  N   UNL     1       1.409   9.399  19.546  0.00  0.00    +0.000 N 
ATOM      5  C   UNL     1       0.624  10.591  19.327  0.00  0.00    +0.000 C 
ATOM      6  C   UNL     1       0.528  11.316  20.670  0.00  0.00    +0.000 C 
ATOM      7  C   UNL     1       0.999  10.270  21.731  0.00  0.00    +0.000 C 
ATOM      8  C   UNL     1       0.018   9.823  22.814  0.00  0.00    +0.000 C 
ATOM      9  C   UNL     1      -0.749   8.663  22.213  0.00  0.00    +0.000 C 
ATOM     10  C   UNL     1       0.231   7.977  21.264  0.00  0.00    +0.000 C 
ATOM     11  C   UNL     1       1.351   8.988  20.944  0.00  0.00    +0.000 C 
ATOM     12  H   UNL     1       2.321   7.059  19.363  0.00  0.00    +0.000 HD
ENDROOT
BRANCH   6  13
ATOM     13  C   UNL     1      -0.805  11.981  20.956  0.00  0.00    +0.000 A 
ATOM     14  C   UNL     1      -0.957  12.895  22.009  0.00  0.00    +0.000 A 
ATOM     15  C   UNL     1      -2.050  13.751  22.065  0.00  0.00    +0.000 A 
ATOM     16  C   UNL     1      -3.054  13.653  21.113  0.00  0.00    +0.000 A 
ATOM     17  C   UNL     1      -2.992  12.656  20.140  0.00  0.00    +0.000 A 
ATOM     18  C   UNL     1      -1.874  11.821  20.059  0.00  0.00    +0.000 A 
ENDBRANCH   6  13
BRANCH   3  19
ATOM     19  C   UNL     1       3.292   7.043  17.490  0.00  0.00    +0.000 C 
BRANCH  19  20
ATOM     20  C   UNL     1       4.013   5.791  17.894  0.00  0.00    +0.000 A 
ATOM     21  C   UNL     1       5.346   5.805  18.061  0.00  0.00    +0.000 A 
ATOM     22  C   UNL     1       6.108   4.624  18.509  0.00  0.00    +0.000 A 
ATOM     23  O   UNL     1       7.319   4.668  18.629  0.00  0.00    +0.000 OA
ATOM     24  N   UNL     1       5.385   3.495  18.777  0.00  0.00    +0.000 N 
ATOM     25  C   UNL     1       3.994   3.418  18.634  0.00  0.00    +0.000 A 
ATOM     26  C   UNL     1       3.358   2.202  18.927  0.00  0.00    +0.000 A 
ATOM     27  C   UNL     1       1.977   2.098  18.789  0.00  0.00    +0.000 A 
ATOM     28  C   UNL     1       1.238   3.204  18.376  0.00  0.00    +0.000 A 
ATOM     29  C   UNL     1       1.877   4.415  18.085  0.00  0.00    +0.000 A 
ATOM     30  C   UNL     1       3.267   4.542  18.201  0.00  0.00    +0.000 A 
ATOM     31  H   UNL     1       5.913   2.697  19.087  0.00  0.00    +0.000 HD
ENDBRANCH  19  20
ENDBRANCH   3  19
TORSDOF 3
ENDMDL
MODEL 2
REMARK VINA RESULT:      -8.7      2.488      9.085
REMARK  Name = 
REMARK  3 active torsions:
REMARK  status: ('A' for Active; 'I' for Inactive)
REMARK    1  A    between atoms: N_3  and  C_4
REMARK    2  A    between atoms: C_4  and  C_5
REMARK    3  A    between atoms: C_18  and  C_19
REMARK                            x       y       z     vdW  Elec       q    Type
REMARK                         _______ _______ _______ _____ _____    ______ ____
ROOT
ATOM      1  O   UNL     1       2.472   9.995  17.677  0.00  0.00    +0.000 OA
ATOM      2  C   UNL     1       1.839   9.074  18.203  0.00  0.00    +0.000 C 
ATOM      3  N   UNL     1       0.630   9.297  18.792  0.00  0.00    +0.000 N 
ATOM      4  N   UNL     1       2.299   7.789  18.180  0.00  0.00    +0.000 N 
ATOM      5  C   UNL     1       3.602   7.561  17.602  0.00  0.00    +0.000 C 
ATOM      6  C   UNL     1       3.668   6.083  17.215  0.00  0.00    +0.000 C 
ATOM      7  C   UNL     1       2.455   5.418  17.943  0.00  0.00    +0.000 C 
ATOM      8  C   UNL     1       2.724   4.328  18.980  0.00  0.00    +0.000 C 
ATOM      9  C   UNL     1       2.934   5.060  20.291  0.00  0.00    +0.000 C 
ATOM     10  C   UNL     1       2.056   6.306  20.205  0.00  0.00    +0.000 C 
ATOM     11  C   UNL     1       1.743   6.551  18.715  0.00  0.00    +0.000 C 
ATOM     12  H   UNL     1       0.425   8.711  19.587  0.00  0.00    +0.000 HD
ENDROOT
BRANCH   6  13
ATOM     13  C   UNL     1       5.010   5.412  17.435  0.00  0.00    +0.000 A 
ATOM     14  C   UNL     1       5.537   4.506  16.502  0.00  0.00    +0.000 A 
ATOM     15  C   UNL     1       6.883   4.160  16.519  0.00  0.00    +0.000 A 
ATOM     16  C   UNL     1       7.710   4.650  17.520  0.00  0.00    +0.000 A 
ATOM     17  C   UNL     1       7.174   5.437  18.538  0.00  0.00    +0.000 A 
ATOM     18  C   UNL     1       5.829   5.818  18.499  0.00  0.00    +0.000 A 
ENDBRANCH   6  13
BRANCH   3  19
ATOM     19  C   UNL     1       0.154  10.666  18.844  0.00  0.00    +0.000 C 
BRANCH  19  20
ATOM     20  C   UNL     1      -1.232  10.753  18.276  0.00  0.00    +0.000 A 
ATOM     21  C   UNL     1      -1.543  10.081  17.154  0.00  0.00    +0.000 A 
ATOM     22  C   UNL     1      -2.900  10.080  16.574  0.00  0.00    +0.000 A 
ATOM     23  O   UNL     1      -3.140   9.477  15.545  0.00  0.00    +0.000 OA
ATOM     24  N   UNL     1      -3.855  10.786  17.251  0.00  0.00    +0.000 N 
ATOM     25  C   UNL     1      -3.598  11.496  18.430  0.00  0.00    +0.000 A 
ATOM     26  C   UNL     1      -4.655  12.195  19.033  0.00  0.00    +0.000 A 
ATOM     27  C   UNL     1      -4.426  12.913  20.203  0.00  0.00    +0.000 A 
ATOM     28  C   UNL     1      -3.154  12.920  20.772  0.00  0.00    +0.000 A 
ATOM     29  C   UNL     1      -2.104  12.221  20.167  0.00  0.00    +0.000 A 
ATOM     30  C   UNL     1      -2.304  11.504  18.981  0.00  0.00    +0.000 A 
ATOM     31  H   UNL     1      -4.778  10.774  16.850  0.00  0.00    +0.000 HD
ENDBRANCH  19  20
ENDBRANCH   3  19
TORSDOF 3
ENDMDL
MODEL 3
REMARK VINA RESULT:      -8.6      2.183      8.892
REMARK  Name = 
REMARK  3 active torsions:
REMARK  status: ('A' for Active; 'I' for Inactive)
REMARK    1  A    between atoms: N_3  and  C_4
REMARK    2  A    between atoms: C_4  and  C_5
REMARK    3  A    between atoms: C_18  and  C_19
REMARK                            x       y       z     vdW  Elec       q    Type
REMARK                         _______ _______ _______ _____ _____    ______ ____
ROOT
ATOM      1  O   UNL     1       2.359  10.235  17.738  0.00  0.00    +0.000 OA
ATOM      2  C   UNL     1       1.865   9.214  18.228  0.00  0.00    +0.000 C 
ATOM      3  N   UNL     1       0.682   9.259  18.903  0.00  0.00    +0.000 N 
ATOM      4  N   UNL     1       2.458   7.994  18.079  0.00  0.00    +0.000 N 
ATOM      5  C   UNL     1       3.737   7.955  17.410  0.00  0.00    +0.000 C 
ATOM      6  C   UNL     1       3.934   6.524  16.908  0.00  0.00    +0.000 C 
ATOM      7  C   UNL     1       2.852   5.678  17.653  0.00  0.00    +0.000 C 
ATOM      8  C   UNL     1       3.306   4.555  18.586  0.00  0.00    +0.000 C 
ATOM      9  C   UNL     1       3.523   5.213  19.934  0.00  0.00    +0.000 C 
ATOM     10  C   UNL     1       2.513   6.356  19.996  0.00  0.00    +0.000 C 
ATOM     11  C   UNL     1       2.076   6.667  18.551  0.00  0.00    +0.000 C 
ATOM     12  H   UNL     1       0.596   8.600  19.661  0.00  0.00    +0.000 HD
ENDROOT
BRANCH   6  13
ATOM     13  C   UNL     1       5.352   5.994  16.995  0.00  0.00    +0.000 A 
ATOM     14  C   UNL     1       6.232   6.418  18.003  0.00  0.00    +0.000 A 
ATOM     15  C   UNL     1       7.386   5.702  18.296  0.00  0.00    +0.000 A 
ATOM     16  C   UNL     1       7.725   4.593  17.533  0.00  0.00    +0.000 A 
ATOM     17  C   UNL     1       6.939   4.240  16.439  0.00  0.00    +0.000 A 
ATOM     18  C   UNL     1       5.756   4.935  16.167  0.00  0.00    +0.000 A 
ENDBRANCH   6  13
BRANCH   3  19
ATOM     19  C   UNL     1       0.066  10.559  19.088  0.00  0.00    +0.000 C 
BRANCH  19  20
ATOM     20  C   UNL     1      -0.410  10.708  20.503  0.00  0.00    +0.000 A 
ATOM     21  C   UNL     1       0.212  10.051  21.496  0.00  0.00    +0.000 A 
ATOM     22  C   UNL     1      -0.172  10.196  22.914  0.00  0.00    +0.000 A 
ATOM     23  O   UNL     1       0.402   9.569  23.785  0.00  0.00    +0.000 OA
ATOM     24  N   UNL     1      -1.193  11.063  23.185  0.00  0.00    +0.000 N 
ATOM     25  C   UNL     1      -1.874  11.786  22.198  0.00  0.00    +0.000 A 
ATOM     26  C   UNL     1      -2.916  12.639  22.593  0.00  0.00    +0.000 A 
ATOM     27  C   UNL     1      -3.612  13.365  21.632  0.00  0.00    +0.000 A 
ATOM     28  C   UNL     1      -3.260  13.249  20.289  0.00  0.00    +0.000 A 
ATOM     29  C   UNL     1      -2.220  12.397  19.900  0.00  0.00    +0.000 A 
ATOM     30  C   UNL     1      -1.514  11.644  20.846  0.00  0.00    +0.000 A 
ATOM     31  H   UNL     1      -1.443  11.158  24.155  0.00  0.00    +0.000 HD
ENDBRANCH  19  20
ENDBRANCH   3  19
TORSDOF 3
ENDMDL
MODEL 4
REMARK VINA RESULT:      -8.5      1.212      2.772
REMARK  Name = 
REMARK  3 active torsions:
REMARK  status: ('A' for Active; 'I' for Inactive)
REMARK    1  A    between atoms: N_3  and  C_4
REMARK    2  A    between atoms: C_4  and  C_5
REMARK    3  A    between atoms: C_18  and  C_19
REMARK                            x       y       z     vdW  Elec       q    Type
REMARK                         _______ _______ _______ _____ _____    ______ ____
ROOT
ATOM      1  O   UNL     1       1.781   8.888  17.521  0.00  0.00    +0.000 OA
ATOM      2  C   UNL     1       1.736   8.424  18.665  0.00  0.00    +0.000 C 
ATOM      3  N   UNL     1       2.170   7.159  18.930  0.00  0.00    +0.000 N 
ATOM      4  N   UNL     1       1.291   9.169  19.719  0.00  0.00    +0.000 N 
ATOM      5  C   UNL     1       0.782  10.489  19.430  0.00  0.00    +0.000 C 
ATOM      6  C   UNL     1       0.847  11.287  20.732  0.00  0.00    +0.000 C 
ATOM      7  C   UNL     1       1.084  10.222  21.851  0.00  0.00    +0.000 C 
ATOM      8  C   UNL     1       0.031  10.056  22.947  0.00  0.00    +0.000 C 
ATOM      9  C   UNL     1      -0.970   9.059  22.400  0.00  0.00    +0.000 C 
ATOM     10  C   UNL     1      -0.162   8.128  21.498  0.00  0.00    +0.000 C 
ATOM     11  C   UNL     1       1.149   8.854  21.136  0.00  0.00    +0.000 C 
ATOM     12  H   UNL     1       1.675   6.681  19.666  0.00  0.00    +0.000 HD
ENDROOT
BRANCH   6  13
ATOM     13  C   UNL     1      -0.309  12.239  20.971  0.00  0.00    +0.000 A 
ATOM     14  C   UNL     1      -1.564  12.029  20.378  0.00  0.00    +0.000 A 
ATOM     15  C   UNL     1      -2.698  12.679  20.851  0.00  0.00    +0.000 A 
ATOM     16  C   UNL     1      -2.585  13.613  21.871  0.00  0.00    +0.000 A 
ATOM     17  C   UNL     1      -1.328  13.939  22.376  0.00  0.00    +0.000 A 
ATOM     18  C   UNL     1      -0.192  13.257  21.929  0.00  0.00    +0.000 A 
ENDBRANCH   6  13
BRANCH   3  19
ATOM     19  C   UNL     1       2.615   6.356  17.806  0.00  0.00    +0.000 C 
BRANCH  19  20
ATOM     20  C   UNL     1       3.727   5.443  18.233  0.00  0.00    +0.000 A 
ATOM     21  C   UNL     1       3.447   4.224  18.724  0.00  0.00    +0.000 A 
ATOM     22  C   UNL     1       4.495   3.259  19.110  0.00  0.00    +0.000 A 
ATOM     23  O   UNL     1       4.204   2.170  19.570  0.00  0.00    +0.000 OA
ATOM     24  N   UNL     1       5.790   3.654  18.922  0.00  0.00    +0.000 N 
ATOM     25  C   UNL     1       6.147   4.906  18.406  0.00  0.00    +0.000 A 
ATOM     26  C   UNL     1       7.511   5.207  18.268  0.00  0.00    +0.000 A 
ATOM     27  C   UNL     1       7.893   6.445  17.762  0.00  0.00    +0.000 A 
ATOM     28  C   UNL     1       6.920   7.368  17.383  0.00  0.00    +0.000 A 
ATOM     29  C   UNL     1       5.562   7.062  17.521  0.00  0.00    +0.000 A 
ATOM     30  C   UNL     1       5.150   5.829  18.043  0.00  0.00    +0.000 A 
ATOM     31  H   UNL     1       6.496   2.987  19.184  0.00  0.00    +0.000 HD
ENDBRANCH  19  20
ENDBRANCH   3  19
TORSDOF 3
ENDMDL
MODEL 5
REMARK VINA RESULT:      -8.4      1.795      2.863
REMARK  Name = 
REMARK  3 active torsions:
REMARK  status: ('A' for Active; 'I' for Inactive)
REMARK    1  A    between atoms: N_3  and  C_4
REMARK    2  A    between atoms: C_4  and  C_5
REMARK    3  A    between atoms: C_18  and  C_19
REMARK                            x       y       z     vdW  Elec       q    Type
REMARK                         _______ _______ _______ _____ _____    ______ ____
ROOT
ATOM      1  O   UNL     1       2.522   7.014  17.490  0.00  0.00    +0.000 OA
ATOM      2  C   UNL     1       2.394   6.957  18.718  0.00  0.00    +0.000 C 
ATOM      3  N   UNL     1       2.822   5.871  19.421  0.00  0.00    +0.000 N 
ATOM      4  N   UNL     1       1.858   7.994  19.427  0.00  0.00    +0.000 N 
ATOM      5  C   UNL     1       1.356   9.121  18.677  0.00  0.00    +0.000 C 
ATOM      6  C   UNL     1       1.309  10.311  19.637  0.00  0.00    +0.000 C 
ATOM      7  C   UNL     1       1.472   9.690  21.063  0.00  0.00    +0.000 C 
ATOM      8  C   UNL     1       0.339   9.859  22.075  0.00  0.00    +0.000 C 
ATOM      9  C   UNL     1      -0.603   8.698  21.827  0.00  0.00    +0.000 C 
ATOM     10  C   UNL     1       0.284   7.551  21.347  0.00  0.00    +0.000 C 
ATOM     11  C   UNL     1       1.610   8.165  20.854  0.00  0.00    +0.000 C 
ATOM     12  H   UNL     1       2.277   5.648  20.240  0.00  0.00    +0.000 HD
ENDROOT
BRANCH   6  13
ATOM     13  C   UNL     1       0.125  11.242  19.462  0.00  0.00    +0.000 A 
ATOM     14  C   UNL     1      -1.067  10.806  18.863  0.00  0.00    +0.000 A 
ATOM     15  C   UNL     1      -2.247  11.526  19.007  0.00  0.00    +0.000 A 
ATOM     16  C   UNL     1      -2.240  12.738  19.683  0.00  0.00    +0.000 A 
ATOM     17  C   UNL     1      -1.039  13.256  20.162  0.00  0.00    +0.000 A 
ATOM     18  C   UNL     1       0.142  12.515  20.053  0.00  0.00    +0.000 A 
ENDBRANCH   6  13
BRANCH   3  19
ATOM     19  C   UNL     1       3.364   4.757  18.667  0.00  0.00    +0.000 C 
BRANCH  19  20
ATOM     20  C   UNL     1       4.836   4.950  18.448  0.00  0.00    +0.000 A 
ATOM     21  C   UNL     1       5.649   5.174  19.494  0.00  0.00    +0.000 A 
ATOM     22  C   UNL     1       7.111   5.317  19.352  0.00  0.00    +0.000 A 
ATOM     23  O   UNL     1       7.814   5.541  20.320  0.00  0.00    +0.000 OA
ATOM     24  N   UNL     1       7.619   5.186  18.091  0.00  0.00    +0.000 N 
ATOM     25  C   UNL     1       6.828   4.940  16.962  0.00  0.00    +0.000 A 
ATOM     26  C   UNL     1       7.459   4.835  15.713  0.00  0.00    +0.000 A 
ATOM     27  C   UNL     1       6.695   4.596  14.575  0.00  0.00    +0.000 A 
ATOM     28  C   UNL     1       5.315   4.449  14.687  0.00  0.00    +0.000 A 
ATOM     29  C   UNL     1       4.690   4.554  15.935  0.00  0.00    +0.000 A 
ATOM     30  C   UNL     1       5.434   4.810  17.093  0.00  0.00    +0.000 A 
ATOM     31  H   UNL     1       8.617   5.280  18.006  0.00  0.00    +0.000 HD
ENDBRANCH  19  20
ENDBRANCH   3  19
TORSDOF 3
ENDMDL
MODEL 6
REMARK VINA RESULT:      -8.3      1.868      2.990
REMARK  Name = 
REMARK  3 active torsions:
REMARK  status: ('A' for Active; 'I' for Inactive)
REMARK    1  A    between atoms: N_3  and  C_4
REMARK    2  A    between atoms: C_4  and  C_5
REMARK    3  A    between atoms: C_18  and  C_19
REMARK                            x       y       z     vdW  Elec       q    Type
REMARK                         _______ _______ _______ _____ _____    ______ ____
ROOT
ATOM      1  O   UNL     1       0.870   8.677  22.097  0.00  0.00    +0.000 OA
ATOM      2  C   UNL     1       0.923   9.014  20.910  0.00  0.00    +0.000 C 
ATOM      3  N   UNL     1       1.547   8.232  19.983  0.00  0.00    +0.000 N 
ATOM      4  N   UNL     1       0.325  10.158  20.466  0.00  0.00    +0.000 N 
ATOM      5  C   UNL     1      -0.290  11.011  21.455  0.00  0.00    +0.000 C 
ATOM      6  C   UNL     1      -1.301  11.892  20.719  0.00  0.00    +0.000 C 
ATOM      7  C   UNL     1      -0.953  11.731  19.204  0.00  0.00    +0.000 C 
ATOM      8  C   UNL     1      -0.516  12.964  18.413  0.00  0.00    +0.000 C 
ATOM      9  C   UNL     1       0.984  13.059  18.607  0.00  0.00    +0.000 C 
ATOM     10  C   UNL     1       1.466  11.618  18.756  0.00  0.00    +0.000 C 
ATOM     11  C   UNL     1       0.245  10.758  19.139  0.00  0.00    +0.000 C 
ATOM     12  H   UNL     1       1.993   8.733  19.230  0.00  0.00    +0.000 HD
ENDROOT
BRANCH   6  13
ATOM     13  C   UNL     1      -1.404  13.320  21.218  0.00  0.00    +0.000 A 
ATOM     14  C   UNL     1      -2.585  14.064  21.070  0.00  0.00    +0.000 A 
ATOM     15  C   UNL     1      -2.802  15.219  21.812  0.00  0.00    +0.000 A 
ATOM     16  C   UNL     1      -1.809  15.697  22.654  0.00  0.00    +0.000 A 
ATOM     17  C   UNL     1      -0.576  15.051  22.708  0.00  0.00    +0.000 A 
ATOM     18  C   UNL     1      -0.370  13.867  21.993  0.00  0.00    +0.000 A 
ENDBRANCH   6  13
BRANCH   3  19
ATOM     19  C   UNL     1       2.209   7.032  20.458  0.00  0.00    +0.000 C 
BRANCH  19  20
ATOM     20  C   UNL     1       2.637   6.185  19.296  0.00  0.00    +0.000 A 
ATOM     21  C   UNL     1       3.536   6.654  18.415  0.00  0.00    +0.000 A 
ATOM     22  C   UNL     1       4.038   5.852  17.283  0.00  0.00    +0.000 A 
ATOM     23  O   UNL     1       4.838   6.318  16.492  0.00  0.00    +0.000 OA
ATOM     24  N   UNL     1       3.560   4.576  17.177  0.00  0.00    +0.000 N 
ATOM     25  C   UNL     1       2.631   4.024  18.068  0.00  0.00    +0.000 A 
ATOM     26  C   UNL     1       2.202   2.706  17.853  0.00  0.00    +0.000 A 
ATOM     27  C   UNL     1       1.276   2.135  18.721  0.00  0.00    +0.000 A 
ATOM     28  C   UNL     1       0.796   2.872  19.801  0.00  0.00    +0.000 A 
ATOM     29  C   UNL     1       1.228   4.186  20.011  0.00  0.00    +0.000 A 
ATOM     30  C   UNL     1       2.147   4.789  19.143  0.00  0.00    +0.000 A 
ATOM     31  H   UNL     1       3.913   4.037  16.404  0.00  0.00    +0.000 HD
ENDBRANCH  19  20
ENDBRANCH   3  19
TORSDOF 3
ENDMDL
MODEL 7
REMARK VINA RESULT:      -8.3      1.536      2.334
REMARK  Name = 
REMARK  3 active torsions:
REMARK  status: ('A' for Active; 'I' for Inactive)
REMARK    1  A    between atoms: N_3  and  C_4
REMARK    2  A    between atoms: C_4  and  C_5
REMARK    3  A    between atoms: C_18  and  C_19
REMARK                            x       y       z     vdW  Elec       q    Type
REMARK                         _______ _______ _______ _____ _____    ______ ____
ROOT
ATOM      1  O   UNL     1       1.807   9.725  17.464  0.00  0.00    +0.000 OA
ATOM      2  C   UNL     1       1.893   9.121  18.538  0.00  0.00    +0.000 C 
ATOM      3  N   UNL     1       2.605   7.964  18.641  0.00  0.00    +0.000 N 
ATOM      4  N   UNL     1       1.316   9.607  19.676  0.00  0.00    +0.000 N 
ATOM      5  C   UNL     1       0.518  10.805  19.557  0.00  0.00    +0.000 C 
ATOM      6  C   UNL     1       0.433  11.425  20.952  0.00  0.00    +0.000 C 
ATOM      7  C   UNL     1       0.928  10.308  21.926  0.00  0.00    +0.000 C 
ATOM      8  C   UNL     1      -0.036   9.772  22.984  0.00  0.00    +0.000 C 
ATOM      9  C   UNL     1      -0.800   8.652  22.307  0.00  0.00    +0.000 C 
ATOM     10  C   UNL     1       0.174   8.049  21.297  0.00  0.00    +0.000 C 
ATOM     11  C   UNL     1       1.281   9.092  21.040  0.00  0.00    +0.000 C 
ATOM     12  H   UNL     1       2.246   7.297  19.306  0.00  0.00    +0.000 HD
ENDROOT
BRANCH   6  13
ATOM     13  C   UNL     1      -0.901  12.054  21.303  0.00  0.00    +0.000 A 
ATOM     14  C   UNL     1      -1.053  12.864  22.439  0.00  0.00    +0.000 A 
ATOM     15  C   UNL     1      -2.150  13.706  22.578  0.00  0.00    +0.000 A 
ATOM     16  C   UNL     1      -3.157  13.693  21.624  0.00  0.00    +0.000 A 
ATOM     17  C   UNL     1      -3.094  12.794  20.562  0.00  0.00    +0.000 A 
ATOM     18  C   UNL     1      -1.972  11.975  20.399  0.00  0.00    +0.000 A 
ENDBRANCH   6  13
BRANCH   3  19
ATOM     19  C   UNL     1       3.193   7.430  17.426  0.00  0.00    +0.000 C 
BRANCH  19  20
ATOM     20  C   UNL     1       3.726   6.050  17.674  0.00  0.00    +0.000 A 
ATOM     21  C   UNL     1       3.309   5.349  18.742  0.00  0.00    +0.000 A 
ATOM     22  C   UNL     1       3.752   3.967  19.012  0.00  0.00    +0.000 A 
ATOM     23  O   UNL     1       3.370   3.370  20.001  0.00  0.00    +0.000 OA
ATOM     24  N   UNL     1       4.604   3.409  18.101  0.00  0.00    +0.000 N 
ATOM     25  C   UNL     1       5.066   4.082  16.963  0.00  0.00    +0.000 A 
ATOM     26  C   UNL     1       5.949   3.411  16.102  0.00  0.00    +0.000 A 
ATOM     27  C   UNL     1       6.426   4.059  14.967  0.00  0.00    +0.000 A 
ATOM     28  C   UNL     1       6.013   5.360  14.688  0.00  0.00    +0.000 A 
ATOM     29  C   UNL     1       5.133   6.024  15.549  0.00  0.00    +0.000 A 
ATOM     30  C   UNL     1       4.650   5.400  16.707  0.00  0.00    +0.000 A 
ATOM     31  H   UNL     1       4.896   2.465  18.292  0.00  0.00    +0.000 HD
ENDBRANCH  19  20
ENDBRANCH   3  19
TORSDOF 3
ENDMDL
MODEL 8
REMARK VINA RESULT:      -8.1      1.769      2.598
REMARK  Name = 
REMARK  3 active torsions:
REMARK  status: ('A' for Active; 'I' for Inactive)
REMARK    1  A    between atoms: N_3  and  C_4
REMARK    2  A    between atoms: C_4  and  C_5
REMARK    3  A    between atoms: C_18  and  C_19
REMARK                            x       y       z     vdW  Elec       q    Type
REMARK                         _______ _______ _______ _____ _____    ______ ____
ROOT
ATOM      1  O   UNL     1       2.289   7.694  17.472  0.00  0.00    +0.000 OA
ATOM      2  C   UNL     1       2.210   7.399  18.669  0.00  0.00    +0.000 C 
ATOM      3  N   UNL     1       2.632   6.186  19.125  0.00  0.00    +0.000 N 
ATOM      4  N   UNL     1       1.739   8.288  19.592  0.00  0.00    +0.000 N 
ATOM      5  C   UNL     1       1.243   9.552  19.103  0.00  0.00    +0.000 C 
ATOM      6  C   UNL     1       1.275  10.530  20.278  0.00  0.00    +0.000 C 
ATOM      7  C   UNL     1       1.477   9.636  21.545  0.00  0.00    +0.000 C 
ATOM      8  C   UNL     1       0.393   9.629  22.623  0.00  0.00    +0.000 C 
ATOM      9  C   UNL     1      -0.596   8.563  22.197  0.00  0.00    +0.000 C 
ATOM     10  C   UNL     1       0.233   7.512  21.460  0.00  0.00    +0.000 C 
ATOM     11  C   UNL     1       1.556   8.180  21.035  0.00  0.00    +0.000 C 
ATOM     12  H   UNL     1       2.115   5.818  19.908  0.00  0.00    +0.000 HD
ENDROOT
BRANCH   6  13
ATOM     13  C   UNL     1       0.116  11.505  20.345  0.00  0.00    +0.000 A 
ATOM     14  C   UNL     1       0.261  12.778  20.919  0.00  0.00    +0.000 A 
ATOM     15  C   UNL     1      -0.668  13.783  20.680  0.00  0.00    +0.000 A 
ATOM     16  C   UNL     1      -1.804  13.511  19.930  0.00  0.00    +0.000 A 
ATOM     17  C   UNL     1      -2.037  12.216  19.471  0.00  0.00    +0.000 A 
ATOM     18  C   UNL     1      -1.084  11.214  19.676  0.00  0.00    +0.000 A 
ENDBRANCH   6  13
BRANCH   3  19
ATOM     19  C   UNL     1       3.105   5.230  18.141  0.00  0.00    +0.000 C 
BRANCH  19  20
ATOM     20  C   UNL     1       4.605   5.234  18.097  0.00  0.00    +0.000 A 
ATOM     21  C   UNL     1       5.311   5.403  19.228  0.00  0.00    +0.000 A 
ATOM     22  C   UNL     1       6.786   5.363  19.261  0.00  0.00    +0.000 A 
ATOM     23  O   UNL     1       7.394   5.541  20.301  0.00  0.00    +0.000 OA
ATOM     24  N   UNL     1       7.419   5.119  18.075  0.00  0.00    +0.000 N 
ATOM     25  C   UNL     1       6.741   4.923  16.865  0.00  0.00    +0.000 A 
ATOM     26  C   UNL     1       7.496   4.690  15.706  0.00  0.00    +0.000 A 
ATOM     27  C   UNL     1       6.847   4.497  14.490  0.00  0.00    +0.000 A 
ATOM     28  C   UNL     1       5.455   4.522  14.438  0.00  0.00    +0.000 A 
ATOM     29  C   UNL     1       4.707   4.754  15.597  0.00  0.00    +0.000 A 
ATOM     30  C   UNL     1       5.335   4.967  16.830  0.00  0.00    +0.000 A 
ATOM     31  H   UNL     1       8.424   5.088  18.110  0.00  0.00    +0.000 HD
ENDBRANCH  19  20
ENDBRANCH   3  19
TORSDOF 3
ENDMDL
MODEL 9
REMARK VINA RESULT:      -8.0      1.986      2.912
REMARK  Name = 
REMARK  3 active torsions:
REMARK  status: ('A' for Active; 'I' for Inactive)
REMARK    1  A    between atoms: N_3  and  C_4
REMARK    2  A    between atoms: C_4  and  C_5
REMARK    3  A    between atoms: C_18  and  C_19
REMARK                            x       y       z     vdW  Elec       q    Type
REMARK                         _______ _______ _______ _____ _____    ______ ____
ROOT
ATOM      1  O   UNL     1      -0.006   9.825  17.502  0.00  0.00    +0.000 OA
ATOM      2  C   UNL     1       0.492   9.885  18.632  0.00  0.00    +0.000 C 
ATOM      3  N   UNL     1       1.612   9.173  18.946  0.00  0.00    +0.000 N 
ATOM      4  N   UNL     1      -0.029  10.696  19.599  0.00  0.00    +0.000 N 
ATOM      5  C   UNL     1      -1.244  11.408  19.282  0.00  0.00    +0.000 C 
ATOM      6  C   UNL     1      -1.332  12.591  20.248  0.00  0.00    +0.000 C 
ATOM      7  C   UNL     1      -0.278  12.286  21.361  0.00  0.00    +0.000 C 
ATOM      8  C   UNL     1      -0.756  12.111  22.802  0.00  0.00    +0.000 C 
ATOM      9  C   UNL     1      -1.116  10.644  22.934  0.00  0.00    +0.000 C 
ATOM     10  C   UNL     1      -0.168   9.908  21.990  0.00  0.00    +0.000 C 
ATOM     11  C   UNL     1       0.373  10.939  20.979  0.00  0.00    +0.000 C 
ATOM     12  H   UNL     1       1.665   8.857  19.902  0.00  0.00    +0.000 HD
ENDROOT
BRANCH   6  13
ATOM     13  C   UNL     1      -2.727  12.924  20.743  0.00  0.00    +0.000 A 
ATOM     14  C   UNL     1      -2.952  13.973  21.646  0.00  0.00    +0.000 A 
ATOM     15  C   UNL     1      -4.226  14.499  21.832  0.00  0.00    +0.000 A 
ATOM     16  C   UNL     1      -5.310  13.930  21.180  0.00  0.00    +0.000 A 
ATOM     17  C   UNL     1      -5.127  12.798  20.389  0.00  0.00    +0.000 A 
ATOM     18  C   UNL     1      -3.842  12.293  20.169  0.00  0.00    +0.000 A 
ENDBRANCH   6  13
BRANCH   3  19
ATOM     19  C   UNL     1       2.149   8.288  17.929  0.00  0.00    +0.000 C 
BRANCH  19  20
ATOM     20  C   UNL     1       2.713   7.053  18.567  0.00  0.00    +0.000 A 
ATOM     21  C   UNL     1       2.125   6.528  19.654  0.00  0.00    +0.000 A 
ATOM     22  C   UNL     1       2.598   5.285  20.296  0.00  0.00    +0.000 A 
ATOM     23  O   UNL     1       2.052   4.850  21.293  0.00  0.00    +0.000 OA
ATOM     24  N   UNL     1       3.666   4.663  19.713  0.00  0.00    +0.000 N 
ATOM     25  C   UNL     1       4.315   5.153  18.573  0.00  0.00    +0.000 A 
ATOM     26  C   UNL     1       5.410   4.436  18.068  0.00  0.00    +0.000 A 
ATOM     27  C   UNL     1       6.076   4.903  16.939  0.00  0.00    +0.000 A 
ATOM     28  C   UNL     1       5.641   6.069  16.313  0.00  0.00    +0.000 A 
ATOM     29  C   UNL     1       4.548   6.780  16.820  0.00  0.00    +0.000 A 
ATOM     30  C   UNL     1       3.871   6.340  17.964  0.00  0.00    +0.000 A 
ATOM     31  H   UNL     1       3.976   3.815  20.155  0.00  0.00    +0.000 HD
ENDBRANCH  19  20
ENDBRANCH   3  19
TORSDOF 3
ENDMDL
