MODEL 1
REMARK VINA RESULT:      -8.5      0.000      0.000
REMARK  Name = 
REMARK  6 active torsions:
REMARK  status: ('A' for Active; 'I' for Inactive)
REMARK    1  A    between atoms: C_1  and  C_2
REMARK    2  A    between atoms: C_2  and  C_3
REMARK    3  A    between atoms: C_2  and  C_4
REMARK    4  A    between atoms: C_2  and  C_5
REMARK    5  A    between atoms: C_8  and  C_9
REMARK    6  A    between atoms: C_14  and  C_15
REMARK                            x       y       z     vdW  Elec       q    Type
REMARK                         _______ _______ _______ _____ _____    ______ ____
ROOT
ATOM      1  C   UNL     1       3.349   3.860  19.846  0.00  0.00    +0.000 A 
ATOM      2  C   UNL     1       3.548   2.956  20.909  0.00  0.00    +0.000 A 
ATOM      3  C   UNL     1       2.475   2.457  21.651  0.00  0.00    +0.000 A 
ATOM      4  C   UNL     1       1.176   2.824  21.318  0.00  0.00    +0.000 A 
ATOM      5  C   UNL     1       0.956   3.702  20.259  0.00  0.00    +0.000 A 
ATOM      6  C   UNL     1       2.035   4.259  19.553  0.00  0.00    +0.000 A 
ENDROOT
BRANCH   6   7
ATOM      7  C   UNL     1       1.728   5.199  18.448  0.00  0.00    +0.000 C 
ATOM      8  O   UNL     1       1.526   4.723  17.336  0.00  0.00    +0.000 OA
ATOM      9  N   UNL     1       1.674   6.567  18.726  0.00  0.00    +0.000 N 
ATOM     10  C   UNL     1       1.370   7.492  17.615  0.00  0.00    +0.000 C 
ATOM     11  C   UNL     1       2.103   8.833  17.764  0.00  0.00    +0.000 C 
ATOM     12  C   UNL     1       1.642   9.430  19.066  0.00  0.00    +0.000 A 
ATOM     13  C   UNL     1       1.162  10.730  19.191  0.00  0.00    +0.000 A 
ATOM     14  F   UNL     1       1.174  11.553  18.134  0.00  0.00    +0.000 F 
ATOM     15  C   UNL     1       0.614  11.170  20.392  0.00  0.00    +0.000 A 
ATOM     16  C   UNL     1       0.563  10.311  21.492  0.00  0.00    +0.000 A 
ATOM     17  C   UNL     1       1.070   9.019  21.379  0.00  0.00    +0.000 A 
ATOM     18  F   UNL     1       1.003   8.197  22.436  0.00  0.00    +0.000 F 
ATOM     19  C   UNL     1       1.604   8.565  20.177  0.00  0.00    +0.000 A 
ATOM     20  C   UNL     1       2.115   7.165  19.999  0.00  0.00    +0.000 C 
ENDBRANCH   6   7
BRANCH   1  24
ATOM     21  C   UNL     1       5.902   5.052  17.728  0.00  0.00    +0.000 A 
ATOM     22  N   UNL     1       6.675   4.374  18.597  0.00  0.00    +0.000 NA
ATOM     23  O   UNL     1       5.749   3.856  19.508  0.00  0.00    +0.000 OA
ATOM     24  C   UNL     1       4.521   4.280  19.099  0.00  0.00    +0.000 A 
ATOM     25  N   UNL     1       4.560   4.975  17.979  0.00  0.00    +0.000 NA
BRANCH  21  27
ATOM     26  C   UNL     1       7.450   6.900  17.079  0.00  0.00    +0.000 C 
ATOM     27  C   UNL     1       6.460   5.839  16.571  0.00  0.00    +0.000 C 
ATOM     28  C   UNL     1       5.316   6.525  15.802  0.00  0.00    +0.000 C 
ATOM     29  C   UNL     1       7.208   4.907  15.591  0.00  0.00    +0.000 C 
ENDBRANCH  21  27
ENDBRANCH   1  24
TORSDOF 3
ENDMDL
MODEL 2
REMARK VINA RESULT:      -8.0      5.387      9.367
REMARK  Name = 
REMARK  6 active torsions:
REMARK  status: ('A' for Active; 'I' for Inactive)
REMARK    1  A    between atoms: C_1  and  C_2
REMARK    2  A    between atoms: C_2  and  C_3
REMARK    3  A    between atoms: C_2  and  C_4
REMARK    4  A    between atoms: C_2  and  C_5
REMARK    5  A    between atoms: C_8  and  C_9
REMARK    6  A    between atoms: C_14  and  C_15
REMARK                            x       y       z     vdW  Elec       q    Type
REMARK                         _______ _______ _______ _____ _____    ______ ____
ROOT
ATOM      1  C   UNL     1      -2.283  13.792  21.270  0.00  0.00    +0.000 A 
ATOM      2  C   UNL     1      -2.271  15.184  21.046  0.00  0.00    +0.000 A 
ATOM      3  C   UNL     1      -1.608  16.055  21.914  0.00  0.00    +0.000 A 
ATOM      4  C   UNL     1      -0.911  15.547  23.004  0.00  0.00    +0.000 A 
ATOM      5  C   UNL     1      -0.895  14.172  23.233  0.00  0.00    +0.000 A 
ATOM      6  C   UNL     1      -1.616  13.298  22.402  0.00  0.00    +0.000 A 
ENDROOT
BRANCH   6   7
ATOM      7  C   UNL     1      -1.566  11.849  22.715  0.00  0.00    +0.000 C 
ATOM      8  O   UNL     1      -2.327  11.427  23.580  0.00  0.00    +0.000 OA
ATOM      9  N   UNL     1      -0.672  11.041  22.009  0.00  0.00    +0.000 N 
ATOM     10  C   UNL     1      -0.631   9.600  22.332  0.00  0.00    +0.000 C 
ATOM     11  C   UNL     1       0.782   9.017  22.189  0.00  0.00    +0.000 C 
ATOM     12  C   UNL     1       1.190   9.230  20.756  0.00  0.00    +0.000 A 
ATOM     13  C   UNL     1       1.688   8.221  19.938  0.00  0.00    +0.000 A 
ATOM     14  F   UNL     1       1.911   6.999  20.441  0.00  0.00    +0.000 F 
ATOM     15  C   UNL     1       1.906   8.450  18.584  0.00  0.00    +0.000 A 
ATOM     16  C   UNL     1       1.644   9.709  18.038  0.00  0.00    +0.000 A 
ATOM     17  C   UNL     1       1.173  10.730  18.860  0.00  0.00    +0.000 A 
ATOM     18  F   UNL     1       0.912  11.931  18.325  0.00  0.00    +0.000 F 
ATOM     19  C   UNL     1       0.938  10.504  20.213  0.00  0.00    +0.000 A 
ATOM     20  C   UNL     1       0.384  11.562  21.123  0.00  0.00    +0.000 C 
ENDBRANCH   6   7
BRANCH   1  24
ATOM     21  C   UNL     1      -3.508  11.769  18.657  0.00  0.00    +0.000 A 
ATOM     22  N   UNL     1      -4.675  11.992  19.290  0.00  0.00    +0.000 NA
ATOM     23  O   UNL     1      -4.301  12.793  20.373  0.00  0.00    +0.000 OA
ATOM     24  C   UNL     1      -2.952  12.963  20.284  0.00  0.00    +0.000 A 
ATOM     25  N   UNL     1      -2.428  12.395  19.215  0.00  0.00    +0.000 NA
BRANCH  21  27
ATOM     26  C   UNL     1      -4.487  11.257  16.418  0.00  0.00    +0.000 C 
ATOM     27  C   UNL     1      -3.389  10.899  17.433  0.00  0.00    +0.000 C 
ATOM     28  C   UNL     1      -3.515   9.416  17.829  0.00  0.00    +0.000 C 
ATOM     29  C   UNL     1      -2.017  11.100  16.754  0.00  0.00    +0.000 C 
ENDBRANCH  21  27
ENDBRANCH   1  24
TORSDOF 3
ENDMDL
MODEL 3
REMARK VINA RESULT:      -7.7      0.889      1.290
REMARK  Name = 
REMARK  6 active torsions:
REMARK  status: ('A' for Active; 'I' for Inactive)
REMARK    1  A    between atoms: C_1  and  C_2
REMARK    2  A    between atoms: C_2  and  C_3
REMARK    3  A    between atoms: C_2  and  C_4
REMARK    4  A    between atoms: C_2  and  C_5
REMARK    5  A    between atoms: C_8  and  C_9
REMARK    6  A    between atoms: C_14  and  C_15
REMARK                            x       y       z     vdW  Elec       q    Type
REMARK                         _______ _______ _______ _____ _____    ______ ____
ROOT
ATOM      1  C   UNL     1       3.173   3.574  19.547  0.00  0.00    +0.000 A 
ATOM      2  C   UNL     1       3.437   2.677  20.602  0.00  0.00    +0.000 A 
ATOM      3  C   UNL     1       2.473   2.387  21.569  0.00  0.00    +0.000 A 
ATOM      4  C   UNL     1       1.210   2.959  21.479  0.00  0.00    +0.000 A 
ATOM      5  C   UNL     1       0.921   3.834  20.434  0.00  0.00    +0.000 A 
ATOM      6  C   UNL     1       1.909   4.183  19.496  0.00  0.00    +0.000 A 
ENDROOT
BRANCH   6   7
ATOM      7  C   UNL     1       1.536   5.132  18.420  0.00  0.00    +0.000 C 
ATOM      8  O   UNL     1       1.235   4.664  17.327  0.00  0.00    +0.000 OA
ATOM      9  N   UNL     1       1.538   6.500  18.703  0.00  0.00    +0.000 N 
ATOM     10  C   UNL     1       1.168   7.435  17.620  0.00  0.00    +0.000 C 
ATOM     11  C   UNL     1       1.942   8.758  17.711  0.00  0.00    +0.000 C 
ATOM     12  C   UNL     1       1.601   9.363  19.046  0.00  0.00    +0.000 A 
ATOM     13  C   UNL     1       1.163  10.673  19.211  0.00  0.00    +0.000 A 
ATOM     14  F   UNL     1       1.110  11.499  18.157  0.00  0.00    +0.000 F 
ATOM     15  C   UNL     1       0.725  11.123  20.451  0.00  0.00    +0.000 A 
ATOM     16  C   UNL     1       0.740  10.263  21.552  0.00  0.00    +0.000 A 
ATOM     17  C   UNL     1       1.206   8.959  21.397  0.00  0.00    +0.000 A 
ATOM     18  F   UNL     1       1.204   8.136  22.456  0.00  0.00    +0.000 F 
ATOM     19  C   UNL     1       1.632   8.496  20.156  0.00  0.00    +0.000 A 
ATOM     20  C   UNL     1       2.093   7.084  19.936  0.00  0.00    +0.000 C 
ENDBRANCH   6   7
BRANCH   1  24
ATOM     21  C   UNL     1       5.861   4.387  17.417  0.00  0.00    +0.000 A 
ATOM     22  N   UNL     1       5.250   3.491  16.620  0.00  0.00    +0.000 NA
ATOM     23  O   UNL     1       4.151   3.085  17.384  0.00  0.00    +0.000 OA
ATOM     24  C   UNL     1       4.219   3.771  18.560  0.00  0.00    +0.000 A 
ATOM     25  N   UNL     1       5.225   4.623  18.604  0.00  0.00    +0.000 NA
BRANCH  21  27
ATOM     26  C   UNL     1       7.460   4.847  15.556  0.00  0.00    +0.000 C 
ATOM     27  C   UNL     1       7.146   5.079  17.043  0.00  0.00    +0.000 C 
ATOM     28  C   UNL     1       8.303   4.542  17.906  0.00  0.00    +0.000 C 
ATOM     29  C   UNL     1       7.034   6.601  17.283  0.00  0.00    +0.000 C 
ENDBRANCH  21  27
ENDBRANCH   1  24
TORSDOF 3
ENDMDL
MODEL 4
REMARK VINA RESULT:      -7.7      6.259     10.697
REMARK  Name = 
REMARK  6 active torsions:
REMARK  status: ('A' for Active; 'I' for Inactive)
REMARK    1  A    between atoms: C_1  and  C_2
REMARK    2  A    between atoms: C_2  and  C_3
REMARK    3  A    between atoms: C_2  and  C_4
REMARK    4  A    between atoms: C_2  and  C_5
REMARK    5  A    between atoms: C_8  and  C_9
REMARK    6  A    between atoms: C_14  and  C_15
REMARK                            x       y       z     vdW  Elec       q    Type
REMARK                         _______ _______ _______ _____ _____    ______ ____
ROOT
ATOM      1  C   UNL     1      -3.996  14.080  22.048  0.00  0.00    +0.000 A 
ATOM      2  C   UNL     1      -4.189  15.442  21.740  0.00  0.00    +0.000 A 
ATOM      3  C   UNL     1      -3.396  16.437  22.314  0.00  0.00    +0.000 A 
ATOM      4  C   UNL     1      -2.367  16.086  23.180  0.00  0.00    +0.000 A 
ATOM      5  C   UNL     1      -2.147  14.744  23.484  0.00  0.00    +0.000 A 
ATOM      6  C   UNL     1      -2.984  13.744  22.962  0.00  0.00    +0.000 A 
ENDROOT
BRANCH   6   7
ATOM      7  C   UNL     1      -2.701  12.338  23.340  0.00  0.00    +0.000 C 
ATOM      8  O   UNL     1      -3.373  11.844  24.240  0.00  0.00    +0.000 OA
ATOM      9  N   UNL     1      -1.700  11.648  22.652  0.00  0.00    +0.000 N 
ATOM     10  C   UNL     1      -1.427  10.249  23.041  0.00  0.00    +0.000 C 
ATOM     11  C   UNL     1       0.059   9.890  22.894  0.00  0.00    +0.000 C 
ATOM     12  C   UNL     1       0.407  10.094  21.444  0.00  0.00    +0.000 A 
ATOM     13  C   UNL     1       1.047   9.138  20.662  0.00  0.00    +0.000 A 
ATOM     14  F   UNL     1       1.468   7.993  21.215  0.00  0.00    +0.000 F 
ATOM     15  C   UNL     1       1.206   9.332  19.294  0.00  0.00    +0.000 A 
ATOM     16  C   UNL     1       0.740  10.506  18.697  0.00  0.00    +0.000 A 
ATOM     17  C   UNL     1       0.125  11.479  19.481  0.00  0.00    +0.000 A 
ATOM     18  F   UNL     1      -0.331  12.596  18.897  0.00  0.00    +0.000 F 
ATOM     19  C   UNL     1      -0.052  11.285  20.848  0.00  0.00    +0.000 A 
ATOM     20  C   UNL     1      -0.754  12.285  21.720  0.00  0.00    +0.000 C 
ENDBRANCH   6   7
BRANCH   1  24
ATOM     21  C   UNL     1      -5.839  11.888  19.992  0.00  0.00    +0.000 A 
ATOM     22  N   UNL     1      -6.455  11.620  21.159  0.00  0.00    +0.000 NA
ATOM     23  O   UNL     1      -5.784  12.444  22.068  0.00  0.00    +0.000 OA
ATOM     24  C   UNL     1      -4.833  13.114  21.359  0.00  0.00    +0.000 A 
ATOM     25  N   UNL     1      -4.865  12.844  20.068  0.00  0.00    +0.000 NA
BRANCH  21  27
ATOM     26  C   UNL     1      -6.878   9.852  18.988  0.00  0.00    +0.000 C 
ATOM     27  C   UNL     1      -6.186  11.195  18.701  0.00  0.00    +0.000 C 
ATOM     28  C   UNL     1      -4.909  10.952  17.875  0.00  0.00    +0.000 C 
ATOM     29  C   UNL     1      -7.145  12.064  17.858  0.00  0.00    +0.000 C 
ENDBRANCH  21  27
ENDBRANCH   1  24
TORSDOF 3
ENDMDL
MODEL 5
REMARK VINA RESULT:      -7.6      5.596     10.141
REMARK  Name = 
REMARK  6 active torsions:
REMARK  status: ('A' for Active; 'I' for Inactive)
REMARK    1  A    between atoms: C_1  and  C_2
REMARK    2  A    between atoms: C_2  and  C_3
REMARK    3  A    between atoms: C_2  and  C_4
REMARK    4  A    between atoms: C_2  and  C_5
REMARK    5  A    between atoms: C_8  and  C_9
REMARK    6  A    between atoms: C_14  and  C_15
REMARK                            x       y       z     vdW  Elec       q    Type
REMARK                         _______ _______ _______ _____ _____    ______ ____
ROOT
ATOM      1  C   UNL     1      -2.982  13.869  21.812  0.00  0.00    +0.000 A 
ATOM      2  C   UNL     1      -3.013  15.260  21.585  0.00  0.00    +0.000 A 
ATOM      3  C   UNL     1      -2.070  16.113  22.160  0.00  0.00    +0.000 A 
ATOM      4  C   UNL     1      -1.049  15.586  22.944  0.00  0.00    +0.000 A 
ATOM      5  C   UNL     1      -0.988  14.212  23.166  0.00  0.00    +0.000 A 
ATOM      6  C   UNL     1      -1.975  13.357  22.646  0.00  0.00    +0.000 A 
ENDROOT
BRANCH   6   7
ATOM      7  C   UNL     1      -1.855  11.907  22.936  0.00  0.00    +0.000 C 
ATOM      8  O   UNL     1      -2.590  11.436  23.798  0.00  0.00    +0.000 OA
ATOM      9  N   UNL     1      -0.928  11.154  22.212  0.00  0.00    +0.000 N 
ATOM     10  C   UNL     1      -0.818   9.711  22.512  0.00  0.00    +0.000 C 
ATOM     11  C   UNL     1       0.620   9.197  22.352  0.00  0.00    +0.000 C 
ATOM     12  C   UNL     1       1.008   9.451  20.921  0.00  0.00    +0.000 A 
ATOM     13  C   UNL     1       1.548   8.480  20.084  0.00  0.00    +0.000 A 
ATOM     14  F   UNL     1       1.832   7.262  20.566  0.00  0.00    +0.000 F 
ATOM     15  C   UNL     1       1.747   8.741  18.732  0.00  0.00    +0.000 A 
ATOM     16  C   UNL     1       1.423   9.994  18.208  0.00  0.00    +0.000 A 
ATOM     17  C   UNL     1       0.910  10.979  19.049  0.00  0.00    +0.000 A 
ATOM     18  F   UNL     1       0.589  12.174  18.534  0.00  0.00    +0.000 F 
ATOM     19  C   UNL     1       0.693  10.721  20.399  0.00  0.00    +0.000 A 
ATOM     20  C   UNL     1       0.096  11.738  21.328  0.00  0.00    +0.000 C 
ENDBRANCH   6   7
BRANCH   1  24
ATOM     21  C   UNL     1      -5.176  12.020  19.766  0.00  0.00    +0.000 A 
ATOM     22  N   UNL     1      -5.819  11.852  20.936  0.00  0.00    +0.000 NA
ATOM     23  O   UNL     1      -5.015  12.550  21.843  0.00  0.00    +0.000 OA
ATOM     24  C   UNL     1      -3.972  13.057  21.128  0.00  0.00    +0.000 A 
ATOM     25  N   UNL     1      -4.057  12.802  19.837  0.00  0.00    +0.000 NA
BRANCH  21  27
ATOM     26  C   UNL     1      -4.498  10.605  17.823  0.00  0.00    +0.000 C 
ATOM     27  C   UNL     1      -5.643  11.399  18.475  0.00  0.00    +0.000 C 
ATOM     28  C   UNL     1      -6.127  12.496  17.509  0.00  0.00    +0.000 C 
ATOM     29  C   UNL     1      -6.819  10.431  18.732  0.00  0.00    +0.000 C 
ENDBRANCH  21  27
ENDBRANCH   1  24
TORSDOF 3
ENDMDL
MODEL 6
REMARK VINA RESULT:      -7.6      6.867      9.370
REMARK  Name = 
REMARK  6 active torsions:
REMARK  status: ('A' for Active; 'I' for Inactive)
REMARK    1  A    between atoms: C_1  and  C_2
REMARK    2  A    between atoms: C_2  and  C_3
REMARK    3  A    between atoms: C_2  and  C_4
REMARK    4  A    between atoms: C_2  and  C_5
REMARK    5  A    between atoms: C_8  and  C_9
REMARK    6  A    between atoms: C_14  and  C_15
REMARK                            x       y       z     vdW  Elec       q    Type
REMARK                         _______ _______ _______ _____ _____    ______ ____
ROOT
ATOM      1  C   UNL     1      -0.984  14.262  22.616  0.00  0.00    +0.000 A 
ATOM      2  C   UNL     1      -1.655  15.293  23.304  0.00  0.00    +0.000 A 
ATOM      3  C   UNL     1      -2.777  15.031  24.093  0.00  0.00    +0.000 A 
ATOM      4  C   UNL     1      -3.227  13.725  24.243  0.00  0.00    +0.000 A 
ATOM      5  C   UNL     1      -2.566  12.688  23.587  0.00  0.00    +0.000 A 
ATOM      6  C   UNL     1      -1.479  12.954  22.737  0.00  0.00    +0.000 A 
ENDROOT
BRANCH   6   7
ATOM      7  C   UNL     1      -0.834  11.803  22.059  0.00  0.00    +0.000 C 
ATOM      8  O   UNL     1       0.008  11.171  22.688  0.00  0.00    +0.000 OA
ATOM      9  N   UNL     1      -1.220  11.494  20.752  0.00  0.00    +0.000 N 
ATOM     10  C   UNL     1      -0.566  10.347  20.087  0.00  0.00    +0.000 C 
ATOM     11  C   UNL     1      -0.398  10.575  18.578  0.00  0.00    +0.000 C 
ATOM     12  C   UNL     1      -1.782  10.769  18.018  0.00  0.00    +0.000 A 
ATOM     13  C   UNL     1      -2.276  10.068  16.924  0.00  0.00    +0.000 A 
ATOM     14  F   UNL     1      -1.479   9.226  16.252  0.00  0.00    +0.000 F 
ATOM     15  C   UNL     1      -3.611  10.188  16.549  0.00  0.00    +0.000 A 
ATOM     16  C   UNL     1      -4.462  11.035  17.262  0.00  0.00    +0.000 A 
ATOM     17  C   UNL     1      -3.963  11.762  18.341  0.00  0.00    +0.000 A 
ATOM     18  F   UNL     1      -4.791  12.562  19.028  0.00  0.00    +0.000 F 
ATOM     19  C   UNL     1      -2.633  11.635  18.731  0.00  0.00    +0.000 A 
ATOM     20  C   UNL     1      -2.069  12.361  19.918  0.00  0.00    +0.000 C 
ENDBRANCH   6   7
BRANCH   1  24
ATOM     21  C   UNL     1       1.617  15.246  20.450  0.00  0.00    +0.000 A 
ATOM     22  N   UNL     1       2.375  14.756  21.449  0.00  0.00    +0.000 NA
ATOM     23  O   UNL     1       1.428  14.337  22.389  0.00  0.00    +0.000 OA
ATOM     24  C   UNL     1       0.204  14.624  21.864  0.00  0.00    +0.000 A 
ATOM     25  N   UNL     1       0.269  15.135  20.650  0.00  0.00    +0.000 NA
BRANCH  21  27
ATOM     26  C   UNL     1       1.120  16.678  18.466  0.00  0.00    +0.000 C 
ATOM     27  C   UNL     1       2.198  15.870  19.208  0.00  0.00    +0.000 C 
ATOM     28  C   UNL     1       2.753  14.774  18.280  0.00  0.00    +0.000 C 
ATOM     29  C   UNL     1       3.356  16.825  19.571  0.00  0.00    +0.000 C 
ENDBRANCH  21  27
ENDBRANCH   1  24
TORSDOF 3
ENDMDL
MODEL 7
REMARK VINA RESULT:      -7.5      5.782     10.542
REMARK  Name = 
REMARK  6 active torsions:
REMARK  status: ('A' for Active; 'I' for Inactive)
REMARK    1  A    between atoms: C_1  and  C_2
REMARK    2  A    between atoms: C_2  and  C_3
REMARK    3  A    between atoms: C_2  and  C_4
REMARK    4  A    between atoms: C_2  and  C_5
REMARK    5  A    between atoms: C_8  and  C_9
REMARK    6  A    between atoms: C_14  and  C_15
REMARK                            x       y       z     vdW  Elec       q    Type
REMARK                         _______ _______ _______ _____ _____    ______ ____
ROOT
ATOM      1  C   UNL     1      -2.984  14.228  21.594  0.00  0.00    +0.000 A 
ATOM      2  C   UNL     1      -2.964  15.604  21.287  0.00  0.00    +0.000 A 
ATOM      3  C   UNL     1      -2.146  16.494  21.986  0.00  0.00    +0.000 A 
ATOM      4  C   UNL     1      -1.300  16.019  22.981  0.00  0.00    +0.000 A 
ATOM      5  C   UNL     1      -1.290  14.660  23.288  0.00  0.00    +0.000 A 
ATOM      6  C   UNL     1      -2.160  13.770  22.636  0.00  0.00    +0.000 A 
ENDROOT
BRANCH   6   7
ATOM      7  C   UNL     1      -2.106  12.340  23.024  0.00  0.00    +0.000 C 
ATOM      8  O   UNL     1      -2.895  11.952  23.879  0.00  0.00    +0.000 OA
ATOM      9  N   UNL     1      -1.175  11.510  22.396  0.00  0.00    +0.000 N 
ATOM     10  C   UNL     1      -1.130  10.088  22.794  0.00  0.00    +0.000 C 
ATOM     11  C   UNL     1       0.295   9.518  22.737  0.00  0.00    +0.000 C 
ATOM     12  C   UNL     1       0.756   9.663  21.312  0.00  0.00    +0.000 A 
ATOM     13  C   UNL     1       1.299   8.621  20.567  0.00  0.00    +0.000 A 
ATOM     14  F   UNL     1       1.516   7.430  21.140  0.00  0.00    +0.000 F 
ATOM     15  C   UNL     1       1.568   8.784  19.212  0.00  0.00    +0.000 A 
ATOM     16  C   UNL     1       1.313  10.010  18.592  0.00  0.00    +0.000 A 
ATOM     17  C   UNL     1       0.798  11.065  19.342  0.00  0.00    +0.000 A 
ATOM     18  F   UNL     1       0.544  12.233  18.736  0.00  0.00    +0.000 F 
ATOM     19  C   UNL     1       0.511  10.905  20.695  0.00  0.00    +0.000 A 
ATOM     20  C   UNL     1      -0.091  12.000  21.526  0.00  0.00    +0.000 C 
ENDBRANCH   6   7
BRANCH   1  24
ATOM     21  C   UNL     1      -5.358  12.238  19.913  0.00  0.00    +0.000 A 
ATOM     22  N   UNL     1      -4.280  11.917  19.173  0.00  0.00    +0.000 NA
ATOM     23  O   UNL     1      -3.258  12.673  19.756  0.00  0.00    +0.000 OA
ATOM     24  C   UNL     1      -3.826  13.373  20.778  0.00  0.00    +0.000 A 
ATOM     25  N   UNL     1      -5.105  13.097  20.946  0.00  0.00    +0.000 NA
BRANCH  21  27
ATOM     26  C   UNL     1      -7.529  12.696  18.768  0.00  0.00    +0.000 C 
ATOM     27  C   UNL     1      -6.737  11.701  19.633  0.00  0.00    +0.000 C 
ATOM     28  C   UNL     1      -7.485  11.459  20.958  0.00  0.00    +0.000 C 
ATOM     29  C   UNL     1      -6.654  10.358  18.875  0.00  0.00    +0.000 C 
ENDBRANCH  21  27
ENDBRANCH   1  24
TORSDOF 3
ENDMDL
MODEL 8
REMARK VINA RESULT:      -7.5      7.051      9.704
REMARK  Name = 
REMARK  6 active torsions:
REMARK  status: ('A' for Active; 'I' for Inactive)
REMARK    1  A    between atoms: C_1  and  C_2
REMARK    2  A    between atoms: C_2  and  C_3
REMARK    3  A    between atoms: C_2  and  C_4
REMARK    4  A    between atoms: C_2  and  C_5
REMARK    5  A    between atoms: C_8  and  C_9
REMARK    6  A    between atoms: C_14  and  C_15
REMARK                            x       y       z     vdW  Elec       q    Type
REMARK                         _______ _______ _______ _____ _____    ______ ____
ROOT
ATOM      1  C   UNL     1      -1.733  14.488  22.928  0.00  0.00    +0.000 A 
ATOM      2  C   UNL     1      -2.591  15.465  23.472  0.00  0.00    +0.000 A 
ATOM      3  C   UNL     1      -3.802  15.118  24.072  0.00  0.00    +0.000 A 
ATOM      4  C   UNL     1      -4.164  13.779  24.175  0.00  0.00    +0.000 A 
ATOM      5  C   UNL     1      -3.322  12.795  23.660  0.00  0.00    +0.000 A 
ATOM      6  C   UNL     1      -2.135  13.143  22.995  0.00  0.00    +0.000 A 
ENDROOT
BRANCH   6   7
ATOM      7  C   UNL     1      -1.295  12.045  22.458  0.00  0.00    +0.000 C 
ATOM      8  O   UNL     1      -0.492  11.518  23.220  0.00  0.00    +0.000 OA
ATOM      9  N   UNL     1      -1.466  11.661  21.126  0.00  0.00    +0.000 N 
ATOM     10  C   UNL     1      -0.621  10.568  20.603  0.00  0.00    +0.000 C 
ATOM     11  C   UNL     1      -0.269  10.769  19.122  0.00  0.00    +0.000 C 
ATOM     12  C   UNL     1      -1.574  10.807  18.374  0.00  0.00    +0.000 A 
ATOM     13  C   UNL     1      -1.843  10.029  17.252  0.00  0.00    +0.000 A 
ATOM     14  F   UNL     1      -0.885   9.253  16.729  0.00  0.00    +0.000 F 
ATOM     15  C   UNL     1      -3.118  10.004  16.697  0.00  0.00    +0.000 A 
ATOM     16  C   UNL     1      -4.137  10.781  17.253  0.00  0.00    +0.000 A 
ATOM     17  C   UNL     1      -3.863  11.585  18.358  0.00  0.00    +0.000 A 
ATOM     18  F   UNL     1      -4.851  12.317  18.893  0.00  0.00    +0.000 F 
ATOM     19  C   UNL     1      -2.594  11.603  18.929  0.00  0.00    +0.000 A 
ATOM     20  C   UNL     1      -2.271  12.416  20.149  0.00  0.00    +0.000 C 
ENDBRANCH   6   7
BRANCH   1  24
ATOM     21  C   UNL     1       1.150  15.505  21.174  0.00  0.00    +0.000 A 
ATOM     22  N   UNL     1       1.655  15.559  22.421  0.00  0.00    +0.000 NA
ATOM     23  O   UNL     1       0.572  15.177  23.219  0.00  0.00    +0.000 OA
ATOM     24  C   UNL     1      -0.470  14.940  22.374  0.00  0.00    +0.000 A 
ATOM     25  N   UNL     1      -0.147  15.077  21.102  0.00  0.00    +0.000 NA
BRANCH  21  27
ATOM     26  C   UNL     1       2.795  17.130  20.234  0.00  0.00    +0.000 C 
ATOM     27  C   UNL     1       1.941  15.884  19.950  0.00  0.00    +0.000 C 
ATOM     28  C   UNL     1       0.986  16.169  18.775  0.00  0.00    +0.000 C 
ATOM     29  C   UNL     1       2.884  14.734  19.534  0.00  0.00    +0.000 C 
ENDBRANCH  21  27
ENDBRANCH   1  24
TORSDOF 3
ENDMDL
MODEL 9
REMARK VINA RESULT:      -7.4      3.424      7.051
REMARK  Name = 
REMARK  6 active torsions:
REMARK  status: ('A' for Active; 'I' for Inactive)
REMARK    1  A    between atoms: C_1  and  C_2
REMARK    2  A    between atoms: C_2  and  C_3
REMARK    3  A    between atoms: C_2  and  C_4
REMARK    4  A    between atoms: C_2  and  C_5
REMARK    5  A    between atoms: C_8  and  C_9
REMARK    6  A    between atoms: C_14  and  C_15
REMARK                            x       y       z     vdW  Elec       q    Type
REMARK                         _______ _______ _______ _____ _____    ______ ____
ROOT
ATOM      1  C   UNL     1       2.702   4.440  18.122  0.00  0.00    +0.000 A 
ATOM      2  C   UNL     1       1.437   3.823  18.209  0.00  0.00    +0.000 A 
ATOM      3  C   UNL     1       1.308   2.435  18.276  0.00  0.00    +0.000 A 
ATOM      4  C   UNL     1       2.445   1.635  18.296  0.00  0.00    +0.000 A 
ATOM      5  C   UNL     1       3.705   2.225  18.229  0.00  0.00    +0.000 A 
ATOM      6  C   UNL     1       3.839   3.617  18.093  0.00  0.00    +0.000 A 
ENDROOT
BRANCH   6   7
ATOM      7  C   UNL     1       5.211   4.175  18.012  0.00  0.00    +0.000 C 
ATOM      8  O   UNL     1       5.817   4.351  19.063  0.00  0.00    +0.000 OA
ATOM      9  N   UNL     1       5.744   4.461  16.753  0.00  0.00    +0.000 N 
ATOM     10  C   UNL     1       7.111   5.020  16.687  0.00  0.00    +0.000 C 
ATOM     11  C   UNL     1       7.274   6.007  15.522  0.00  0.00    +0.000 C 
ATOM     12  C   UNL     1       6.977   5.237  14.264  0.00  0.00    +0.000 A 
ATOM     13  C   UNL     1       7.816   5.216  13.155  0.00  0.00    +0.000 A 
ATOM     14  F   UNL     1       8.918   5.978  13.134  0.00  0.00    +0.000 F 
ATOM     15  C   UNL     1       7.554   4.368  12.083  0.00  0.00    +0.000 A 
ATOM     16  C   UNL     1       6.428   3.542  12.106  0.00  0.00    +0.000 A 
ATOM     17  C   UNL     1       5.569   3.581  13.202  0.00  0.00    +0.000 A 
ATOM     18  F   UNL     1       4.498   2.775  13.221  0.00  0.00    +0.000 F 
ATOM     19  C   UNL     1       5.832   4.415  14.285  0.00  0.00    +0.000 A 
ATOM     20  C   UNL     1       4.960   4.451  15.506  0.00  0.00    +0.000 C 
ENDBRANCH   6   7
BRANCH   1  24
ATOM     21  C   UNL     1       2.344   7.946  18.187  0.00  0.00    +0.000 A 
ATOM     22  N   UNL     1       3.620   7.891  17.762  0.00  0.00    +0.000 NA
ATOM     23  O   UNL     1       3.878   6.518  17.707  0.00  0.00    +0.000 OA
ATOM     24  C   UNL     1       2.738   5.891  18.111  0.00  0.00    +0.000 A 
ATOM     25  N   UNL     1       1.750   6.728  18.366  0.00  0.00    +0.000 NA
BRANCH  21  27
ATOM     26  C   UNL     1       2.473  10.431  17.983  0.00  0.00    +0.000 C 
ATOM     27  C   UNL     1       1.621   9.240  18.451  0.00  0.00    +0.000 C 
ATOM     28  C   UNL     1       1.323   9.378  19.956  0.00  0.00    +0.000 C 
ATOM     29  C   UNL     1       0.277   9.277  17.690  0.00  0.00    +0.000 C 
ENDBRANCH  21  27
ENDBRANCH   1  24
TORSDOF 3
ENDMDL
