MODEL 1
REMARK VINA RESULT:      -8.5      0.000      0.000
REMARK  Name = 
REMARK  6 active torsions:
REMARK  status: ('A' for Active; 'I' for Inactive)
REMARK    1  A    between atoms: C_1  and  N_2
REMARK    2  A    between atoms: C_6  and  C_7
REMARK    3  A    between atoms: C_7  and  C_8
REMARK    4  A    between atoms: C_8  and  C_9
REMARK    5  A    between atoms: C_13  and  N_14
REMARK    6  A    between atoms: C_19  and  C_20
REMARK                            x       y       z     vdW  Elec       q    Type
REMARK                         _______ _______ _______ _____ _____    ______ ____
ROOT
ATOM      1  C   UNL     1       3.282   4.268  19.477  0.00  0.00    +0.000 A 
ATOM      2  C   UNL     1       2.952   3.614  18.272  0.00  0.00    +0.000 A 
ATOM      3  C   UNL     1       3.926   3.102  17.421  0.00  0.00    +0.000 A 
ATOM      4  C   UNL     1       5.264   3.350  17.681  0.00  0.00    +0.000 A 
ATOM      5  C   UNL     1       5.604   4.266  18.684  0.00  0.00    +0.000 A 
ATOM      6  C   UNL     1       4.643   4.591  19.651  0.00  0.00    +0.000 A 
ENDROOT
BRANCH   5   7
ATOM      7  N   UNL     1       6.706   5.207  18.468  0.00  0.00    +0.000 N 
ATOM      8  C   UNL     1       6.164   6.472  17.894  0.00  0.00    +0.000 C 
ATOM      9  C   UNL     1       6.180   6.164  16.429  0.00  0.00    +0.000 A 
ATOM     10  C   UNL     1       5.169   6.325  15.497  0.00  0.00    +0.000 A 
ATOM     11  C   UNL     1       5.215   5.541  14.337  0.00  0.00    +0.000 A 
ATOM     12  C   UNL     1       6.272   4.626  14.104  0.00  0.00    +0.000 A 
ATOM     13  C   UNL     1       7.320   4.522  15.030  0.00  0.00    +0.000 A 
ATOM     14  C   UNL     1       7.223   5.262  16.203  0.00  0.00    +0.000 A 
ATOM     15  C   UNL     1       7.681   4.787  17.523  0.00  0.00    +0.000 C 
ATOM     16  O   UNL     1       8.599   3.996  17.687  0.00  0.00    +0.000 OA
BRANCH  12  17
ATOM     17  C   UNL     1       6.214   3.665  12.946  0.00  0.00    +0.000 C 
ATOM     18  F   UNL     1       5.001   3.628  12.324  0.00  0.00    +0.000 F 
ENDBRANCH  12  17
ENDBRANCH   5   7
BRANCH   1  19
ATOM     19  C   UNL     1       2.168   4.614  20.589  0.00  0.00    +0.000 C 
ATOM     20  C   UNL     1       0.696   4.215  20.181  0.00  0.00    +0.000 C 
ATOM     21  C   UNL     1       0.838   2.928  20.994  0.00  0.00    +0.000 C 
ATOM     22  C   UNL     1       2.022   3.559  21.742  0.00  0.00    +0.000 C 
BRANCH  19  23
ATOM     23  C   UNL     1       2.191   6.088  21.053  0.00  0.00    +0.000 C 
BRANCH  23  29
ATOM     24  C   UNL     1       0.784   8.938  21.281  0.00  0.00    +0.000 C 
ATOM     25  N   UNL     1       1.447   8.372  20.139  0.00  0.00    +0.000 N 
ATOM     26  C   UNL     1       1.492   8.952  18.906  0.00  0.00    +0.000 A 
ATOM     27  N   UNL     1       2.112   8.159  18.069  0.00  0.00    +0.000 NA
ATOM     28  N   UNL     1       2.457   7.023  18.758  0.00  0.00    +0.000 NA
ATOM     29  C   UNL     1       2.082   7.158  20.017  0.00  0.00    +0.000 A 
ENDBRANCH  23  29
ENDBRANCH  19  23
ENDBRANCH   1  19
TORSDOF 5
ENDMDL
MODEL 2
REMARK VINA RESULT:      -8.2      3.338      7.130
REMARK  Name = 
REMARK  6 active torsions:
REMARK  status: ('A' for Active; 'I' for Inactive)
REMARK    1  A    between atoms: C_1  and  N_2
REMARK    2  A    between atoms: C_6  and  C_7
REMARK    3  A    between atoms: C_7  and  C_8
REMARK    4  A    between atoms: C_8  and  C_9
REMARK    5  A    between atoms: C_13  and  N_14
REMARK    6  A    between atoms: C_19  and  C_20
REMARK                            x       y       z     vdW  Elec       q    Type
REMARK                         _______ _______ _______ _____ _____    ______ ____
ROOT
ATOM      1  C   UNL     1       2.254   5.687  18.929  0.00  0.00    +0.000 A 
ATOM      2  C   UNL     1       2.148   6.577  17.840  0.00  0.00    +0.000 A 
ATOM      3  C   UNL     1       2.134   7.958  18.015  0.00  0.00    +0.000 A 
ATOM      4  C   UNL     1       2.087   8.486  19.295  0.00  0.00    +0.000 A 
ATOM      5  C   UNL     1       1.863   7.628  20.378  0.00  0.00    +0.000 A 
ATOM      6  C   UNL     1       2.097   6.257  20.209  0.00  0.00    +0.000 A 
ENDROOT
BRANCH   5   7
ATOM      7  N   UNL     1       0.972   8.043  21.464  0.00  0.00    +0.000 N 
ATOM      8  C   UNL     1      -0.409   8.209  20.928  0.00  0.00    +0.000 C 
ATOM      9  C   UNL     1      -0.374   9.629  20.454  0.00  0.00    +0.000 A 
ATOM     10  C   UNL     1      -0.770  10.145  19.232  0.00  0.00    +0.000 A 
ATOM     11  C   UNL     1      -0.210  11.363  18.823  0.00  0.00    +0.000 A 
ATOM     12  C   UNL     1       0.712  12.064  19.639  0.00  0.00    +0.000 A 
ATOM     13  C   UNL     1       1.053  11.556  20.901  0.00  0.00    +0.000 A 
ATOM     14  C   UNL     1       0.536  10.316  21.260  0.00  0.00    +0.000 A 
ATOM     15  C   UNL     1       1.274   9.306  22.043  0.00  0.00    +0.000 C 
ATOM     16  O   UNL     1       2.140   9.573  22.864  0.00  0.00    +0.000 OA
BRANCH  12  17
ATOM     17  C   UNL     1       1.439  13.274  19.112  0.00  0.00    +0.000 C 
ATOM     18  F   UNL     1       2.401  12.979  18.192  0.00  0.00    +0.000 F 
ENDBRANCH  12  17
ENDBRANCH   5   7
BRANCH   1  19
ATOM     19  C   UNL     1       2.546   4.117  18.718  0.00  0.00    +0.000 C 
ATOM     20  C   UNL     1       2.418   3.249  20.031  0.00  0.00    +0.000 C 
ATOM     21  C   UNL     1       1.003   2.852  19.610  0.00  0.00    +0.000 C 
ATOM     22  C   UNL     1       1.335   3.279  18.173  0.00  0.00    +0.000 C 
BRANCH  19  23
ATOM     23  C   UNL     1       3.901   3.822  18.037  0.00  0.00    +0.000 C 
BRANCH  23  29
ATOM     24  C   UNL     1       5.470   6.086  16.434  0.00  0.00    +0.000 C 
ATOM     25  N   UNL     1       5.764   5.567  17.741  0.00  0.00    +0.000 N 
ATOM     26  C   UNL     1       6.857   5.912  18.480  0.00  0.00    +0.000 A 
ATOM     27  N   UNL     1       6.872   5.220  19.592  0.00  0.00    +0.000 NA
ATOM     28  N   UNL     1       5.784   4.384  19.570  0.00  0.00    +0.000 NA
ATOM     29  C   UNL     1       5.095   4.610  18.467  0.00  0.00    +0.000 A 
ENDBRANCH  23  29
ENDBRANCH  19  23
ENDBRANCH   1  19
TORSDOF 5
ENDMDL
MODEL 3
REMARK VINA RESULT:      -8.1      2.942      4.690
REMARK  Name = 
REMARK  6 active torsions:
REMARK  status: ('A' for Active; 'I' for Inactive)
REMARK    1  A    between atoms: C_1  and  N_2
REMARK    2  A    between atoms: C_6  and  C_7
REMARK    3  A    between atoms: C_7  and  C_8
REMARK    4  A    between atoms: C_8  and  C_9
REMARK    5  A    between atoms: C_13  and  N_14
REMARK    6  A    between atoms: C_19  and  C_20
REMARK                            x       y       z     vdW  Elec       q    Type
REMARK                         _______ _______ _______ _____ _____    ______ ____
ROOT
ATOM      1  C   UNL     1       1.829   7.341  20.112  0.00  0.00    +0.000 A 
ATOM      2  C   UNL     1       1.462   6.202  20.858  0.00  0.00    +0.000 A 
ATOM      3  C   UNL     1       2.198   5.022  20.812  0.00  0.00    +0.000 A 
ATOM      4  C   UNL     1       3.245   4.902  19.913  0.00  0.00    +0.000 A 
ATOM      5  C   UNL     1       3.424   5.893  18.940  0.00  0.00    +0.000 A 
ATOM      6  C   UNL     1       2.828   7.146  19.138  0.00  0.00    +0.000 A 
ENDROOT
BRANCH   5   7
ATOM      7  N   UNL     1       3.782   5.512  17.571  0.00  0.00    +0.000 N 
ATOM      8  C   UNL     1       4.783   4.408  17.616  0.00  0.00    +0.000 C 
ATOM      9  C   UNL     1       6.066   5.175  17.706  0.00  0.00    +0.000 A 
ATOM     10  C   UNL     1       7.121   5.001  18.587  0.00  0.00    +0.000 A 
ATOM     11  C   UNL     1       7.965   6.094  18.823  0.00  0.00    +0.000 A 
ATOM     12  C   UNL     1       7.768   7.335  18.167  0.00  0.00    +0.000 A 
ATOM     13  C   UNL     1       6.733   7.473  17.232  0.00  0.00    +0.000 A 
ATOM     14  C   UNL     1       5.869   6.397  17.059  0.00  0.00    +0.000 A 
ATOM     15  C   UNL     1       4.421   6.529  16.809  0.00  0.00    +0.000 C 
ATOM     16  O   UNL     1       3.906   7.482  16.241  0.00  0.00    +0.000 OA
BRANCH  12  17
ATOM     17  C   UNL     1       8.569   8.548  18.563  0.00  0.00    +0.000 C 
ATOM     18  F   UNL     1       8.138   9.704  17.981  0.00  0.00    +0.000 F 
ENDBRANCH  12  17
ENDBRANCH   5   7
BRANCH   1  19
ATOM     19  C   UNL     1       1.149   8.780  20.369  0.00  0.00    +0.000 C 
ATOM     20  C   UNL     1      -0.297   8.713  20.998  0.00  0.00    +0.000 C 
ATOM     21  C   UNL     1       0.311   8.963  22.379  0.00  0.00    +0.000 C 
ATOM     22  C   UNL     1       1.580   9.497  21.697  0.00  0.00    +0.000 C 
BRANCH  19  23
ATOM     23  C   UNL     1       1.124   9.687  19.117  0.00  0.00    +0.000 C 
BRANCH  23  29
ATOM     24  C   UNL     1      -1.582   9.975  17.460  0.00  0.00    +0.000 C 
ATOM     25  N   UNL     1      -0.986  10.935  18.348  0.00  0.00    +0.000 N 
ATOM     26  C   UNL     1      -1.458  12.199  18.548  0.00  0.00    +0.000 A 
ATOM     27  N   UNL     1      -0.659  12.843  19.361  0.00  0.00    +0.000 NA
ATOM     28  N   UNL     1       0.372  11.995  19.680  0.00  0.00    +0.000 NA
ATOM     29  C   UNL     1       0.165  10.831  19.093  0.00  0.00    +0.000 A 
ENDBRANCH  23  29
ENDBRANCH  19  23
ENDBRANCH   1  19
TORSDOF 5
ENDMDL
MODEL 4
REMARK VINA RESULT:      -8.0      2.901      4.589
REMARK  Name = 
REMARK  6 active torsions:
REMARK  status: ('A' for Active; 'I' for Inactive)
REMARK    1  A    between atoms: C_1  and  N_2
REMARK    2  A    between atoms: C_6  and  C_7
REMARK    3  A    between atoms: C_7  and  C_8
REMARK    4  A    between atoms: C_8  and  C_9
REMARK    5  A    between atoms: C_13  and  N_14
REMARK    6  A    between atoms: C_19  and  C_20
REMARK                            x       y       z     vdW  Elec       q    Type
REMARK                         _______ _______ _______ _____ _____    ______ ____
ROOT
ATOM      1  C   UNL     1       1.805   7.343  20.099  0.00  0.00    +0.000 A 
ATOM      2  C   UNL     1       1.481   6.202  20.861  0.00  0.00    +0.000 A 
ATOM      3  C   UNL     1       2.257   5.047  20.827  0.00  0.00    +0.000 A 
ATOM      4  C   UNL     1       3.303   4.951  19.923  0.00  0.00    +0.000 A 
ATOM      5  C   UNL     1       3.442   5.935  18.936  0.00  0.00    +0.000 A 
ATOM      6  C   UNL     1       2.805   7.169  19.122  0.00  0.00    +0.000 A 
ENDROOT
BRANCH   5   7
ATOM      7  N   UNL     1       3.807   5.549  17.570  0.00  0.00    +0.000 N 
ATOM      8  C   UNL     1       4.807   4.445  17.624  0.00  0.00    +0.000 C 
ATOM      9  C   UNL     1       6.090   5.212  17.716  0.00  0.00    +0.000 A 
ATOM     10  C   UNL     1       7.141   5.042  18.602  0.00  0.00    +0.000 A 
ATOM     11  C   UNL     1       7.984   6.136  18.836  0.00  0.00    +0.000 A 
ATOM     12  C   UNL     1       7.790   7.374  18.175  0.00  0.00    +0.000 A 
ATOM     13  C   UNL     1       6.758   7.508  17.235  0.00  0.00    +0.000 A 
ATOM     14  C   UNL     1       5.895   6.431  17.063  0.00  0.00    +0.000 A 
ATOM     15  C   UNL     1       4.448   6.562  16.807  0.00  0.00    +0.000 C 
ATOM     16  O   UNL     1       3.936   7.513  16.233  0.00  0.00    +0.000 OA
BRANCH  12  17
ATOM     17  C   UNL     1       8.589   8.589  18.570  0.00  0.00    +0.000 C 
ATOM     18  F   UNL     1       8.208   9.729  17.925  0.00  0.00    +0.000 F 
ENDBRANCH  12  17
ENDBRANCH   5   7
BRANCH   1  19
ATOM     19  C   UNL     1       1.077   8.761  20.340  0.00  0.00    +0.000 C 
ATOM     20  C   UNL     1      -0.203   8.686  21.262  0.00  0.00    +0.000 C 
ATOM     21  C   UNL     1       0.649   9.132  22.451  0.00  0.00    +0.000 C 
ATOM     22  C   UNL     1       1.708   9.653  21.468  0.00  0.00    +0.000 C 
BRANCH  19  23
ATOM     23  C   UNL     1       0.728   9.510  19.035  0.00  0.00    +0.000 C 
BRANCH  23  29
ATOM     24  C   UNL     1      -0.793  12.167  19.917  0.00  0.00    +0.000 C 
ATOM     25  N   UNL     1       0.482  12.057  19.264  0.00  0.00    +0.000 N 
ATOM     26  C   UNL     1       1.216  13.118  18.821  0.00  0.00    +0.000 A 
ATOM     27  N   UNL     1       2.293  12.685  18.215  0.00  0.00    +0.000 NA
ATOM     28  N   UNL     1       2.251  11.313  18.235  0.00  0.00    +0.000 NA
ATOM     29  C   UNL     1       1.173  10.928  18.892  0.00  0.00    +0.000 A 
ENDBRANCH  23  29
ENDBRANCH  19  23
ENDBRANCH   1  19
TORSDOF 5
ENDMDL
MODEL 5
REMARK VINA RESULT:      -8.0      3.441      7.050
REMARK  Name = 
REMARK  6 active torsions:
REMARK  status: ('A' for Active; 'I' for Inactive)
REMARK    1  A    between atoms: C_1  and  N_2
REMARK    2  A    between atoms: C_6  and  C_7
REMARK    3  A    between atoms: C_7  and  C_8
REMARK    4  A    between atoms: C_8  and  C_9
REMARK    5  A    between atoms: C_13  and  N_14
REMARK    6  A    between atoms: C_19  and  C_20
REMARK                            x       y       z     vdW  Elec       q    Type
REMARK                         _______ _______ _______ _____ _____    ______ ____
ROOT
ATOM      1  C   UNL     1       5.282   4.038  17.898  0.00  0.00    +0.000 A 
ATOM      2  C   UNL     1       5.795   4.143  19.207  0.00  0.00    +0.000 A 
ATOM      3  C   UNL     1       5.411   3.273  20.222  0.00  0.00    +0.000 A 
ATOM      4  C   UNL     1       4.397   2.356  19.992  0.00  0.00    +0.000 A 
ATOM      5  C   UNL     1       3.652   2.448  18.810  0.00  0.00    +0.000 A 
ATOM      6  C   UNL     1       4.185   3.169  17.733  0.00  0.00    +0.000 A 
ENDROOT
BRANCH   5   7
ATOM      7  N   UNL     1       2.202   2.239  18.846  0.00  0.00    +0.000 N 
ATOM      8  C   UNL     1       1.572   2.985  17.720  0.00  0.00    +0.000 C 
ATOM      9  C   UNL     1       1.362   4.333  18.337  0.00  0.00    +0.000 A 
ATOM     10  C   UNL     1       1.695   5.579  17.832  0.00  0.00    +0.000 A 
ATOM     11  C   UNL     1       1.867   6.630  18.743  0.00  0.00    +0.000 A 
ATOM     12  C   UNL     1       1.685   6.439  20.135  0.00  0.00    +0.000 A 
ATOM     13  C   UNL     1       1.287   5.185  20.621  0.00  0.00    +0.000 A 
ATOM     14  C   UNL     1       1.183   4.141  19.708  0.00  0.00    +0.000 A 
ATOM     15  C   UNL     1       1.548   2.742  20.004  0.00  0.00    +0.000 C 
ATOM     16  O   UNL     1       1.489   2.239  21.117  0.00  0.00    +0.000 OA
BRANCH  12  17
ATOM     17  C   UNL     1       2.048   7.526  21.113  0.00  0.00    +0.000 C 
ATOM     18  F   UNL     1       0.989   8.300  21.491  0.00  0.00    +0.000 F 
ENDBRANCH  12  17
ENDBRANCH   5   7
BRANCH   1  19
ATOM     19  C   UNL     1       5.921   4.858  16.667  0.00  0.00    +0.000 C 
ATOM     20  C   UNL     1       4.965   5.951  16.046  0.00  0.00    +0.000 C 
ATOM     21  C   UNL     1       5.673   7.018  16.881  0.00  0.00    +0.000 C 
ATOM     22  C   UNL     1       6.854   6.054  17.071  0.00  0.00    +0.000 C 
BRANCH  19  23
ATOM     23  C   UNL     1       6.470   3.956  15.538  0.00  0.00    +0.000 C 
BRANCH  23  29
ATOM     24  C   UNL     1       5.776   3.306  12.497  0.00  0.00    +0.000 C 
ATOM     25  N   UNL     1       6.694   4.290  13.001  0.00  0.00    +0.000 N 
ATOM     26  C   UNL     1       7.507   5.057  12.220  0.00  0.00    +0.000 A 
ATOM     27  N   UNL     1       8.267   5.806  12.979  0.00  0.00    +0.000 NA
ATOM     28  N   UNL     1       7.967   5.504  14.284  0.00  0.00    +0.000 NA
ATOM     29  C   UNL     1       6.997   4.609  14.303  0.00  0.00    +0.000 A 
ENDBRANCH  23  29
ENDBRANCH  19  23
ENDBRANCH   1  19
TORSDOF 5
ENDMDL
MODEL 6
REMARK VINA RESULT:      -7.9      2.916      4.589
REMARK  Name = 
REMARK  6 active torsions:
REMARK  status: ('A' for Active; 'I' for Inactive)
REMARK    1  A    between atoms: C_1  and  N_2
REMARK    2  A    between atoms: C_6  and  C_7
REMARK    3  A    between atoms: C_7  and  C_8
REMARK    4  A    between atoms: C_8  and  C_9
REMARK    5  A    between atoms: C_13  and  N_14
REMARK    6  A    between atoms: C_19  and  C_20
REMARK                            x       y       z     vdW  Elec       q    Type
REMARK                         _______ _______ _______ _____ _____    ______ ____
ROOT
ATOM      1  C   UNL     1       1.850   7.306  20.142  0.00  0.00    +0.000 A 
ATOM      2  C   UNL     1       1.481   6.158  20.873  0.00  0.00    +0.000 A 
ATOM      3  C   UNL     1       2.212   4.976  20.807  0.00  0.00    +0.000 A 
ATOM      4  C   UNL     1       3.255   4.864  19.901  0.00  0.00    +0.000 A 
ATOM      5  C   UNL     1       3.433   5.868  18.941  0.00  0.00    +0.000 A 
ATOM      6  C   UNL     1       2.844   7.121  19.161  0.00  0.00    +0.000 A 
ENDROOT
BRANCH   5   7
ATOM      7  N   UNL     1       3.784   5.506  17.565  0.00  0.00    +0.000 N 
ATOM      8  C   UNL     1       4.789   4.406  17.590  0.00  0.00    +0.000 C 
ATOM      9  C   UNL     1       6.070   5.176  17.681  0.00  0.00    +0.000 A 
ATOM     10  C   UNL     1       7.131   4.996  18.552  0.00  0.00    +0.000 A 
ATOM     11  C   UNL     1       7.972   6.089  18.795  0.00  0.00    +0.000 A 
ATOM     12  C   UNL     1       7.766   7.337  18.156  0.00  0.00    +0.000 A 
ATOM     13  C   UNL     1       6.724   7.482  17.230  0.00  0.00    +0.000 A 
ATOM     14  C   UNL     1       5.863   6.405  17.050  0.00  0.00    +0.000 A 
ATOM     15  C   UNL     1       4.412   6.534  16.812  0.00  0.00    +0.000 C 
ATOM     16  O   UNL     1       3.891   7.492  16.259  0.00  0.00    +0.000 OA
BRANCH  12  17
ATOM     17  C   UNL     1       8.565   8.548  18.562  0.00  0.00    +0.000 C 
ATOM     18  F   UNL     1       8.135   9.707  17.984  0.00  0.00    +0.000 F 
ENDBRANCH  12  17
ENDBRANCH   5   7
BRANCH   1  19
ATOM     19  C   UNL     1       1.178   8.744  20.422  0.00  0.00    +0.000 C 
ATOM     20  C   UNL     1      -0.279   8.674  21.029  0.00  0.00    +0.000 C 
ATOM     21  C   UNL     1       0.311   8.886  22.423  0.00  0.00    +0.000 C 
ATOM     22  C   UNL     1       1.594   9.426  21.773  0.00  0.00    +0.000 C 
BRANCH  19  23
ATOM     23  C   UNL     1       1.178   9.680  19.192  0.00  0.00    +0.000 C 
BRANCH  23  29
ATOM     24  C   UNL     1       0.400  12.490  20.476  0.00  0.00    +0.000 C 
ATOM     25  N   UNL     1      -0.352  11.717  19.527  0.00  0.00    +0.000 N 
ATOM     26  C   UNL     1      -1.604  12.036  19.090  0.00  0.00    +0.000 A 
ATOM     27  N   UNL     1      -2.040  11.102  18.283  0.00  0.00    +0.000 NA
ATOM     28  N   UNL     1      -1.067  10.136  18.211  0.00  0.00    +0.000 NA
ATOM     29  C   UNL     1      -0.033  10.515  18.939  0.00  0.00    +0.000 A 
ENDBRANCH  23  29
ENDBRANCH  19  23
ENDBRANCH   1  19
TORSDOF 5
ENDMDL
MODEL 7
REMARK VINA RESULT:      -7.7      3.170      6.911
REMARK  Name = 
REMARK  6 active torsions:
REMARK  status: ('A' for Active; 'I' for Inactive)
REMARK    1  A    between atoms: C_1  and  N_2
REMARK    2  A    between atoms: C_6  and  C_7
REMARK    3  A    between atoms: C_7  and  C_8
REMARK    4  A    between atoms: C_8  and  C_9
REMARK    5  A    between atoms: C_13  and  N_14
REMARK    6  A    between atoms: C_19  and  C_20
REMARK                            x       y       z     vdW  Elec       q    Type
REMARK                         _______ _______ _______ _____ _____    ______ ____
ROOT
ATOM      1  C   UNL     1       4.932   6.047  17.556  0.00  0.00    +0.000 A 
ATOM      2  C   UNL     1       4.465   7.330  17.204  0.00  0.00    +0.000 A 
ATOM      3  C   UNL     1       3.216   7.795  17.601  0.00  0.00    +0.000 A 
ATOM      4  C   UNL     1       2.339   6.938  18.247  0.00  0.00    +0.000 A 
ATOM      5  C   UNL     1       2.649   5.574  18.319  0.00  0.00    +0.000 A 
ATOM      6  C   UNL     1       3.977   5.175  18.117  0.00  0.00    +0.000 A 
ENDROOT
BRANCH   5   7
ATOM      7  N   UNL     1       1.594   4.577  18.121  0.00  0.00    +0.000 N 
ATOM      8  C   UNL     1       0.892   4.343  19.415  0.00  0.00    +0.000 C 
ATOM      9  C   UNL     1       1.745   3.276  20.027  0.00  0.00    +0.000 A 
ATOM     10  C   UNL     1       2.281   3.218  21.302  0.00  0.00    +0.000 A 
ATOM     11  C   UNL     1       3.414   2.418  21.501  0.00  0.00    +0.000 A 
ATOM     12  C   UNL     1       3.985   1.669  20.443  0.00  0.00    +0.000 A 
ATOM     13  C   UNL     1       3.391   1.691  19.173  0.00  0.00    +0.000 A 
ATOM     14  C   UNL     1       2.306   2.539  18.981  0.00  0.00    +0.000 A 
ATOM     15  C   UNL     1       2.048   3.286  17.735  0.00  0.00    +0.000 C 
ATOM     16  O   UNL     1       2.395   2.909  16.625  0.00  0.00    +0.000 OA
BRANCH  12  17
ATOM     17  C   UNL     1       5.301   0.959  20.628  0.00  0.00    +0.000 C 
ATOM     18  F   UNL     1       5.627   0.739  21.934  0.00  0.00    +0.000 F 
ENDBRANCH  12  17
ENDBRANCH   5   7
BRANCH   1  19
ATOM     19  C   UNL     1       6.468   5.612  17.337  0.00  0.00    +0.000 C 
ATOM     20  C   UNL     1       7.444   6.810  17.013  0.00  0.00    +0.000 C 
ATOM     21  C   UNL     1       7.859   6.846  18.484  0.00  0.00    +0.000 C 
ATOM     22  C   UNL     1       7.304   5.424  18.652  0.00  0.00    +0.000 C 
BRANCH  19  23
ATOM     23  C   UNL     1       6.653   4.498  16.281  0.00  0.00    +0.000 C 
BRANCH  23  29
ATOM     24  C   UNL     1       5.407   3.581  13.496  0.00  0.00    +0.000 C 
ATOM     25  N   UNL     1       6.521   4.461  13.716  0.00  0.00    +0.000 N 
ATOM     26  C   UNL     1       7.302   4.981  12.725  0.00  0.00    +0.000 A 
ATOM     27  N   UNL     1       8.268   5.689  13.253  0.00  0.00    +0.000 NA
ATOM     28  N   UNL     1       8.137   5.611  14.617  0.00  0.00    +0.000 NA
ATOM     29  C   UNL     1       7.066   4.893  14.902  0.00  0.00    +0.000 A 
ENDBRANCH  23  29
ENDBRANCH  19  23
ENDBRANCH   1  19
TORSDOF 5
ENDMDL
MODEL 8
REMARK VINA RESULT:      -7.7      3.408      7.098
REMARK  Name = 
REMARK  6 active torsions:
REMARK  status: ('A' for Active; 'I' for Inactive)
REMARK    1  A    between atoms: C_1  and  N_2
REMARK    2  A    between atoms: C_6  and  C_7
REMARK    3  A    between atoms: C_7  and  C_8
REMARK    4  A    between atoms: C_8  and  C_9
REMARK    5  A    between atoms: C_13  and  N_14
REMARK    6  A    between atoms: C_19  and  C_20
REMARK                            x       y       z     vdW  Elec       q    Type
REMARK                         _______ _______ _______ _____ _____    ______ ____
ROOT
ATOM      1  C   UNL     1       2.246   5.472  19.216  0.00  0.00    +0.000 A 
ATOM      2  C   UNL     1       2.163   6.281  18.064  0.00  0.00    +0.000 A 
ATOM      3  C   UNL     1       2.147   7.670  18.137  0.00  0.00    +0.000 A 
ATOM      4  C   UNL     1       2.074   8.290  19.374  0.00  0.00    +0.000 A 
ATOM      5  C   UNL     1       1.827   7.513  20.512  0.00  0.00    +0.000 A 
ATOM      6  C   UNL     1       2.063   6.133  20.448  0.00  0.00    +0.000 A 
ENDROOT
BRANCH   5   7
ATOM      7  N   UNL     1       0.914   8.006  21.547  0.00  0.00    +0.000 N 
ATOM      8  C   UNL     1      -0.446   8.173  20.960  0.00  0.00    +0.000 C 
ATOM      9  C   UNL     1      -0.364   9.564  20.412  0.00  0.00    +0.000 A 
ATOM     10  C   UNL     1      -0.710  10.023  19.153  0.00  0.00    +0.000 A 
ATOM     11  C   UNL     1      -0.110  11.204  18.697  0.00  0.00    +0.000 A 
ATOM     12  C   UNL     1       0.804  11.927  19.503  0.00  0.00    +0.000 A 
ATOM     13  C   UNL     1       1.095  11.480  20.800  0.00  0.00    +0.000 A 
ATOM     14  C   UNL     1       0.538  10.274  21.209  0.00  0.00    +0.000 A 
ATOM     15  C   UNL     1       1.228   9.291  22.067  0.00  0.00    +0.000 C 
ATOM     16  O   UNL     1       2.075   9.582  22.899  0.00  0.00    +0.000 OA
BRANCH  12  17
ATOM     17  C   UNL     1       1.575  13.091  18.935  0.00  0.00    +0.000 C 
ATOM     18  F   UNL     1       2.928  12.948  19.024  0.00  0.00    +0.000 F 
ENDBRANCH  12  17
ENDBRANCH   5   7
BRANCH   1  19
ATOM     19  C   UNL     1       2.540   3.890  19.126  0.00  0.00    +0.000 C 
ATOM     20  C   UNL     1       1.750   3.020  20.180  0.00  0.00    +0.000 C 
ATOM     21  C   UNL     1       0.708   2.699  19.109  0.00  0.00    +0.000 C 
ATOM     22  C   UNL     1       1.720   3.119  18.032  0.00  0.00    +0.000 C 
BRANCH  19  23
ATOM     23  C   UNL     1       4.042   3.533  19.187  0.00  0.00    +0.000 C 
BRANCH  23  29
ATOM     24  C   UNL     1       6.568   5.473  19.287  0.00  0.00    +0.000 C 
ATOM     25  N   UNL     1       5.993   4.833  18.136  0.00  0.00    +0.000 N 
ATOM     26  C   UNL     1       6.400   5.043  16.851  0.00  0.00    +0.000 A 
ATOM     27  N   UNL     1       5.638   4.365  16.031  0.00  0.00    +0.000 NA
ATOM     28  N   UNL     1       4.694   3.718  16.789  0.00  0.00    +0.000 NA
ATOM     29  C   UNL     1       4.921   3.975  18.064  0.00  0.00    +0.000 A 
ENDBRANCH  23  29
ENDBRANCH  19  23
ENDBRANCH   1  19
TORSDOF 5
ENDMDL
MODEL 9
REMARK VINA RESULT:      -7.7      0.579      1.129
REMARK  Name = 
REMARK  6 active torsions:
REMARK  status: ('A' for Active; 'I' for Inactive)
REMARK    1  A    between atoms: C_1  and  N_2
REMARK    2  A    between atoms: C_6  and  C_7
REMARK    3  A    between atoms: C_7  and  C_8
REMARK    4  A    between atoms: C_8  and  C_9
REMARK    5  A    between atoms: C_13  and  N_14
REMARK    6  A    between atoms: C_19  and  C_20
REMARK                            x       y       z     vdW  Elec       q    Type
REMARK                         _______ _______ _______ _____ _____    ______ ____
ROOT
ATOM      1  C   UNL     1       3.262   4.364  19.447  0.00  0.00    +0.000 A 
ATOM      2  C   UNL     1       2.909   3.725  18.241  0.00  0.00    +0.000 A 
ATOM      3  C   UNL     1       3.865   3.191  17.382  0.00  0.00    +0.000 A 
ATOM      4  C   UNL     1       5.210   3.403  17.637  0.00  0.00    +0.000 A 
ATOM      5  C   UNL     1       5.579   4.305  18.643  0.00  0.00    +0.000 A 
ATOM      6  C   UNL     1       4.631   4.650  19.616  0.00  0.00    +0.000 A 
ENDROOT
BRANCH   5   7
ATOM      7  N   UNL     1       6.704   5.218  18.426  0.00  0.00    +0.000 N 
ATOM      8  C   UNL     1       6.196   6.492  17.844  0.00  0.00    +0.000 C 
ATOM      9  C   UNL     1       6.209   6.176  16.381  0.00  0.00    +0.000 A 
ATOM     10  C   UNL     1       5.205   6.358  15.445  0.00  0.00    +0.000 A 
ATOM     11  C   UNL     1       5.235   5.567  14.289  0.00  0.00    +0.000 A 
ATOM     12  C   UNL     1       6.270   4.626  14.064  0.00  0.00    +0.000 A 
ATOM     13  C   UNL     1       7.312   4.500  14.994  0.00  0.00    +0.000 A 
ATOM     14  C   UNL     1       7.230   5.249  16.163  0.00  0.00    +0.000 A 
ATOM     15  C   UNL     1       7.672   4.769  17.487  0.00  0.00    +0.000 C 
ATOM     16  O   UNL     1       8.570   3.956  17.657  0.00  0.00    +0.000 OA
BRANCH  12  17
ATOM     17  C   UNL     1       6.193   3.661  12.910  0.00  0.00    +0.000 C 
ATOM     18  F   UNL     1       4.951   3.567  12.355  0.00  0.00    +0.000 F 
ENDBRANCH  12  17
ENDBRANCH   5   7
BRANCH   1  19
ATOM     19  C   UNL     1       2.162   4.735  20.566  0.00  0.00    +0.000 C 
ATOM     20  C   UNL     1       0.667   4.613  20.073  0.00  0.00    +0.000 C 
ATOM     21  C   UNL     1       0.585   3.229  20.719  0.00  0.00    +0.000 C 
ATOM     22  C   UNL     1       1.815   3.580  21.571  0.00  0.00    +0.000 C 
BRANCH  19  23
ATOM     23  C   UNL     1       2.378   6.121  21.214  0.00  0.00    +0.000 C 
BRANCH  23  29
ATOM     24  C   UNL     1       2.816   7.517  18.384  0.00  0.00    +0.000 C 
ATOM     25  N   UNL     1       1.887   7.888  19.415  0.00  0.00    +0.000 N 
ATOM     26  C   UNL     1       1.089   8.993  19.374  0.00  0.00    +0.000 A 
ATOM     27  N   UNL     1       0.408   9.085  20.489  0.00  0.00    +0.000 NA
ATOM     28  N   UNL     1       0.786   8.036  21.289  0.00  0.00    +0.000 NA
ATOM     29  C   UNL     1       1.659   7.293  20.634  0.00  0.00    +0.000 A 
ENDBRANCH  23  29
ENDBRANCH  19  23
ENDBRANCH   1  19
TORSDOF 5
ENDMDL
