MODEL 1
REMARK VINA RESULT:      -8.5      0.000      0.000
REMARK  Name = 
REMARK  5 active torsions:
REMARK  status: ('A' for Active; 'I' for Inactive)
REMARK    1  A    between atoms: C_9  and  C_10
REMARK    2  A    between atoms: C_13  and  S_14
REMARK    3  A    between atoms: S_14  and  C_15
REMARK    4  A    between atoms: N_22  and  C_23
REMARK    5  A    between atoms: C_23  and  C_24
REMARK                            x       y       z     vdW  Elec       q    Type
REMARK                         _______ _______ _______ _____ _____    ______ ____
ROOT
ATOM      1  O   UNL     1       4.383   3.541  16.620  0.00  0.00    +0.000 OA
ATOM      2  C   UNL     1       3.827   4.364  17.341  0.00  0.00    +0.000 A 
ATOM      3  C   UNL     1       2.793   3.908  18.285  0.00  0.00    +0.000 A 
ATOM      4  C   UNL     1       2.468   2.543  18.349  0.00  0.00    +0.000 A 
ATOM      5  C   UNL     1       1.500   2.092  19.243  0.00  0.00    +0.000 A 
ATOM      6  C   UNL     1       0.841   3.005  20.060  0.00  0.00    +0.000 A 
ATOM      7  C   UNL     1       1.156   4.364  19.987  0.00  0.00    +0.000 A 
ATOM      8  C   UNL     1       2.154   4.825  19.113  0.00  0.00    +0.000 A 
ATOM      9  C   UNL     1       2.571   6.248  19.001  0.00  0.00    +0.000 A 
ATOM     10  N   UNL     1       3.485   6.649  18.159  0.00  0.00    +0.000 NA
ATOM     11  N   UNL     1       4.119   5.723  17.352  0.00  0.00    +0.000 N 
ENDROOT
BRANCH   9  12
ATOM     12  C   UNL     1       1.962   7.233  19.872  0.00  0.00    +0.000 A 
ATOM     13  N   UNL     1       1.575   7.039  21.118  0.00  0.00    +0.000 NA
ATOM     14  N   UNL     1       0.982   8.205  21.534  0.00  0.00    +0.000 NA
ATOM     15  C   UNL     1       1.059   9.047  20.525  0.00  0.00    +0.000 A 
ATOM     16  O   UNL     1       1.699   8.510  19.438  0.00  0.00    +0.000 OA
BRANCH  15  17
ATOM     17  S   UNL     1       0.424  10.656  20.586  0.00  0.00    +0.000 S 
BRANCH  17  18
ATOM     18  C   UNL     1       0.490  11.199  18.841  0.00  0.00    +0.000 C 
ATOM     19  C   UNL     1       0.785  12.668  18.618  0.00  0.00    +0.000 C 
ATOM     20  C   UNL     1      -0.575  13.304  18.408  0.00  0.00    +0.000 C 
ATOM     21  O   UNL     1      -1.507  12.260  18.098  0.00  0.00    +0.000 OA
ATOM     22  C   UNL     1      -0.816  11.004  18.091  0.00  0.00    +0.000 C 
ENDBRANCH  17  18
ENDBRANCH  15  17
ENDBRANCH   9  12
BRANCH  11  23
ATOM     23  C   UNL     1       5.201   6.218  16.501  0.00  0.00    +0.000 C 
BRANCH  23  24
ATOM     24  C   UNL     1       6.391   6.710  17.289  0.00  0.00    +0.000 A 
ATOM     25  C   UNL     1       6.999   5.883  18.243  0.00  0.00    +0.000 A 
ATOM     26  C   UNL     1       8.080   6.344  18.994  0.00  0.00    +0.000 A 
ATOM     27  C   UNL     1       8.564   7.637  18.801  0.00  0.00    +0.000 A 
ATOM     28  C   UNL     1       7.973   8.467  17.850  0.00  0.00    +0.000 A 
ATOM     29  C   UNL     1       6.892   8.007  17.097  0.00  0.00    +0.000 A 
ENDBRANCH  23  24
ENDBRANCH  11  23
TORSDOF 5
ENDMDL
MODEL 2
REMARK VINA RESULT:      -8.4      0.480      1.022
REMARK  Name = 
REMARK  5 active torsions:
REMARK  status: ('A' for Active; 'I' for Inactive)
REMARK    1  A    between atoms: C_9  and  C_10
REMARK    2  A    between atoms: C_13  and  S_14
REMARK    3  A    between atoms: S_14  and  C_15
REMARK    4  A    between atoms: N_22  and  C_23
REMARK    5  A    between atoms: C_23  and  C_24
REMARK                            x       y       z     vdW  Elec       q    Type
REMARK                         _______ _______ _______ _____ _____    ______ ____
ROOT
ATOM      1  O   UNL     1       4.318   3.471  16.473  0.00  0.00    +0.000 OA
ATOM      2  C   UNL     1       3.784   4.293  17.212  0.00  0.00    +0.000 A 
ATOM      3  C   UNL     1       2.717   3.850  18.126  0.00  0.00    +0.000 A 
ATOM      4  C   UNL     1       2.337   2.498  18.142  0.00  0.00    +0.000 A 
ATOM      5  C   UNL     1       1.339   2.059  19.008  0.00  0.00    +0.000 A 
ATOM      6  C   UNL     1       0.704   2.972  19.843  0.00  0.00    +0.000 A 
ATOM      7  C   UNL     1       1.073   4.319  19.818  0.00  0.00    +0.000 A 
ATOM      8  C   UNL     1       2.102   4.766  18.973  0.00  0.00    +0.000 A 
ATOM      9  C   UNL     1       2.577   6.174  18.912  0.00  0.00    +0.000 A 
ATOM     10  N   UNL     1       3.519   6.564  18.096  0.00  0.00    +0.000 NA
ATOM     11  N   UNL     1       4.129   5.639  17.270  0.00  0.00    +0.000 N 
ENDROOT
BRANCH   9  12
ATOM     12  C   UNL     1       1.994   7.155  19.804  0.00  0.00    +0.000 A 
ATOM     13  N   UNL     1       1.600   6.944  21.044  0.00  0.00    +0.000 NA
ATOM     14  N   UNL     1       1.038   8.116  21.486  0.00  0.00    +0.000 NA
ATOM     15  C   UNL     1       1.139   8.978  20.497  0.00  0.00    +0.000 A 
ATOM     16  O   UNL     1       1.767   8.449  19.399  0.00  0.00    +0.000 OA
BRANCH  15  17
ATOM     17  S   UNL     1       0.549  10.602  20.594  0.00  0.00    +0.000 S 
BRANCH  17  18
ATOM     18  C   UNL     1       0.112  10.993  18.862  0.00  0.00    +0.000 C 
ATOM     19  C   UNL     1      -0.274  12.433  18.588  0.00  0.00    +0.000 C 
ATOM     20  C   UNL     1      -1.790  12.433  18.612  0.00  0.00    +0.000 C 
ATOM     21  O   UNL     1      -2.234  11.078  18.468  0.00  0.00    +0.000 OA
ATOM     22  C   UNL     1      -1.091  10.222  18.346  0.00  0.00    +0.000 C 
ENDBRANCH  17  18
ENDBRANCH  15  17
ENDBRANCH   9  12
BRANCH  11  23
ATOM     23  C   UNL     1       5.243   6.115  16.451  0.00  0.00    +0.000 C 
BRANCH  23  24
ATOM     24  C   UNL     1       6.386   6.663  17.271  0.00  0.00    +0.000 A 
ATOM     25  C   UNL     1       6.853   7.966  17.051  0.00  0.00    +0.000 A 
ATOM     26  C   UNL     1       7.928   8.466  17.787  0.00  0.00    +0.000 A 
ATOM     27  C   UNL     1       8.548   7.668  18.747  0.00  0.00    +0.000 A 
ATOM     28  C   UNL     1       8.088   6.374  18.981  0.00  0.00    +0.000 A 
ATOM     29  C   UNL     1       7.012   5.872  18.246  0.00  0.00    +0.000 A 
ENDBRANCH  23  24
ENDBRANCH  11  23
TORSDOF 5
ENDMDL
MODEL 3
REMARK VINA RESULT:      -8.3      1.532      1.713
REMARK  Name = 
REMARK  5 active torsions:
REMARK  status: ('A' for Active; 'I' for Inactive)
REMARK    1  A    between atoms: C_9  and  C_10
REMARK    2  A    between atoms: C_13  and  S_14
REMARK    3  A    between atoms: S_14  and  C_15
REMARK    4  A    between atoms: N_22  and  C_23
REMARK    5  A    between atoms: C_23  and  C_24
REMARK                            x       y       z     vdW  Elec       q    Type
REMARK                         _______ _______ _______ _____ _____    ______ ____
ROOT
ATOM      1  O   UNL     1       4.391   3.220  17.044  0.00  0.00    +0.000 OA
ATOM      2  C   UNL     1       3.842   4.142  17.642  0.00  0.00    +0.000 A 
ATOM      3  C   UNL     1       2.781   3.834  18.615  0.00  0.00    +0.000 A 
ATOM      4  C   UNL     1       2.422   2.497  18.847  0.00  0.00    +0.000 A 
ATOM      5  C   UNL     1       1.428   2.186  19.772  0.00  0.00    +0.000 A 
ATOM      6  C   UNL     1       0.777   3.211  20.451  0.00  0.00    +0.000 A 
ATOM      7  C   UNL     1       1.125   4.542  20.210  0.00  0.00    +0.000 A 
ATOM      8  C   UNL     1       2.150   4.865  19.305  0.00  0.00    +0.000 A 
ATOM      9  C   UNL     1       2.603   6.252  19.019  0.00  0.00    +0.000 A 
ATOM     10  N   UNL     1       3.541   6.521  18.151  0.00  0.00    +0.000 NA
ATOM     11  N   UNL     1       4.167   5.484  17.483  0.00  0.00    +0.000 N 
ENDROOT
BRANCH   9  12
ATOM     12  C   UNL     1       2.003   7.354  19.743  0.00  0.00    +0.000 A 
ATOM     13  N   UNL     1       1.903   7.463  21.053  0.00  0.00    +0.000 NA
ATOM     14  N   UNL     1       1.199   8.615  21.301  0.00  0.00    +0.000 NA
ATOM     15  C   UNL     1       0.926   9.150  20.130  0.00  0.00    +0.000 A 
ATOM     16  O   UNL     1       1.434   8.419  19.086  0.00  0.00    +0.000 OA
BRANCH  15  17
ATOM     17  S   UNL     1       0.033  10.620  19.946  0.00  0.00    +0.000 S 
BRANCH  17  18
ATOM     18  C   UNL     1       0.129  11.380  21.607  0.00  0.00    +0.000 C 
ATOM     19  C   UNL     1      -0.951  10.967  22.585  0.00  0.00    +0.000 C 
ATOM     20  C   UNL     1      -1.980  12.079  22.511  0.00  0.00    +0.000 C 
ATOM     21  O   UNL     1      -1.356  13.216  21.902  0.00  0.00    +0.000 OA
ATOM     22  C   UNL     1       0.006  12.894  21.595  0.00  0.00    +0.000 C 
ENDBRANCH  17  18
ENDBRANCH  15  17
ENDBRANCH   9  12
BRANCH  11  23
ATOM     23  C   UNL     1       5.276   5.841  16.599  0.00  0.00    +0.000 C 
BRANCH  23  24
ATOM     24  C   UNL     1       6.437   6.468  17.332  0.00  0.00    +0.000 A 
ATOM     25  C   UNL     1       7.098   5.759  18.345  0.00  0.00    +0.000 A 
ATOM     26  C   UNL     1       8.153   6.345  19.046  0.00  0.00    +0.000 A 
ATOM     27  C   UNL     1       8.555   7.644  18.744  0.00  0.00    +0.000 A 
ATOM     28  C   UNL     1       7.911   8.357  17.734  0.00  0.00    +0.000 A 
ATOM     29  C   UNL     1       6.856   7.772  17.032  0.00  0.00    +0.000 A 
ENDBRANCH  23  24
ENDBRANCH  11  23
TORSDOF 5
ENDMDL
MODEL 4
REMARK VINA RESULT:      -8.2      1.745      2.138
REMARK  Name = 
REMARK  5 active torsions:
REMARK  status: ('A' for Active; 'I' for Inactive)
REMARK    1  A    between atoms: C_9  and  C_10
REMARK    2  A    between atoms: C_13  and  S_14
REMARK    3  A    between atoms: S_14  and  C_15
REMARK    4  A    between atoms: N_22  and  C_23
REMARK    5  A    between atoms: C_23  and  C_24
REMARK                            x       y       z     vdW  Elec       q    Type
REMARK                         _______ _______ _______ _____ _____    ______ ____
ROOT
ATOM      1  O   UNL     1       4.678   2.890  17.007  0.00  0.00    +0.000 OA
ATOM      2  C   UNL     1       4.099   3.855  17.500  0.00  0.00    +0.000 A 
ATOM      3  C   UNL     1       2.917   3.624  18.347  0.00  0.00    +0.000 A 
ATOM      4  C   UNL     1       2.480   2.311  18.583  0.00  0.00    +0.000 A 
ATOM      5  C   UNL     1       1.371   2.074  19.391  0.00  0.00    +0.000 A 
ATOM      6  C   UNL     1       0.684   3.147  19.948  0.00  0.00    +0.000 A 
ATOM      7  C   UNL     1       1.112   4.455  19.703  0.00  0.00    +0.000 A 
ATOM      8  C   UNL     1       2.250   4.704  18.917  0.00  0.00    +0.000 A 
ATOM      9  C   UNL     1       2.789   6.061  18.638  0.00  0.00    +0.000 A 
ATOM     10  N   UNL     1       3.834   6.261  17.882  0.00  0.00    +0.000 NA
ATOM     11  N   UNL     1       4.494   5.177  17.333  0.00  0.00    +0.000 N 
ENDROOT
BRANCH   9  12
ATOM     12  C   UNL     1       2.150   7.212  19.243  0.00  0.00    +0.000 A 
ATOM     13  N   UNL     1       1.690   8.272  18.607  0.00  0.00    +0.000 NA
ATOM     14  N   UNL     1       1.245   9.147  19.567  0.00  0.00    +0.000 NA
ATOM     15  C   UNL     1       1.442   8.563  20.729  0.00  0.00    +0.000 A 
ATOM     16  O   UNL     1       1.988   7.312  20.604  0.00  0.00    +0.000 OA
BRANCH  15  17
ATOM     17  S   UNL     1       1.040   9.305  22.240  0.00  0.00    +0.000 S 
BRANCH  17  18
ATOM     18  C   UNL     1      -0.484  10.240  21.856  0.00  0.00    +0.000 C 
ATOM     19  C   UNL     1      -0.303  11.469  20.989  0.00  0.00    +0.000 C 
ATOM     20  C   UNL     1      -0.249  12.624  21.970  0.00  0.00    +0.000 C 
ATOM     21  O   UNL     1      -0.786  12.169  23.218  0.00  0.00    +0.000 OA
ATOM     22  C   UNL     1      -1.184  10.798  23.083  0.00  0.00    +0.000 C 
ENDBRANCH  17  18
ENDBRANCH  15  17
ENDBRANCH   9  12
BRANCH  11  23
ATOM     23  C   UNL     1       5.714   5.458  16.577  0.00  0.00    +0.000 C 
BRANCH  23  24
ATOM     24  C   UNL     1       6.692   6.321  17.337  0.00  0.00    +0.000 A 
ATOM     25  C   UNL     1       6.933   7.641  16.932  0.00  0.00    +0.000 A 
ATOM     26  C   UNL     1       7.858   8.433  17.614  0.00  0.00    +0.000 A 
ATOM     27  C   UNL     1       8.554   7.913  18.704  0.00  0.00    +0.000 A 
ATOM     28  C   UNL     1       8.318   6.604  19.121  0.00  0.00    +0.000 A 
ATOM     29  C   UNL     1       7.392   5.811  18.441  0.00  0.00    +0.000 A 
ENDBRANCH  23  24
ENDBRANCH  11  23
TORSDOF 5
ENDMDL
MODEL 5
REMARK VINA RESULT:      -8.2      1.038      1.102
REMARK  Name = 
REMARK  5 active torsions:
REMARK  status: ('A' for Active; 'I' for Inactive)
REMARK    1  A    between atoms: C_9  and  C_10
REMARK    2  A    between atoms: C_13  and  S_14
REMARK    3  A    between atoms: S_14  and  C_15
REMARK    4  A    between atoms: N_22  and  C_23
REMARK    5  A    between atoms: C_23  and  C_24
REMARK                            x       y       z     vdW  Elec       q    Type
REMARK                         _______ _______ _______ _____ _____    ______ ____
ROOT
ATOM      1  O   UNL     1       4.522   3.328  16.747  0.00  0.00    +0.000 OA
ATOM      2  C   UNL     1       3.963   4.233  17.361  0.00  0.00    +0.000 A 
ATOM      3  C   UNL     1       2.854   3.901  18.272  0.00  0.00    +0.000 A 
ATOM      4  C   UNL     1       2.463   2.562  18.427  0.00  0.00    +0.000 A 
ATOM      5  C   UNL     1       1.424   2.229  19.293  0.00  0.00    +0.000 A 
ATOM      6  C   UNL     1       0.760   3.234  19.988  0.00  0.00    +0.000 A 
ATOM      7  C   UNL     1       1.141   4.568  19.824  0.00  0.00    +0.000 A 
ATOM      8  C   UNL     1       2.211   4.911  18.980  0.00  0.00    +0.000 A 
ATOM      9  C   UNL     1       2.699   6.301  18.778  0.00  0.00    +0.000 A 
ATOM     10  N   UNL     1       3.679   6.591  17.965  0.00  0.00    +0.000 NA
ATOM     11  N   UNL     1       4.317   5.574  17.279  0.00  0.00    +0.000 N 
ENDROOT
BRANCH   9  12
ATOM     12  C   UNL     1       2.086   7.381  19.524  0.00  0.00    +0.000 A 
ATOM     13  N   UNL     1       1.956   7.447  20.835  0.00  0.00    +0.000 NA
ATOM     14  N   UNL     1       1.250   8.593  21.105  0.00  0.00    +0.000 NA
ATOM     15  C   UNL     1       1.006   9.167  19.946  0.00  0.00    +0.000 A 
ATOM     16  O   UNL     1       1.535   8.470  18.891  0.00  0.00    +0.000 OA
BRANCH  15  17
ATOM     17  S   UNL     1       0.121  10.646  19.791  0.00  0.00    +0.000 S 
BRANCH  17  18
ATOM     18  C   UNL     1       1.400  11.928  20.046  0.00  0.00    +0.000 C 
ATOM     19  C   UNL     1       0.925  13.217  20.686  0.00  0.00    +0.000 C 
ATOM     20  C   UNL     1       0.697  14.160  19.522  0.00  0.00    +0.000 C 
ATOM     21  O   UNL     1       1.386  13.631  18.383  0.00  0.00    +0.000 OA
ATOM     22  C   UNL     1       2.043  12.414  18.758  0.00  0.00    +0.000 C 
ENDBRANCH  17  18
ENDBRANCH  15  17
ENDBRANCH   9  12
BRANCH  11  23
ATOM     23  C   UNL     1       5.469   5.950  16.461  0.00  0.00    +0.000 C 
BRANCH  23  24
ATOM     24  C   UNL     1       6.566   6.614  17.257  0.00  0.00    +0.000 A 
ATOM     25  C   UNL     1       7.248   5.901  18.252  0.00  0.00    +0.000 A 
ATOM     26  C   UNL     1       8.243   6.519  19.011  0.00  0.00    +0.000 A 
ATOM     27  C   UNL     1       8.563   7.857  18.786  0.00  0.00    +0.000 A 
ATOM     28  C   UNL     1       7.897   8.575  17.794  0.00  0.00    +0.000 A 
ATOM     29  C   UNL     1       6.903   7.958  17.033  0.00  0.00    +0.000 A 
ENDBRANCH  23  24
ENDBRANCH  11  23
TORSDOF 5
ENDMDL
MODEL 6
REMARK VINA RESULT:      -8.2      2.459      3.420
REMARK  Name = 
REMARK  5 active torsions:
REMARK  status: ('A' for Active; 'I' for Inactive)
REMARK    1  A    between atoms: C_9  and  C_10
REMARK    2  A    between atoms: C_13  and  S_14
REMARK    3  A    between atoms: S_14  and  C_15
REMARK    4  A    between atoms: N_22  and  C_23
REMARK    5  A    between atoms: C_23  and  C_24
REMARK                            x       y       z     vdW  Elec       q    Type
REMARK                         _______ _______ _______ _____ _____    ______ ____
ROOT
ATOM      1  O   UNL     1       5.801   3.469  18.662  0.00  0.00    +0.000 OA
ATOM      2  C   UNL     1       5.050   4.436  18.571  0.00  0.00    +0.000 A 
ATOM      3  C   UNL     1       3.797   4.445  19.345  0.00  0.00    +0.000 A 
ATOM      4  C   UNL     1       3.489   3.356  20.176  0.00  0.00    +0.000 A 
ATOM      5  C   UNL     1       2.314   3.354  20.924  0.00  0.00    +0.000 A 
ATOM      6  C   UNL     1       1.435   4.427  20.826  0.00  0.00    +0.000 A 
ATOM      7  C   UNL     1       1.735   5.505  19.989  0.00  0.00    +0.000 A 
ATOM      8  C   UNL     1       2.934   5.534  19.257  0.00  0.00    +0.000 A 
ATOM      9  C   UNL     1       3.344   6.657  18.373  0.00  0.00    +0.000 A 
ATOM     10  N   UNL     1       4.453   6.642  17.685  0.00  0.00    +0.000 NA
ATOM     11  N   UNL     1       5.305   5.559  17.792  0.00  0.00    +0.000 N 
ENDROOT
BRANCH   9  12
ATOM     12  C   UNL     1       2.496   7.828  18.282  0.00  0.00    +0.000 A 
ATOM     13  N   UNL     1       2.527   8.741  17.330  0.00  0.00    +0.000 NA
ATOM     14  N   UNL     1       1.619   9.708  17.679  0.00  0.00    +0.000 NA
ATOM     15  C   UNL     1       1.074   9.321  18.813  0.00  0.00    +0.000 A 
ATOM     16  O   UNL     1       1.559   8.114  19.246  0.00  0.00    +0.000 OA
BRANCH  15  17
ATOM     17  S   UNL     1      -0.131  10.243  19.646  0.00  0.00    +0.000 S 
BRANCH  17  18
ATOM     18  C   UNL     1       0.693  10.685  21.218  0.00  0.00    +0.000 C 
ATOM     19  C   UNL     1       0.869   9.556  22.212  0.00  0.00    +0.000 C 
ATOM     20  C   UNL     1      -0.293   9.708  23.174  0.00  0.00    +0.000 C 
ATOM     21  O   UNL     1      -0.821  11.032  23.022  0.00  0.00    +0.000 OA
ATOM     22  C   UNL     1      -0.057  11.728  22.029  0.00  0.00    +0.000 C 
ENDBRANCH  17  18
ENDBRANCH  15  17
ENDBRANCH   9  12
BRANCH  11  23
ATOM     23  C   UNL     1       6.577   5.644  17.075  0.00  0.00    +0.000 C 
BRANCH  23  24
ATOM     24  C   UNL     1       6.494   5.113  15.664  0.00  0.00    +0.000 A 
ATOM     25  C   UNL     1       5.386   4.355  15.258  0.00  0.00    +0.000 A 
ATOM     26  C   UNL     1       5.319   3.838  13.964  0.00  0.00    +0.000 A 
ATOM     27  C   UNL     1       6.358   4.068  13.065  0.00  0.00    +0.000 A 
ATOM     28  C   UNL     1       7.461   4.826  13.454  0.00  0.00    +0.000 A 
ATOM     29  C   UNL     1       7.530   5.346  14.747  0.00  0.00    +0.000 A 
ENDBRANCH  23  24
ENDBRANCH  11  23
TORSDOF 5
ENDMDL
MODEL 7
REMARK VINA RESULT:      -8.1      2.082      2.956
REMARK  Name = 
REMARK  5 active torsions:
REMARK  status: ('A' for Active; 'I' for Inactive)
REMARK    1  A    between atoms: C_9  and  C_10
REMARK    2  A    between atoms: C_13  and  S_14
REMARK    3  A    between atoms: S_14  and  C_15
REMARK    4  A    between atoms: N_22  and  C_23
REMARK    5  A    between atoms: C_23  and  C_24
REMARK                            x       y       z     vdW  Elec       q    Type
REMARK                         _______ _______ _______ _____ _____    ______ ____
ROOT
ATOM      1  O   UNL     1       5.569   3.087  18.826  0.00  0.00    +0.000 OA
ATOM      2  C   UNL     1       4.892   4.105  18.713  0.00  0.00    +0.000 A 
ATOM      3  C   UNL     1       3.602   4.189  19.418  0.00  0.00    +0.000 A 
ATOM      4  C   UNL     1       3.175   3.111  20.211  0.00  0.00    +0.000 A 
ATOM      5  C   UNL     1       1.963   3.178  20.894  0.00  0.00    +0.000 A 
ATOM      6  C   UNL     1       1.166   4.311  20.770  0.00  0.00    +0.000 A 
ATOM      7  C   UNL     1       1.585   5.378  19.971  0.00  0.00    +0.000 A 
ATOM      8  C   UNL     1       2.821   5.335  19.305  0.00  0.00    +0.000 A 
ATOM      9  C   UNL     1       3.354   6.441  18.466  0.00  0.00    +0.000 A 
ATOM     10  N   UNL     1       4.496   6.360  17.838  0.00  0.00    +0.000 NA
ATOM     11  N   UNL     1       5.266   5.219  17.971  0.00  0.00    +0.000 N 
ENDROOT
BRANCH   9  12
ATOM     12  C   UNL     1       2.595   7.669  18.351  0.00  0.00    +0.000 A 
ATOM     13  N   UNL     1       2.577   8.480  17.311  0.00  0.00    +0.000 NA
ATOM     14  N   UNL     1       1.797   9.554  17.661  0.00  0.00    +0.000 NA
ATOM     15  C   UNL     1       1.370   9.327  18.885  0.00  0.00    +0.000 A 
ATOM     16  O   UNL     1       1.812   8.129  19.383  0.00  0.00    +0.000 OA
BRANCH  15  17
ATOM     17  S   UNL     1       0.355  10.428  19.752  0.00  0.00    +0.000 S 
BRANCH  17  18
ATOM     18  C   UNL     1      -0.593  11.257  18.426  0.00  0.00    +0.000 C 
ATOM     19  C   UNL     1      -1.391  12.474  18.847  0.00  0.00    +0.000 C 
ATOM     20  C   UNL     1      -2.800  11.953  19.058  0.00  0.00    +0.000 C 
ATOM     21  O   UNL     1      -2.903  10.683  18.403  0.00  0.00    +0.000 OA
ATOM     22  C   UNL     1      -1.648  10.373  17.784  0.00  0.00    +0.000 C 
ENDBRANCH  17  18
ENDBRANCH  15  17
ENDBRANCH   9  12
BRANCH  11  23
ATOM     23  C   UNL     1       6.578   5.227  17.325  0.00  0.00    +0.000 C 
BRANCH  23  24
ATOM     24  C   UNL     1       6.519   4.835  15.868  0.00  0.00    +0.000 A 
ATOM     25  C   UNL     1       7.547   5.213  14.993  0.00  0.00    +0.000 A 
ATOM     26  C   UNL     1       7.483   4.878  13.640  0.00  0.00    +0.000 A 
ATOM     27  C   UNL     1       6.391   4.166  13.147  0.00  0.00    +0.000 A 
ATOM     28  C   UNL     1       5.366   3.778  14.009  0.00  0.00    +0.000 A 
ATOM     29  C   UNL     1       5.429   4.111  15.363  0.00  0.00    +0.000 A 
ENDBRANCH  23  24
ENDBRANCH  11  23
TORSDOF 5
ENDMDL
MODEL 8
REMARK VINA RESULT:      -8.0      2.961      8.428
REMARK  Name = 
REMARK  5 active torsions:
REMARK  status: ('A' for Active; 'I' for Inactive)
REMARK    1  A    between atoms: C_9  and  C_10
REMARK    2  A    between atoms: C_13  and  S_14
REMARK    3  A    between atoms: S_14  and  C_15
REMARK    4  A    between atoms: N_22  and  C_23
REMARK    5  A    between atoms: C_23  and  C_24
REMARK                            x       y       z     vdW  Elec       q    Type
REMARK                         _______ _______ _______ _____ _____    ______ ____
ROOT
ATOM      1  O   UNL     1      -1.410  14.102  19.728  0.00  0.00    +0.000 OA
ATOM      2  C   UNL     1      -0.768  13.083  19.489  0.00  0.00    +0.000 A 
ATOM      3  C   UNL     1      -1.442  11.948  18.836  0.00  0.00    +0.000 A 
ATOM      4  C   UNL     1      -2.799  12.054  18.491  0.00  0.00    +0.000 A 
ATOM      5  C   UNL     1      -3.449  10.995  17.861  0.00  0.00    +0.000 A 
ATOM      6  C   UNL     1      -2.752   9.822  17.595  0.00  0.00    +0.000 A 
ATOM      7  C   UNL     1      -1.405   9.712  17.950  0.00  0.00    +0.000 A 
ATOM      8  C   UNL     1      -0.731  10.786  18.553  0.00  0.00    +0.000 A 
ATOM      9  C   UNL     1       0.708  10.761  18.929  0.00  0.00    +0.000 A 
ATOM     10  N   UNL     1       1.300  11.767  19.514  0.00  0.00    +0.000 NA
ATOM     11  N   UNL     1       0.582  12.920  19.775  0.00  0.00    +0.000 N 
ENDROOT
BRANCH   9  12
ATOM     12  C   UNL     1       1.498   9.587  18.619  0.00  0.00    +0.000 A 
ATOM     13  N   UNL     1       2.172   9.373  17.505  0.00  0.00    +0.000 NA
ATOM     14  N   UNL     1       2.703   8.111  17.601  0.00  0.00    +0.000 NA
ATOM     15  C   UNL     1       2.339   7.637  18.773  0.00  0.00    +0.000 A 
ATOM     16  O   UNL     1       1.594   8.533  19.496  0.00  0.00    +0.000 OA
BRANCH  15  17
ATOM     17  S   UNL     1       2.772   6.057  19.331  0.00  0.00    +0.000 S 
BRANCH  17  18
ATOM     18  C   UNL     1       2.614   5.025  17.829  0.00  0.00    +0.000 C 
ATOM     19  C   UNL     1       1.611   3.892  17.910  0.00  0.00    +0.000 C 
ATOM     20  C   UNL     1       2.441   2.670  18.248  0.00  0.00    +0.000 C 
ATOM     21  O   UNL     1       3.811   2.971  17.954  0.00  0.00    +0.000 OA
ATOM     22  C   UNL     1       3.895   4.307  17.442  0.00  0.00    +0.000 C 
ENDBRANCH  17  18
ENDBRANCH  15  17
ENDBRANCH   9  12
BRANCH  11  23
ATOM     23  C   UNL     1       1.324  14.047  20.341  0.00  0.00    +0.000 C 
BRANCH  23  24
ATOM     24  C   UNL     1       1.868  14.982  19.288  0.00  0.00    +0.000 A 
ATOM     25  C   UNL     1       2.966  14.601  18.505  0.00  0.00    +0.000 A 
ATOM     26  C   UNL     1       3.491  15.474  17.550  0.00  0.00    +0.000 A 
ATOM     27  C   UNL     1       2.926  16.735  17.371  0.00  0.00    +0.000 A 
ATOM     28  C   UNL     1       1.829  17.122  18.139  0.00  0.00    +0.000 A 
ATOM     29  C   UNL     1       1.302  16.250  19.093  0.00  0.00    +0.000 A 
ENDBRANCH  23  24
ENDBRANCH  11  23
TORSDOF 5
ENDMDL
MODEL 9
REMARK VINA RESULT:      -8.0      2.066      2.689
REMARK  Name = 
REMARK  5 active torsions:
REMARK  status: ('A' for Active; 'I' for Inactive)
REMARK    1  A    between atoms: C_9  and  C_10
REMARK    2  A    between atoms: C_13  and  S_14
REMARK    3  A    between atoms: S_14  and  C_15
REMARK    4  A    between atoms: N_22  and  C_23
REMARK    5  A    between atoms: C_23  and  C_24
REMARK                            x       y       z     vdW  Elec       q    Type
REMARK                         _______ _______ _______ _____ _____    ______ ____
ROOT
ATOM      1  O   UNL     1       5.335   2.622  19.253  0.00  0.00    +0.000 OA
ATOM      2  C   UNL     1       4.688   3.658  19.138  0.00  0.00    +0.000 A 
ATOM      3  C   UNL     1       3.358   3.747  19.766  0.00  0.00    +0.000 A 
ATOM      4  C   UNL     1       2.861   2.652  20.490  0.00  0.00    +0.000 A 
ATOM      5  C   UNL     1       1.611   2.722  21.100  0.00  0.00    +0.000 A 
ATOM      6  C   UNL     1       0.847   3.877  20.970  0.00  0.00    +0.000 A 
ATOM      7  C   UNL     1       1.337   4.962  20.239  0.00  0.00    +0.000 A 
ATOM      8  C   UNL     1       2.611   4.915  19.649  0.00  0.00    +0.000 A 
ATOM      9  C   UNL     1       3.218   6.037  18.885  0.00  0.00    +0.000 A 
ATOM     10  N   UNL     1       4.394   5.953  18.326  0.00  0.00    +0.000 NA
ATOM     11  N   UNL     1       5.130   4.790  18.462  0.00  0.00    +0.000 N 
ENDROOT
BRANCH   9  12
ATOM     12  C   UNL     1       2.493   7.287  18.771  0.00  0.00    +0.000 A 
ATOM     13  N   UNL     1       2.294   7.973  17.663  0.00  0.00    +0.000 NA
ATOM     14  N   UNL     1       1.637   9.124  18.024  0.00  0.00    +0.000 NA
ATOM     15  C   UNL     1       1.458   9.062  19.326  0.00  0.00    +0.000 A 
ATOM     16  O   UNL     1       1.950   7.905  19.872  0.00  0.00    +0.000 OA
BRANCH  15  17
ATOM     17  S   UNL     1       0.675  10.312  20.233  0.00  0.00    +0.000 S 
BRANCH  17  18
ATOM     18  C   UNL     1       0.514  11.671  19.020  0.00  0.00    +0.000 C 
ATOM     19  C   UNL     1       1.386  12.885  19.270  0.00  0.00    +0.000 C 
ATOM     20  C   UNL     1       0.478  13.869  19.981  0.00  0.00    +0.000 C 
ATOM     21  O   UNL     1      -0.876  13.453  19.767  0.00  0.00    +0.000 OA
ATOM     22  C   UNL     1      -0.880  12.271  18.956  0.00  0.00    +0.000 C 
ENDBRANCH  17  18
ENDBRANCH  15  17
ENDBRANCH   9  12
BRANCH  11  23
ATOM     23  C   UNL     1       6.479   4.790  17.897  0.00  0.00    +0.000 C 
BRANCH  23  24
ATOM     24  C   UNL     1       6.490   4.624  16.397  0.00  0.00    +0.000 A 
ATOM     25  C   UNL     1       5.587   3.749  15.776  0.00  0.00    +0.000 A 
ATOM     26  C   UNL     1       5.613   3.570  14.393  0.00  0.00    +0.000 A 
ATOM     27  C   UNL     1       6.542   4.260  13.616  0.00  0.00    +0.000 A 
ATOM     28  C   UNL     1       7.440   5.138  14.220  0.00  0.00    +0.000 A 
ATOM     29  C   UNL     1       7.415   5.319  15.604  0.00  0.00    +0.000 A 
ENDBRANCH  23  24
ENDBRANCH  11  23
TORSDOF 5
ENDMDL
