MODEL 1
REMARK VINA RESULT:      -8.4      0.000      0.000
REMARK  Name = 
REMARK  3 active torsions:
REMARK  status: ('A' for Active; 'I' for Inactive)
REMARK    1  A    between atoms: C_2  and  C_16
REMARK    2  A    between atoms: N_3  and  C_4
REMARK    3  A    between atoms: C_9  and  N_10
REMARK                            x       y       z     vdW  Elec       q    Type
REMARK                         _______ _______ _______ _____ _____    ______ ____
ROOT
ATOM      1  O   UNL     1       3.811   6.850  16.971  0.00  0.00    +0.000 OA
ATOM      2  C   UNL     1       4.091   5.885  17.682  0.00  0.00    +0.000 C 
ATOM      3  N   UNL     1       4.756   4.750  17.256  0.00  0.00    +0.000 N 
ATOM      4  H   UNL     1       4.815   3.959  17.883  0.00  0.00    +0.000 HD
ENDROOT
BRANCH   2   5
ATOM      5  C   UNL     1       3.817   5.923  19.174  0.00  0.00    +0.000 A 
ATOM      6  C   UNL     1       4.210   4.759  19.738  0.00  0.00    +0.000 A 
ATOM      7  C   UNL     1       3.118   3.757  19.674  0.00  0.00    +0.000 A 
ATOM      8  C   UNL     1       3.389   2.459  19.245  0.00  0.00    +0.000 A 
ATOM      9  C   UNL     1       2.334   1.630  18.864  0.00  0.00    +0.000 A 
ATOM     10  C   UNL     1       1.014   2.073  18.975  0.00  0.00    +0.000 A 
ATOM     11  C   UNL     1       0.728   3.347  19.473  0.00  0.00    +0.000 A 
ATOM     12  C   UNL     1       1.782   4.199  19.771  0.00  0.00    +0.000 A 
ATOM     13  N   UNL     1       1.555   5.564  19.988  0.00  0.00    +0.000 N 
ATOM     14  C   UNL     1       2.528   6.485  19.681  0.00  0.00    +0.000 A 
ATOM     15  O   UNL     1       2.310   7.692  19.672  0.00  0.00    +0.000 OA
ATOM     16  H   UNL     1       0.622   5.915  20.150  0.00  0.00    +0.000 HD
ENDBRANCH   2   5
BRANCH   3  17
ATOM     17  C   UNL     1       5.517   4.600  16.066  0.00  0.00    +0.000 A 
ATOM     18  C   UNL     1       4.974   3.872  14.990  0.00  0.00    +0.000 A 
ATOM     19  C   UNL     1       5.583   3.873  13.734  0.00  0.00    +0.000 A 
ATOM     20  C   UNL     1       6.751   4.590  13.539  0.00  0.00    +0.000 A 
ATOM     21  C   UNL     1       7.308   5.303  14.603  0.00  0.00    +0.000 A 
ATOM     22  C   UNL     1       6.716   5.329  15.884  0.00  0.00    +0.000 A 
BRANCH  22  23
ATOM     23  N   UNL     1       7.381   6.041  16.943  0.00  0.00    +0.000 N 
ATOM     24  C   UNL     1       7.299   7.479  17.109  0.00  0.00    +0.000 C 
ATOM     25  C   UNL     1       8.196   7.775  18.293  0.00  0.00    +0.000 C 
ATOM     26  C   UNL     1       8.046   6.546  19.164  0.00  0.00    +0.000 C 
ATOM     27  C   UNL     1       7.789   5.447  18.164  0.00  0.00    +0.000 C 
ATOM     28  O   UNL     1       7.909   4.267  18.439  0.00  0.00    +0.000 OA
ENDBRANCH  22  23
ENDBRANCH   3  17
TORSDOF 3
ENDMDL
MODEL 2
REMARK VINA RESULT:      -7.6      8.648     12.134
REMARK  Name = 
REMARK  3 active torsions:
REMARK  status: ('A' for Active; 'I' for Inactive)
REMARK    1  A    between atoms: C_2  and  C_16
REMARK    2  A    between atoms: N_3  and  C_4
REMARK    3  A    between atoms: C_9  and  N_10
REMARK                            x       y       z     vdW  Elec       q    Type
REMARK                         _______ _______ _______ _____ _____    ______ ____
ROOT
ATOM      1  O   UNL     1      -2.481  10.977  18.562  0.00  0.00    +0.000 OA
ATOM      2  C   UNL     1      -2.512  12.055  19.155  0.00  0.00    +0.000 C 
ATOM      3  N   UNL     1      -3.664  12.735  19.508  0.00  0.00    +0.000 N 
ATOM      4  H   UNL     1      -3.580  13.676  19.869  0.00  0.00    +0.000 HD
ENDROOT
BRANCH   2   5
ATOM      5  C   UNL     1      -1.233  12.690  19.666  0.00  0.00    +0.000 A 
ATOM      6  C   UNL     1      -0.204  11.827  19.509  0.00  0.00    +0.000 A 
ATOM      7  C   UNL     1      -0.097  10.927  20.682  0.00  0.00    +0.000 A 
ATOM      8  C   UNL     1       0.062   9.556  20.495  0.00  0.00    +0.000 A 
ATOM      9  C   UNL     1      -0.177   8.687  21.561  0.00  0.00    +0.000 A 
ATOM     10  C   UNL     1      -0.505   9.192  22.821  0.00  0.00    +0.000 A 
ATOM     11  C   UNL     1      -0.595  10.570  23.037  0.00  0.00    +0.000 A 
ATOM     12  C   UNL     1      -0.441  11.426  21.956  0.00  0.00    +0.000 A 
ATOM     13  N   UNL     1      -0.808  12.774  22.058  0.00  0.00    +0.000 N 
ATOM     14  C   UNL     1      -1.243  13.459  20.948  0.00  0.00    +0.000 A 
ATOM     15  O   UNL     1      -1.752  14.572  21.021  0.00  0.00    +0.000 OA
ATOM     16  H   UNL     1      -0.979  13.198  22.958  0.00  0.00    +0.000 HD
ENDBRANCH   2   5
BRANCH   3  17
ATOM     17  C   UNL     1      -4.983  12.210  19.569  0.00  0.00    +0.000 A 
ATOM     18  C   UNL     1      -5.421  11.334  18.556  0.00  0.00    +0.000 A 
ATOM     19  C   UNL     1      -6.620  10.630  18.677  0.00  0.00    +0.000 A 
ATOM     20  C   UNL     1      -7.405  10.802  19.803  0.00  0.00    +0.000 A 
ATOM     21  C   UNL     1      -6.989  11.680  20.807  0.00  0.00    +0.000 A 
ATOM     22  C   UNL     1      -5.781  12.403  20.722  0.00  0.00    +0.000 A 
BRANCH  22  23
ATOM     23  N   UNL     1      -5.449  13.331  21.770  0.00  0.00    +0.000 N 
ATOM     24  C   UNL     1      -6.301  14.441  22.149  0.00  0.00    +0.000 C 
ATOM     25  C   UNL     1      -5.522  15.164  23.228  0.00  0.00    +0.000 C 
ATOM     26  C   UNL     1      -4.771  14.051  23.926  0.00  0.00    +0.000 C 
ATOM     27  C   UNL     1      -4.545  13.047  22.825  0.00  0.00    +0.000 C 
ATOM     28  O   UNL     1      -3.724  12.153  22.908  0.00  0.00    +0.000 OA
ENDBRANCH  22  23
ENDBRANCH   3  17
TORSDOF 3
ENDMDL
MODEL 3
REMARK VINA RESULT:      -7.5      8.264     11.553
REMARK  Name = 
REMARK  3 active torsions:
REMARK  status: ('A' for Active; 'I' for Inactive)
REMARK    1  A    between atoms: C_2  and  C_16
REMARK    2  A    between atoms: N_3  and  C_4
REMARK    3  A    between atoms: C_9  and  N_10
REMARK                            x       y       z     vdW  Elec       q    Type
REMARK                         _______ _______ _______ _____ _____    ______ ____
ROOT
ATOM      1  O   UNL     1      -2.596   9.850  18.165  0.00  0.00    +0.000 OA
ATOM      2  C   UNL     1      -2.311  11.036  18.331  0.00  0.00    +0.000 C 
ATOM      3  N   UNL     1      -3.228  12.054  18.527  0.00  0.00    +0.000 N 
ATOM      4  H   UNL     1      -2.900  13.010  18.515  0.00  0.00    +0.000 HD
ENDROOT
BRANCH   2   5
ATOM      5  C   UNL     1      -0.863  11.470  18.453  0.00  0.00    +0.000 A 
ATOM      6  C   UNL     1      -0.111  10.428  18.874  0.00  0.00    +0.000 A 
ATOM      7  C   UNL     1      -0.102  10.360  20.356  0.00  0.00    +0.000 A 
ATOM      8  C   UNL     1      -0.318   9.143  20.998  0.00  0.00    +0.000 A 
ATOM      9  C   UNL     1      -0.645   9.133  22.354  0.00  0.00    +0.000 A 
ATOM     10  C   UNL     1      -0.688  10.327  23.077  0.00  0.00    +0.000 A 
ATOM     11  C   UNL     1      -0.401  11.547  22.459  0.00  0.00    +0.000 A 
ATOM     12  C   UNL     1      -0.159  11.562  21.093  0.00  0.00    +0.000 A 
ATOM     13  N   UNL     1      -0.159  12.769  20.384  0.00  0.00    +0.000 N 
ATOM     14  C   UNL     1      -0.531  12.795  19.060  0.00  0.00    +0.000 A 
ATOM     15  O   UNL     1      -0.730  13.842  18.454  0.00  0.00    +0.000 OA
ATOM     16  H   UNL     1      -0.113  13.655  20.867  0.00  0.00    +0.000 HD
ENDBRANCH   2   5
BRANCH   3  17
ATOM     17  C   UNL     1      -4.592  11.917  18.899  0.00  0.00    +0.000 A 
ATOM     18  C   UNL     1      -5.430  11.076  18.141  0.00  0.00    +0.000 A 
ATOM     19  C   UNL     1      -6.711  10.743  18.582  0.00  0.00    +0.000 A 
ATOM     20  C   UNL     1      -7.179  11.256  19.779  0.00  0.00    +0.000 A 
ATOM     21  C   UNL     1      -6.363  12.104  20.533  0.00  0.00    +0.000 A 
ATOM     22  C   UNL     1      -5.060  12.457  20.120  0.00  0.00    +0.000 A 
BRANCH  22  23
ATOM     23  N   UNL     1      -4.303  13.380  20.922  0.00  0.00    +0.000 N 
ATOM     24  C   UNL     1      -4.282  14.810  20.684  0.00  0.00    +0.000 C 
ATOM     25  C   UNL     1      -3.314  15.352  21.715  0.00  0.00    +0.000 C 
ATOM     26  C   UNL     1      -3.504  14.425  22.896  0.00  0.00    +0.000 C 
ATOM     27  C   UNL     1      -3.878  13.116  22.249  0.00  0.00    +0.000 C 
ATOM     28  O   UNL     1      -3.823  12.052  22.837  0.00  0.00    +0.000 OA
ENDBRANCH  22  23
ENDBRANCH   3  17
TORSDOF 3
ENDMDL
MODEL 4
REMARK VINA RESULT:      -7.5      0.955      1.228
REMARK  Name = 
REMARK  3 active torsions:
REMARK  status: ('A' for Active; 'I' for Inactive)
REMARK    1  A    between atoms: C_2  and  C_16
REMARK    2  A    between atoms: N_3  and  C_4
REMARK    3  A    between atoms: C_9  and  N_10
REMARK                            x       y       z     vdW  Elec       q    Type
REMARK                         _______ _______ _______ _____ _____    ______ ____
ROOT
ATOM      1  O   UNL     1       3.800   6.982  17.445  0.00  0.00    +0.000 OA
ATOM      2  C   UNL     1       3.875   5.922  18.066  0.00  0.00    +0.000 C 
ATOM      3  N   UNL     1       4.405   4.744  17.569  0.00  0.00    +0.000 N 
ATOM      4  H   UNL     1       4.295   3.897  18.109  0.00  0.00    +0.000 HD
ENDROOT
BRANCH   2   5
ATOM      5  C   UNL     1       3.479   5.858  19.529  0.00  0.00    +0.000 A 
ATOM      6  C   UNL     1       3.837   4.660  20.045  0.00  0.00    +0.000 A 
ATOM      7  C   UNL     1       2.766   3.659  19.824  0.00  0.00    +0.000 A 
ATOM      8  C   UNL     1       3.086   2.394  19.334  0.00  0.00    +0.000 A 
ATOM      9  C   UNL     1       2.075   1.587  18.812  0.00  0.00    +0.000 A 
ATOM     10  C   UNL     1       0.745   2.013  18.842  0.00  0.00    +0.000 A 
ATOM     11  C   UNL     1       0.405   3.249  19.398  0.00  0.00    +0.000 A 
ATOM     12  C   UNL     1       1.421   4.085  19.839  0.00  0.00    +0.000 A 
ATOM     13  N   UNL     1       1.161   5.431  20.127  0.00  0.00    +0.000 N 
ATOM     14  C   UNL     1       2.146   6.377  19.963  0.00  0.00    +0.000 A 
ATOM     15  O   UNL     1       1.916   7.580  20.017  0.00  0.00    +0.000 OA
ATOM     16  H   UNL     1       0.214   5.765  20.233  0.00  0.00    +0.000 HD
ENDBRANCH   2   5
BRANCH   3  17
ATOM     17  C   UNL     1       5.239   4.596  16.429  0.00  0.00    +0.000 A 
ATOM     18  C   UNL     1       4.725   3.965  15.279  0.00  0.00    +0.000 A 
ATOM     19  C   UNL     1       5.424   3.982  14.071  0.00  0.00    +0.000 A 
ATOM     20  C   UNL     1       6.651   4.616  13.998  0.00  0.00    +0.000 A 
ATOM     21  C   UNL     1       7.180   5.231  15.135  0.00  0.00    +0.000 A 
ATOM     22  C   UNL     1       6.498   5.239  16.371  0.00  0.00    +0.000 A 
BRANCH  22  23
ATOM     23  N   UNL     1       7.133   5.844  17.512  0.00  0.00    +0.000 N 
ATOM     24  C   UNL     1       7.917   5.097  18.476  0.00  0.00    +0.000 C 
ATOM     25  C   UNL     1       8.318   6.124  19.514  0.00  0.00    +0.000 C 
ATOM     26  C   UNL     1       8.466   7.398  18.710  0.00  0.00    +0.000 C 
ATOM     27  C   UNL     1       7.462   7.221  17.599  0.00  0.00    +0.000 C 
ATOM     28  O   UNL     1       7.066   8.147  16.917  0.00  0.00    +0.000 OA
ENDBRANCH  22  23
ENDBRANCH   3  17
TORSDOF 3
ENDMDL
MODEL 5
REMARK VINA RESULT:      -7.4      1.757      3.038
REMARK  Name = 
REMARK  3 active torsions:
REMARK  status: ('A' for Active; 'I' for Inactive)
REMARK    1  A    between atoms: C_2  and  C_16
REMARK    2  A    between atoms: N_3  and  C_4
REMARK    3  A    between atoms: C_9  and  N_10
REMARK                            x       y       z     vdW  Elec       q    Type
REMARK                         _______ _______ _______ _____ _____    ______ ____
ROOT
ATOM      1  O   UNL     1       5.424   3.158  18.532  0.00  0.00    +0.000 OA
ATOM      2  C   UNL     1       4.408   3.621  18.012  0.00  0.00    +0.000 C 
ATOM      3  N   UNL     1       4.365   4.271  16.792  0.00  0.00    +0.000 N 
ATOM      4  H   UNL     1       3.508   4.733  16.519  0.00  0.00    +0.000 HD
ENDROOT
BRANCH   2   5
ATOM      5  C   UNL     1       3.049   3.397  18.647  0.00  0.00    +0.000 A 
ATOM      6  C   UNL     1       2.104   4.063  17.946  0.00  0.00    +0.000 A 
ATOM      7  C   UNL     1       1.982   5.458  18.435  0.00  0.00    +0.000 A 
ATOM      8  C   UNL     1       1.945   6.513  17.525  0.00  0.00    +0.000 A 
ATOM      9  C   UNL     1       2.171   7.814  17.977  0.00  0.00    +0.000 A 
ATOM     10  C   UNL     1       2.365   8.063  19.338  0.00  0.00    +0.000 A 
ATOM     11  C   UNL     1       2.331   7.020  20.267  0.00  0.00    +0.000 A 
ATOM     12  C   UNL     1       2.191   5.720  19.805  0.00  0.00    +0.000 A 
ATOM     13  N   UNL     1       2.443   4.633  20.651  0.00  0.00    +0.000 N 
ATOM     14  C   UNL     1       2.904   3.445  20.134  0.00  0.00    +0.000 A 
ATOM     15  O   UNL     1       3.318   2.536  20.845  0.00  0.00    +0.000 OA
ATOM     16  H   UNL     1       2.514   4.759  21.651  0.00  0.00    +0.000 HD
ENDBRANCH   2   5
BRANCH   3  17
ATOM     17  C   UNL     1       5.357   4.250  15.776  0.00  0.00    +0.000 A 
ATOM     18  C   UNL     1       5.051   3.671  14.529  0.00  0.00    +0.000 A 
ATOM     19  C   UNL     1       5.908   3.810  13.436  0.00  0.00    +0.000 A 
ATOM     20  C   UNL     1       7.089   4.517  13.577  0.00  0.00    +0.000 A 
ATOM     21  C   UNL     1       7.412   5.082  14.813  0.00  0.00    +0.000 A 
ATOM     22  C   UNL     1       6.567   4.967  15.937  0.00  0.00    +0.000 A 
BRANCH  22  23
ATOM     23  N   UNL     1       6.995   5.528  17.190  0.00  0.00    +0.000 N 
ATOM     24  C   UNL     1       7.787   4.798  18.160  0.00  0.00    +0.000 C 
ATOM     25  C   UNL     1       7.932   5.753  19.327  0.00  0.00    +0.000 C 
ATOM     26  C   UNL     1       7.965   7.114  18.665  0.00  0.00    +0.000 C 
ATOM     27  C   UNL     1       7.107   6.920  17.440  0.00  0.00    +0.000 C 
ATOM     28  O   UNL     1       6.644   7.850  16.807  0.00  0.00    +0.000 OA
ENDBRANCH  22  23
ENDBRANCH   3  17
TORSDOF 3
ENDMDL
MODEL 6
REMARK VINA RESULT:      -7.3      8.419     11.827
REMARK  Name = 
REMARK  3 active torsions:
REMARK  status: ('A' for Active; 'I' for Inactive)
REMARK    1  A    between atoms: C_2  and  C_16
REMARK    2  A    between atoms: N_3  and  C_4
REMARK    3  A    between atoms: C_9  and  N_10
REMARK                            x       y       z     vdW  Elec       q    Type
REMARK                         _______ _______ _______ _____ _____    ______ ____
ROOT
ATOM      1  O   UNL     1      -2.501  10.451  18.237  0.00  0.00    +0.000 OA
ATOM      2  C   UNL     1      -2.363  11.617  18.605  0.00  0.00    +0.000 C 
ATOM      3  N   UNL     1      -3.399  12.489  18.891  0.00  0.00    +0.000 N 
ATOM      4  H   UNL     1      -3.182  13.463  19.052  0.00  0.00    +0.000 HD
ENDROOT
BRANCH   2   5
ATOM      5  C   UNL     1      -0.982  12.174  18.897  0.00  0.00    +0.000 A 
ATOM      6  C   UNL     1      -0.100  11.157  19.021  0.00  0.00    +0.000 A 
ATOM      7  C   UNL     1      -0.074  10.660  20.418  0.00  0.00    +0.000 A 
ATOM      8  C   UNL     1      -0.129   9.290  20.670  0.00  0.00    +0.000 A 
ATOM      9  C   UNL     1      -0.444   8.842  21.953  0.00  0.00    +0.000 A 
ATOM     10  C   UNL     1      -0.637   9.757  22.991  0.00  0.00    +0.000 A 
ATOM     11  C   UNL     1      -0.513  11.130  22.764  0.00  0.00    +0.000 A 
ATOM     12  C   UNL     1      -0.283  11.575  21.471  0.00  0.00    +0.000 A 
ATOM     13  N   UNL     1      -0.442  12.928  21.144  0.00  0.00    +0.000 N 
ATOM     14  C   UNL     1      -0.821  13.294  19.874  0.00  0.00    +0.000 A 
ATOM     15  O   UNL     1      -1.156  14.439  19.593  0.00  0.00    +0.000 OA
ATOM     16  H   UNL     1      -0.508  13.631  21.866  0.00  0.00    +0.000 HD
ENDBRANCH   2   5
BRANCH   3  17
ATOM     17  C   UNL     1      -4.756  12.152  19.140  0.00  0.00    +0.000 A 
ATOM     18  C   UNL     1      -5.474  11.429  18.167  0.00  0.00    +0.000 A 
ATOM     19  C   UNL     1      -6.732  10.894  18.445  0.00  0.00    +0.000 A 
ATOM     20  C   UNL     1      -7.298  11.086  19.694  0.00  0.00    +0.000 A 
ATOM     21  C   UNL     1      -6.603  11.816  20.662  0.00  0.00    +0.000 A 
ATOM     22  C   UNL     1      -5.327  12.365  20.417  0.00  0.00    +0.000 A 
BRANCH  22  23
ATOM     23  N   UNL     1      -4.699  13.152  21.445  0.00  0.00    +0.000 N 
ATOM     24  C   UNL     1      -3.812  12.592  22.446  0.00  0.00    +0.000 C 
ATOM     25  C   UNL     1      -3.458  13.765  23.336  0.00  0.00    +0.000 C 
ATOM     26  C   UNL     1      -3.457  14.942  22.385  0.00  0.00    +0.000 C 
ATOM     27  C   UNL     1      -4.488  14.551  21.356  0.00  0.00    +0.000 C 
ATOM     28  O   UNL     1      -4.992  15.354  20.594  0.00  0.00    +0.000 OA
ENDBRANCH  22  23
ENDBRANCH   3  17
TORSDOF 3
ENDMDL
MODEL 7
REMARK VINA RESULT:      -7.3      2.236      6.259
REMARK  Name = 
REMARK  3 active torsions:
REMARK  status: ('A' for Active; 'I' for Inactive)
REMARK    1  A    between atoms: C_2  and  C_16
REMARK    2  A    between atoms: N_3  and  C_4
REMARK    3  A    between atoms: C_9  and  N_10
REMARK                            x       y       z     vdW  Elec       q    Type
REMARK                         _______ _______ _______ _____ _____    ______ ____
ROOT
ATOM      1  O   UNL     1       6.326   2.901  15.446  0.00  0.00    +0.000 OA
ATOM      2  C   UNL     1       5.563   3.835  15.199  0.00  0.00    +0.000 C 
ATOM      3  N   UNL     1       4.439   4.161  15.938  0.00  0.00    +0.000 N 
ATOM      4  H   UNL     1       3.806   4.859  15.574  0.00  0.00    +0.000 HD
ENDROOT
BRANCH   2   5
ATOM      5  C   UNL     1       5.879   4.813  14.083  0.00  0.00    +0.000 A 
ATOM      6  C   UNL     1       5.054   4.589  13.036  0.00  0.00    +0.000 A 
ATOM      7  C   UNL     1       5.622   3.553  12.140  0.00  0.00    +0.000 A 
ATOM      8  C   UNL     1       4.817   2.511  11.683  0.00  0.00    +0.000 A 
ATOM      9  C   UNL     1       5.413   1.375  11.136  0.00  0.00    +0.000 A 
ATOM     10  C   UNL     1       6.800   1.311  10.984  0.00  0.00    +0.000 A 
ATOM     11  C   UNL     1       7.611   2.380  11.373  0.00  0.00    +0.000 A 
ATOM     12  C   UNL     1       7.023   3.472  11.994  0.00  0.00    +0.000 A 
ATOM     13  N   UNL     1       7.809   4.422  12.657  0.00  0.00    +0.000 N 
ATOM     14  C   UNL     1       7.302   5.110  13.735  0.00  0.00    +0.000 A 
ATOM     15  O   UNL     1       8.005   5.805  14.460  0.00  0.00    +0.000 OA
ATOM     16  H   UNL     1       8.808   4.459  12.515  0.00  0.00    +0.000 HD
ENDBRANCH   2   5
BRANCH   3  17
ATOM     17  C   UNL     1       4.128   3.731  17.256  0.00  0.00    +0.000 A 
ATOM     18  C   UNL     1       3.198   2.688  17.436  0.00  0.00    +0.000 A 
ATOM     19  C   UNL     1       3.015   2.089  18.683  0.00  0.00    +0.000 A 
ATOM     20  C   UNL     1       3.748   2.532  19.770  0.00  0.00    +0.000 A 
ATOM     21  C   UNL     1       4.661   3.577  19.608  0.00  0.00    +0.000 A 
ATOM     22  C   UNL     1       4.877   4.201  18.361  0.00  0.00    +0.000 A 
BRANCH  22  23
ATOM     23  N   UNL     1       5.793   5.307  18.285  0.00  0.00    +0.000 N 
ATOM     24  C   UNL     1       7.232   5.157  18.383  0.00  0.00    +0.000 C 
ATOM     25  C   UNL     1       7.765   6.573  18.319  0.00  0.00    +0.000 C 
ATOM     26  C   UNL     1       6.781   7.279  17.411  0.00  0.00    +0.000 C 
ATOM     27  C   UNL     1       5.488   6.550  17.674  0.00  0.00    +0.000 C 
ATOM     28  O   UNL     1       4.403   7.004  17.364  0.00  0.00    +0.000 OA
ENDBRANCH  22  23
ENDBRANCH   3  17
TORSDOF 3
ENDMDL
MODEL 8
REMARK VINA RESULT:      -7.2      1.568      6.099
REMARK  Name = 
REMARK  3 active torsions:
REMARK  status: ('A' for Active; 'I' for Inactive)
REMARK    1  A    between atoms: C_2  and  C_16
REMARK    2  A    between atoms: N_3  and  C_4
REMARK    3  A    between atoms: C_9  and  N_10
REMARK                            x       y       z     vdW  Elec       q    Type
REMARK                         _______ _______ _______ _____ _____    ______ ____
ROOT
ATOM      1  O   UNL     1       6.384   5.182  19.732  0.00  0.00    +0.000 OA
ATOM      2  C   UNL     1       5.619   5.544  18.838  0.00  0.00    +0.000 C 
ATOM      3  N   UNL     1       4.352   5.032  18.619  0.00  0.00    +0.000 N 
ATOM      4  H   UNL     1       3.860   5.299  17.777  0.00  0.00    +0.000 HD
ENDROOT
BRANCH   2   5
ATOM      5  C   UNL     1       5.982   6.712  17.940  0.00  0.00    +0.000 A 
ATOM      6  C   UNL     1       5.115   6.776  16.905  0.00  0.00    +0.000 A 
ATOM      7  C   UNL     1       5.576   5.917  15.788  0.00  0.00    +0.000 A 
ATOM      8  C   UNL     1       4.680   5.057  15.156  0.00  0.00    +0.000 A 
ATOM      9  C   UNL     1       5.171   4.024  14.357  0.00  0.00    +0.000 A 
ATOM     10  C   UNL     1       6.544   3.895  14.137  0.00  0.00    +0.000 A 
ATOM     11  C   UNL     1       7.446   4.796  14.708  0.00  0.00    +0.000 A 
ATOM     12  C   UNL     1       6.962   5.770  15.569  0.00  0.00    +0.000 A 
ATOM     13  N   UNL     1       7.837   6.498  16.384  0.00  0.00    +0.000 N 
ATOM     14  C   UNL     1       7.414   6.975  17.603  0.00  0.00    +0.000 A 
ATOM     15  O   UNL     1       8.188   7.447  18.428  0.00  0.00    +0.000 OA
ATOM     16  H   UNL     1       8.832   6.493  16.211  0.00  0.00    +0.000 HD
ENDBRANCH   2   5
BRANCH   3  17
ATOM     17  C   UNL     1       3.570   4.269  19.527  0.00  0.00    +0.000 A 
ATOM     18  C   UNL     1       3.937   2.936  19.799  0.00  0.00    +0.000 A 
ATOM     19  C   UNL     1       3.334   2.216  20.831  0.00  0.00    +0.000 A 
ATOM     20  C   UNL     1       2.348   2.811  21.597  0.00  0.00    +0.000 A 
ATOM     21  C   UNL     1       1.963   4.127  21.327  0.00  0.00    +0.000 A 
ATOM     22  C   UNL     1       2.555   4.887  20.295  0.00  0.00    +0.000 A 
BRANCH  22  23
ATOM     23  N   UNL     1       2.066   6.216  20.041  0.00  0.00    +0.000 N 
ATOM     24  C   UNL     1       2.061   7.266  21.041  0.00  0.00    +0.000 C 
ATOM     25  C   UNL     1       1.404   8.443  20.349  0.00  0.00    +0.000 C 
ATOM     26  C   UNL     1       1.831   8.285  18.906  0.00  0.00    +0.000 C 
ATOM     27  C   UNL     1       1.967   6.792  18.749  0.00  0.00    +0.000 C 
ATOM     28  O   UNL     1       2.003   6.245  17.663  0.00  0.00    +0.000 OA
ENDBRANCH  22  23
ENDBRANCH   3  17
TORSDOF 3
ENDMDL
MODEL 9
REMARK VINA RESULT:      -7.2      1.953      2.992
REMARK  Name = 
REMARK  3 active torsions:
REMARK  status: ('A' for Active; 'I' for Inactive)
REMARK    1  A    between atoms: C_2  and  C_16
REMARK    2  A    between atoms: N_3  and  C_4
REMARK    3  A    between atoms: C_9  and  N_10
REMARK                            x       y       z     vdW  Elec       q    Type
REMARK                         _______ _______ _______ _____ _____    ______ ____
ROOT
ATOM      1  O   UNL     1       5.208   2.940  17.505  0.00  0.00    +0.000 OA
ATOM      2  C   UNL     1       4.237   3.384  16.893  0.00  0.00    +0.000 C 
ATOM      3  N   UNL     1       4.299   4.082  15.700  0.00  0.00    +0.000 N 
ATOM      4  H   UNL     1       3.458   4.521  15.351  0.00  0.00    +0.000 HD
ENDROOT
BRANCH   2   5
ATOM      5  C   UNL     1       2.827   3.084  17.366  0.00  0.00    +0.000 A 
ATOM      6  C   UNL     1       2.007   4.105  17.028  0.00  0.00    +0.000 A 
ATOM      7  C   UNL     1       2.020   5.151  18.080  0.00  0.00    +0.000 A 
ATOM      8  C   UNL     1       2.158   6.492  17.726  0.00  0.00    +0.000 A 
ATOM      9  C   UNL     1       2.507   7.424  18.703  0.00  0.00    +0.000 A 
ATOM     10  C   UNL     1       2.652   7.030  20.035  0.00  0.00    +0.000 A 
ATOM     11  C   UNL     1       2.445   5.700  20.412  0.00  0.00    +0.000 A 
ATOM     12  C   UNL     1       2.180   4.761  19.426  0.00  0.00    +0.000 A 
ATOM     13  N   UNL     1       2.256   3.391  19.709  0.00  0.00    +0.000 N 
ATOM     14  C   UNL     1       2.605   2.498  18.723  0.00  0.00    +0.000 A 
ATOM     15  O   UNL     1       2.869   1.325  18.963  0.00  0.00    +0.000 OA
ATOM     16  H   UNL     1       2.285   3.060  20.663  0.00  0.00    +0.000 HD
ENDBRANCH   2   5
BRANCH   3  17
ATOM     17  C   UNL     1       5.396   4.138  14.799  0.00  0.00    +0.000 A 
ATOM     18  C   UNL     1       5.309   3.461  13.567  0.00  0.00    +0.000 A 
ATOM     19  C   UNL     1       6.261   3.655  12.566  0.00  0.00    +0.000 A 
ATOM     20  C   UNL     1       7.321   4.518  12.785  0.00  0.00    +0.000 A 
ATOM     21  C   UNL     1       7.427   5.183  14.009  0.00  0.00    +0.000 A 
ATOM     22  C   UNL     1       6.480   5.016  15.041  0.00  0.00    +0.000 A 
BRANCH  22  23
ATOM     23  N   UNL     1       6.688   5.692  16.293  0.00  0.00    +0.000 N 
ATOM     24  C   UNL     1       5.821   6.746  16.783  0.00  0.00    +0.000 C 
ATOM     25  C   UNL     1       6.462   7.193  18.080  0.00  0.00    +0.000 C 
ATOM     26  C   UNL     1       7.081   5.922  18.622  0.00  0.00    +0.000 C 
ATOM     27  C   UNL     1       7.430   5.152  17.374  0.00  0.00    +0.000 C 
ATOM     28  O   UNL     1       8.209   4.217  17.375  0.00  0.00    +0.000 OA
ENDBRANCH  22  23
ENDBRANCH   3  17
TORSDOF 3
ENDMDL
