MODEL 1
REMARK VINA RESULT:      -8.7      0.000      0.000
REMARK  Name = 
REMARK  3 active torsions:
REMARK  status: ('A' for Active; 'I' for Inactive)
REMARK    1  A    between atoms: C_8  and  S_9
REMARK    2  A    between atoms: S_9  and  N_12
REMARK    3  A    between atoms: C_15  and  C_16
REMARK                            x       y       z     vdW  Elec       q    Type
REMARK                         _______ _______ _______ _____ _____    ______ ____
ROOT
ATOM      1  S   UNL     1       2.654   4.461  19.584  0.00  0.00    +0.000 S 
ATOM      2  O   UNL     1       3.259   4.387  20.899  0.00  0.00    +0.000 OA
ATOM      3  O   UNL     1       1.447   3.711  19.294  0.00  0.00    +0.000 OA
ENDROOT
BRANCH   1  11
ATOM      4  O   UNL     1       0.319  11.109  21.949  0.00  0.00    +0.000 OA
ATOM      5  C   UNL     1       0.819  10.438  21.047  0.00  0.00    +0.000 C 
ATOM      6  C   UNL     1       1.281  11.032  19.719  0.00  0.00    +0.000 C 
ATOM      7  O   UNL     1       1.468  10.186  18.591  0.00  0.00    +0.000 OA
ATOM      8  C   UNL     1       1.757   8.887  18.898  0.00  0.00    +0.000 A 
ATOM      9  C   UNL     1       2.228   8.095  17.847  0.00  0.00    +0.000 A 
ATOM     10  C   UNL     1       2.503   6.748  18.057  0.00  0.00    +0.000 A 
ATOM     11  C   UNL     1       2.285   6.186  19.315  0.00  0.00    +0.000 A 
ATOM     12  C   UNL     1       1.842   6.976  20.385  0.00  0.00    +0.000 A 
ATOM     13  C   UNL     1       1.569   8.323  20.162  0.00  0.00    +0.000 A 
ATOM     14  N   UNL     1       1.070   9.103  21.208  0.00  0.00    +0.000 N 
ATOM     15  H   UNL     1       0.844   8.699  22.108  0.00  0.00    +0.000 HD
ENDBRANCH   1  11
BRANCH   1  16
ATOM     16  N   UNL     1       3.834   4.106  18.418  0.00  0.00    +0.000 N 
ATOM     17  C   UNL     1       3.579   2.999  17.480  0.00  0.00    +0.000 C 
ATOM     18  C   UNL     1       3.912   3.521  16.097  0.00  0.00    +0.000 C 
ATOM     19  C   UNL     1       5.399   3.886  15.991  0.00  0.00    +0.000 C 
ATOM     20  C   UNL     1       5.953   4.533  17.264  0.00  0.00    +0.000 A 
ATOM     21  C   UNL     1       7.277   5.015  17.265  0.00  0.00    +0.000 A 
ATOM     22  C   UNL     1       7.822   5.608  18.400  0.00  0.00    +0.000 A 
ATOM     23  C   UNL     1       7.069   5.689  19.563  0.00  0.00    +0.000 A 
ATOM     24  C   UNL     1       5.765   5.185  19.589  0.00  0.00    +0.000 A 
ATOM     25  C   UNL     1       5.187   4.610  18.451  0.00  0.00    +0.000 A 
BRANCH  19  26
ATOM     26  C   UNL     1       5.647   4.677  14.692  0.00  0.00    +0.000 C 
ATOM     27  F   UNL     1       6.955   4.706  14.348  0.00  0.00    +0.000 F 
ATOM     28  F   UNL     1       4.971   4.197  13.627  0.00  0.00    +0.000 F 
ATOM     29  F   UNL     1       5.260   5.967  14.861  0.00  0.00    +0.000 F 
ENDBRANCH  19  26
ENDBRANCH   1  16
TORSDOF 3
ENDMDL
MODEL 2
REMARK VINA RESULT:      -7.7      1.237      2.026
REMARK  Name = 
REMARK  3 active torsions:
REMARK  status: ('A' for Active; 'I' for Inactive)
REMARK    1  A    between atoms: C_8  and  S_9
REMARK    2  A    between atoms: S_9  and  N_12
REMARK    3  A    between atoms: C_15  and  C_16
REMARK                            x       y       z     vdW  Elec       q    Type
REMARK                         _______ _______ _______ _____ _____    ______ ____
ROOT
ATOM      1  S   UNL     1       2.942   3.414  19.375  0.00  0.00    +0.000 S 
ATOM      2  O   UNL     1       3.525   2.969  20.626  0.00  0.00    +0.000 OA
ATOM      3  O   UNL     1       1.797   2.720  18.817  0.00  0.00    +0.000 OA
ENDROOT
BRANCH   1  11
ATOM      4  O   UNL     1       2.348  10.484  17.161  0.00  0.00    +0.000 OA
ATOM      5  C   UNL     1       2.084   9.628  18.004  0.00  0.00    +0.000 C 
ATOM      6  C   UNL     1       1.227   9.904  19.238  0.00  0.00    +0.000 C 
ATOM      7  O   UNL     1       1.287   9.024  20.353  0.00  0.00    +0.000 OA
ATOM      8  C   UNL     1       1.656   7.745  20.048  0.00  0.00    +0.000 A 
ATOM      9  C   UNL     1       1.450   6.789  21.046  0.00  0.00    +0.000 A 
ATOM     10  C   UNL     1       1.840   5.470  20.840  0.00  0.00    +0.000 A 
ATOM     11  C   UNL     1       2.458   5.110  19.641  0.00  0.00    +0.000 A 
ATOM     12  C   UNL     1       2.641   6.053  18.620  0.00  0.00    +0.000 A 
ATOM     13  C   UNL     1       2.248   7.371  18.839  0.00  0.00    +0.000 A 
ATOM     14  N   UNL     1       2.483   8.328  17.850  0.00  0.00    +0.000 N 
ATOM     15  H   UNL     1       2.987   8.101  17.002  0.00  0.00    +0.000 HD
ENDBRANCH   1  11
BRANCH   1  16
ATOM     16  N   UNL     1       4.167   3.514  18.207  0.00  0.00    +0.000 N 
ATOM     17  C   UNL     1       4.177   2.522  17.117  0.00  0.00    +0.000 C 
ATOM     18  C   UNL     1       4.371   3.298  15.830  0.00  0.00    +0.000 C 
ATOM     19  C   UNL     1       5.730   4.012  15.819  0.00  0.00    +0.000 C 
ATOM     20  C   UNL     1       6.121   4.584  17.184  0.00  0.00    +0.000 A 
ATOM     21  C   UNL     1       7.293   5.358  17.292  0.00  0.00    +0.000 A 
ATOM     22  C   UNL     1       7.688   5.895  18.513  0.00  0.00    +0.000 A 
ATOM     23  C   UNL     1       6.943   5.631  19.654  0.00  0.00    +0.000 A 
ATOM     24  C   UNL     1       5.794   4.838  19.571  0.00  0.00    +0.000 A 
ATOM     25  C   UNL     1       5.363   4.311  18.348  0.00  0.00    +0.000 A 
BRANCH  19  26
ATOM     26  C   UNL     1       5.778   5.015  14.650  0.00  0.00    +0.000 C 
ATOM     27  F   UNL     1       5.225   6.207  14.971  0.00  0.00    +0.000 F 
ATOM     28  F   UNL     1       7.026   5.267  14.203  0.00  0.00    +0.000 F 
ATOM     29  F   UNL     1       5.071   4.528  13.599  0.00  0.00    +0.000 F 
ENDBRANCH  19  26
ENDBRANCH   1  16
TORSDOF 3
ENDMDL
MODEL 3
REMARK VINA RESULT:      -7.3      4.272      6.119
REMARK  Name = 
REMARK  3 active torsions:
REMARK  status: ('A' for Active; 'I' for Inactive)
REMARK    1  A    between atoms: C_8  and  S_9
REMARK    2  A    between atoms: S_9  and  N_12
REMARK    3  A    between atoms: C_15  and  C_16
REMARK                            x       y       z     vdW  Elec       q    Type
REMARK                         _______ _______ _______ _____ _____    ______ ____
ROOT
ATOM      1  S   UNL     1       5.190   4.500  16.273  0.00  0.00    +0.000 S 
ATOM      2  O   UNL     1       4.675   5.326  15.199  0.00  0.00    +0.000 OA
ATOM      3  O   UNL     1       5.875   3.258  15.973  0.00  0.00    +0.000 OA
ENDROOT
BRANCH   1  11
ATOM      4  O   UNL     1       8.492  11.028  17.586  0.00  0.00    +0.000 OA
ATOM      5  C   UNL     1       8.309   9.862  17.933  0.00  0.00    +0.000 C 
ATOM      6  C   UNL     1       8.909   9.261  19.203  0.00  0.00    +0.000 C 
ATOM      7  O   UNL     1       9.001   7.849  19.343  0.00  0.00    +0.000 OA
ATOM      8  C   UNL     1       8.079   7.145  18.622  0.00  0.00    +0.000 A 
ATOM      9  C   UNL     1       7.943   5.793  18.947  0.00  0.00    +0.000 A 
ATOM     10  C   UNL     1       7.062   4.988  18.233  0.00  0.00    +0.000 A 
ATOM     11  C   UNL     1       6.331   5.532  17.176  0.00  0.00    +0.000 A 
ATOM     12  C   UNL     1       6.434   6.894  16.860  0.00  0.00    +0.000 A 
ATOM     13  C   UNL     1       7.322   7.689  17.581  0.00  0.00    +0.000 A 
ATOM     14  N   UNL     1       7.475   9.033  17.233  0.00  0.00    +0.000 N 
ATOM     15  H   UNL     1       7.004   9.428  16.430  0.00  0.00    +0.000 HD
ENDBRANCH   1  11
BRANCH   1  16
ATOM     16  N   UNL     1       3.939   4.202  17.380  0.00  0.00    +0.000 N 
ATOM     17  C   UNL     1       3.275   2.887  17.348  0.00  0.00    +0.000 C 
ATOM     18  C   UNL     1       3.205   2.405  18.782  0.00  0.00    +0.000 C 
ATOM     19  C   UNL     1       2.337   3.341  19.635  0.00  0.00    +0.000 C 
ATOM     20  C   UNL     1       2.517   4.819  19.278  0.00  0.00    +0.000 A 
ATOM     21  C   UNL     1       1.862   5.795  20.055  0.00  0.00    +0.000 A 
ATOM     22  C   UNL     1       1.994   7.149  19.766  0.00  0.00    +0.000 A 
ATOM     23  C   UNL     1       2.747   7.549  18.670  0.00  0.00    +0.000 A 
ATOM     24  C   UNL     1       3.377   6.591  17.868  0.00  0.00    +0.000 A 
ATOM     25  C   UNL     1       3.281   5.225  18.158  0.00  0.00    +0.000 A 
BRANCH  19  26
ATOM     26  C   UNL     1       2.519   3.000  21.127  0.00  0.00    +0.000 C 
ATOM     27  F   UNL     1       3.650   2.296  21.360  0.00  0.00    +0.000 F 
ATOM     28  F   UNL     1       2.557   4.084  21.929  0.00  0.00    +0.000 F 
ATOM     29  F   UNL     1       1.486   2.228  21.549  0.00  0.00    +0.000 F 
ENDBRANCH  19  26
ENDBRANCH   1  16
TORSDOF 3
ENDMDL
MODEL 4
REMARK VINA RESULT:      -7.3      4.253      8.180
REMARK  Name = 
REMARK  3 active torsions:
REMARK  status: ('A' for Active; 'I' for Inactive)
REMARK    1  A    between atoms: C_8  and  S_9
REMARK    2  A    between atoms: S_9  and  N_12
REMARK    3  A    between atoms: C_15  and  C_16
REMARK                            x       y       z     vdW  Elec       q    Type
REMARK                         _______ _______ _______ _____ _____    ______ ____
ROOT
ATOM      1  S   UNL     1       0.777   8.806  21.331  0.00  0.00    +0.000 S 
ATOM      2  O   UNL     1      -0.275   8.119  22.054  0.00  0.00    +0.000 OA
ATOM      3  O   UNL     1       1.801   9.537  22.053  0.00  0.00    +0.000 OA
ENDROOT
BRANCH   1  11
ATOM      4  O   UNL     1       5.204   6.694  15.746  0.00  0.00    +0.000 OA
ATOM      5  C   UNL     1       4.559   6.376  16.745  0.00  0.00    +0.000 C 
ATOM      6  C   UNL     1       4.526   4.956  17.305  0.00  0.00    +0.000 C 
ATOM      7  O   UNL     1       3.480   4.567  18.187  0.00  0.00    +0.000 OA
ATOM      8  C   UNL     1       2.919   5.593  18.891  0.00  0.00    +0.000 A 
ATOM      9  C   UNL     1       2.102   5.231  19.965  0.00  0.00    +0.000 A 
ATOM     10  C   UNL     1       1.451   6.210  20.709  0.00  0.00    +0.000 A 
ATOM     11  C   UNL     1       1.601   7.553  20.364  0.00  0.00    +0.000 A 
ATOM     12  C   UNL     1       2.443   7.933  19.309  0.00  0.00    +0.000 A 
ATOM     13  C   UNL     1       3.087   6.943  18.570  0.00  0.00    +0.000 A 
ATOM     14  N   UNL     1       3.879   7.309  17.480  0.00  0.00    +0.000 N 
ATOM     15  H   UNL     1       3.947   8.272  17.175  0.00  0.00    +0.000 HD
ENDBRANCH   1  11
BRANCH   1  16
ATOM     16  N   UNL     1       0.069   9.822  20.171  0.00  0.00    +0.000 N 
ATOM     17  C   UNL     1       0.665   9.867  18.824  0.00  0.00    +0.000 C 
ATOM     18  C   UNL     1      -0.481   9.737  17.841  0.00  0.00    +0.000 C 
ATOM     19  C   UNL     1      -1.445  10.925  17.961  0.00  0.00    +0.000 C 
ATOM     20  C   UNL     1      -1.656  11.386  19.407  0.00  0.00    +0.000 A 
ATOM     21  C   UNL     1      -2.599  12.398  19.671  0.00  0.00    +0.000 A 
ATOM     22  C   UNL     1      -2.822  12.849  20.968  0.00  0.00    +0.000 A 
ATOM     23  C   UNL     1      -2.075  12.328  22.016  0.00  0.00    +0.000 A 
ATOM     24  C   UNL     1      -1.111  11.345  21.766  0.00  0.00    +0.000 A 
ATOM     25  C   UNL     1      -0.890  10.857  20.474  0.00  0.00    +0.000 A 
BRANCH  19  26
ATOM     26  C   UNL     1      -2.735  10.628  17.173  0.00  0.00    +0.000 C 
ATOM     27  F   UNL     1      -3.598   9.854  17.871  0.00  0.00    +0.000 F 
ATOM     28  F   UNL     1      -3.411  11.735  16.802  0.00  0.00    +0.000 F 
ATOM     29  F   UNL     1      -2.433   9.947  16.039  0.00  0.00    +0.000 F 
ENDBRANCH  19  26
ENDBRANCH   1  16
TORSDOF 3
ENDMDL
MODEL 5
REMARK VINA RESULT:      -7.2      4.612      8.666
REMARK  Name = 
REMARK  3 active torsions:
REMARK  status: ('A' for Active; 'I' for Inactive)
REMARK    1  A    between atoms: C_8  and  S_9
REMARK    2  A    between atoms: S_9  and  N_12
REMARK    3  A    between atoms: C_15  and  C_16
REMARK                            x       y       z     vdW  Elec       q    Type
REMARK                         _______ _______ _______ _____ _____    ______ ____
ROOT
ATOM      1  S   UNL     1       0.450   9.615  20.966  0.00  0.00    +0.000 S 
ATOM      2  O   UNL     1      -0.390   8.707  21.721  0.00  0.00    +0.000 OA
ATOM      3  O   UNL     1       1.330  10.538  21.657  0.00  0.00    +0.000 OA
ENDROOT
BRANCH   1  11
ATOM      4  O   UNL     1       4.294   3.386  19.674  0.00  0.00    +0.000 OA
ATOM      5  C   UNL     1       3.847   4.446  19.238  0.00  0.00    +0.000 C 
ATOM      6  C   UNL     1       4.001   4.887  17.784  0.00  0.00    +0.000 C 
ATOM      7  O   UNL     1       3.831   6.255  17.437  0.00  0.00    +0.000 OA
ATOM      8  C   UNL     1       3.025   6.960  18.284  0.00  0.00    +0.000 A 
ATOM      9  C   UNL     1       2.599   8.212  17.832  0.00  0.00    +0.000 A 
ATOM     10  C   UNL     1       1.814   9.020  18.648  0.00  0.00    +0.000 A 
ATOM     11  C   UNL     1       1.471   8.583  19.929  0.00  0.00    +0.000 A 
ATOM     12  C   UNL     1       1.865   7.316  20.382  0.00  0.00    +0.000 A 
ATOM     13  C   UNL     1       2.653   6.518  19.557  0.00  0.00    +0.000 A 
ATOM     14  N   UNL     1       3.100   5.281  20.025  0.00  0.00    +0.000 N 
ATOM     15  H   UNL     1       2.917   4.976  20.972  0.00  0.00    +0.000 HD
ENDBRANCH   1  11
BRANCH   1  16
ATOM     16  N   UNL     1      -0.519  10.471  19.868  0.00  0.00    +0.000 N 
ATOM     17  C   UNL     1      -0.114  10.497  18.451  0.00  0.00    +0.000 C 
ATOM     18  C   UNL     1      -1.355  10.180  17.643  0.00  0.00    +0.000 C 
ATOM     19  C   UNL     1      -2.429  11.260  17.838  0.00  0.00    +0.000 C 
ATOM     20  C   UNL     1      -2.501  11.784  19.276  0.00  0.00    +0.000 A 
ATOM     21  C   UNL     1      -3.514  12.701  19.620  0.00  0.00    +0.000 A 
ATOM     22  C   UNL     1      -3.616  13.204  20.912  0.00  0.00    +0.000 A 
ATOM     23  C   UNL     1      -2.682  12.835  21.870  0.00  0.00    +0.000 A 
ATOM     24  C   UNL     1      -1.650  11.952  21.537  0.00  0.00    +0.000 A 
ATOM     25  C   UNL     1      -1.545  11.411  20.251  0.00  0.00    +0.000 A 
BRANCH  19  26
ATOM     26  C   UNL     1      -3.767  10.773  17.250  0.00  0.00    +0.000 C 
ATOM     27  F   UNL     1      -4.534  10.141  18.168  0.00  0.00    +0.000 F 
ATOM     28  F   UNL     1      -4.519  11.762  16.723  0.00  0.00    +0.000 F 
ATOM     29  F   UNL     1      -3.533   9.879  16.257  0.00  0.00    +0.000 F 
ENDBRANCH  19  26
ENDBRANCH   1  16
TORSDOF 3
ENDMDL
MODEL 6
REMARK VINA RESULT:      -7.2      5.005      9.190
REMARK  Name = 
REMARK  3 active torsions:
REMARK  status: ('A' for Active; 'I' for Inactive)
REMARK    1  A    between atoms: C_8  and  S_9
REMARK    2  A    between atoms: S_9  and  N_12
REMARK    3  A    between atoms: C_15  and  C_16
REMARK                            x       y       z     vdW  Elec       q    Type
REMARK                         _______ _______ _______ _____ _____    ______ ____
ROOT
ATOM      1  S   UNL     1       0.274  11.210  21.007  0.00  0.00    +0.000 S 
ATOM      2  O   UNL     1      -0.289  10.637  22.214  0.00  0.00    +0.000 OA
ATOM      3  O   UNL     1       1.252  12.277  21.095  0.00  0.00    +0.000 OA
ENDROOT
BRANCH   1  11
ATOM      4  O   UNL     1       2.775   4.219  20.669  0.00  0.00    +0.000 OA
ATOM      5  C   UNL     1       2.535   5.272  20.079  0.00  0.00    +0.000 C 
ATOM      6  C   UNL     1       2.735   5.455  18.576  0.00  0.00    +0.000 C 
ATOM      7  O   UNL     1       2.830   6.764  18.029  0.00  0.00    +0.000 OA
ATOM      8  C   UNL     1       2.202   7.732  18.759  0.00  0.00    +0.000 A 
ATOM      9  C   UNL     1       2.020   8.964  18.124  0.00  0.00    +0.000 A 
ATOM     10  C   UNL     1       1.432  10.022  18.809  0.00  0.00    +0.000 A 
ATOM     11  C   UNL     1       1.043   9.854  20.138  0.00  0.00    +0.000 A 
ATOM     12  C   UNL     1       1.190   8.615  20.777  0.00  0.00    +0.000 A 
ATOM     13  C   UNL     1       1.784   7.564  20.082  0.00  0.00    +0.000 A 
ATOM     14  N   UNL     1       1.989   6.344  20.730  0.00  0.00    +0.000 N 
ATOM     15  H   UNL     1       1.774   6.224  21.712  0.00  0.00    +0.000 HD
ENDBRANCH   1  11
BRANCH   1  16
ATOM     16  N   UNL     1      -0.994  11.687  19.986  0.00  0.00    +0.000 N 
ATOM     17  C   UNL     1      -0.684  11.973  18.574  0.00  0.00    +0.000 C 
ATOM     18  C   UNL     1      -1.727  11.248  17.748  0.00  0.00    +0.000 C 
ATOM     19  C   UNL     1      -3.132  11.795  18.035  0.00  0.00    +0.000 C 
ATOM     20  C   UNL     1      -3.354  12.142  19.510  0.00  0.00    +0.000 A 
ATOM     21  C   UNL     1      -4.635  12.553  19.931  0.00  0.00    +0.000 A 
ATOM     22  C   UNL     1      -4.881  12.880  21.260  0.00  0.00    +0.000 A 
ATOM     23  C   UNL     1      -3.843  12.845  22.182  0.00  0.00    +0.000 A 
ATOM     24  C   UNL     1      -2.558  12.471  21.774  0.00  0.00    +0.000 A 
ATOM     25  C   UNL     1      -2.294  12.111  20.448  0.00  0.00    +0.000 A 
BRANCH  19  26
ATOM     26  C   UNL     1      -4.189  10.859  17.416  0.00  0.00    +0.000 C 
ATOM     27  F   UNL     1      -4.882  10.173  18.353  0.00  0.00    +0.000 F 
ATOM     28  F   UNL     1      -5.094  11.498  16.646  0.00  0.00    +0.000 F 
ATOM     29  F   UNL     1      -3.579   9.936  16.630  0.00  0.00    +0.000 F 
ENDBRANCH  19  26
ENDBRANCH   1  16
TORSDOF 3
ENDMDL
MODEL 7
REMARK VINA RESULT:      -7.1      4.175      8.282
REMARK  Name = 
REMARK  3 active torsions:
REMARK  status: ('A' for Active; 'I' for Inactive)
REMARK    1  A    between atoms: C_8  and  S_9
REMARK    2  A    between atoms: S_9  and  N_12
REMARK    3  A    between atoms: C_15  and  C_16
REMARK                            x       y       z     vdW  Elec       q    Type
REMARK                         _______ _______ _______ _____ _____    ______ ____
ROOT
ATOM      1  S   UNL     1       0.380   9.059  21.517  0.00  0.00    +0.000 S 
ATOM      2  O   UNL     1      -0.791   8.207  21.577  0.00  0.00    +0.000 OA
ATOM      3  O   UNL     1       1.203   9.251  22.695  0.00  0.00    +0.000 OA
ENDROOT
BRANCH   1  11
ATOM      4  O   UNL     1       4.699   3.646  18.819  0.00  0.00    +0.000 OA
ATOM      5  C   UNL     1       4.126   4.718  18.627  0.00  0.00    +0.000 C 
ATOM      6  C   UNL     1       4.141   5.449  17.286  0.00  0.00    +0.000 C 
ATOM      7  O   UNL     1       3.820   6.832  17.231  0.00  0.00    +0.000 OA
ATOM      8  C   UNL     1       3.009   7.269  18.239  0.00  0.00    +0.000 A 
ATOM      9  C   UNL     1       2.438   8.533  18.068  0.00  0.00    +0.000 A 
ATOM     10  C   UNL     1       1.636   9.077  19.066  0.00  0.00    +0.000 A 
ATOM     11  C   UNL     1       1.422   8.364  20.246  0.00  0.00    +0.000 A 
ATOM     12  C   UNL     1       1.963   7.082  20.417  0.00  0.00    +0.000 A 
ATOM     13  C   UNL     1       2.766   6.549  19.412  0.00  0.00    +0.000 A 
ATOM     14  N   UNL     1       3.358   5.298  19.599  0.00  0.00    +0.000 N 
ATOM     15  H   UNL     1       3.267   4.796  20.473  0.00  0.00    +0.000 HD
ENDBRANCH   1  11
BRANCH   1  16
ATOM     16  N   UNL     1      -0.076  10.570  20.894  0.00  0.00    +0.000 N 
ATOM     17  C   UNL     1       0.018  11.747  21.776  0.00  0.00    +0.000 C 
ATOM     18  C   UNL     1       0.711  12.831  20.975  0.00  0.00    +0.000 C 
ATOM     19  C   UNL     1      -0.127  13.232  19.754  0.00  0.00    +0.000 C 
ATOM     20  C   UNL     1      -0.827  12.045  19.087  0.00  0.00    +0.000 A 
ATOM     21  C   UNL     1      -1.543  12.256  17.891  0.00  0.00    +0.000 A 
ATOM     22  C   UNL     1      -2.196  11.207  17.252  0.00  0.00    +0.000 A 
ATOM     23  C   UNL     1      -2.182   9.940  17.820  0.00  0.00    +0.000 A 
ATOM     24  C   UNL     1      -1.504   9.720  19.024  0.00  0.00    +0.000 A 
ATOM     25  C   UNL     1      -0.817  10.755  19.669  0.00  0.00    +0.000 A 
BRANCH  19  26
ATOM     26  C   UNL     1       0.719  14.109  18.810  0.00  0.00    +0.000 C 
ATOM     27  F   UNL     1       1.325  13.385  17.841  0.00  0.00    +0.000 F 
ATOM     28  F   UNL     1       0.013  15.080  18.193  0.00  0.00    +0.000 F 
ATOM     29  F   UNL     1       1.705  14.720  19.514  0.00  0.00    +0.000 F 
ENDBRANCH  19  26
ENDBRANCH   1  16
TORSDOF 3
ENDMDL
MODEL 8
REMARK VINA RESULT:      -7.1      3.605      7.297
REMARK  Name = 
REMARK  3 active torsions:
REMARK  status: ('A' for Active; 'I' for Inactive)
REMARK    1  A    between atoms: C_8  and  S_9
REMARK    2  A    between atoms: S_9  and  N_12
REMARK    3  A    between atoms: C_15  and  C_16
REMARK                            x       y       z     vdW  Elec       q    Type
REMARK                         _______ _______ _______ _____ _____    ______ ____
ROOT
ATOM      1  S   UNL     1       2.362   5.695  19.623  0.00  0.00    +0.000 S 
ATOM      2  O   UNL     1       1.376   4.843  18.989  0.00  0.00    +0.000 OA
ATOM      3  O   UNL     1       2.674   5.527  21.029  0.00  0.00    +0.000 OA
ENDROOT
BRANCH   1  11
ATOM      4  O   UNL     1       6.068   3.744  13.483  0.00  0.00    +0.000 OA
ATOM      5  C   UNL     1       6.103   4.223  14.616  0.00  0.00    +0.000 C 
ATOM      6  C   UNL     1       7.379   4.760  15.260  0.00  0.00    +0.000 C 
ATOM      7  O   UNL     1       7.447   4.921  16.671  0.00  0.00    +0.000 OA
ATOM      8  C   UNL     1       6.240   5.114  17.279  0.00  0.00    +0.000 A 
ATOM      9  C   UNL     1       6.280   5.560  18.602  0.00  0.00    +0.000 A 
ATOM     10  C   UNL     1       5.099   5.739  19.316  0.00  0.00    +0.000 A 
ATOM     11  C   UNL     1       3.875   5.449  18.710  0.00  0.00    +0.000 A 
ATOM     12  C   UNL     1       3.819   5.031  17.373  0.00  0.00    +0.000 A 
ATOM     13  C   UNL     1       5.009   4.854  16.670  0.00  0.00    +0.000 A 
ATOM     14  N   UNL     1       4.964   4.380  15.358  0.00  0.00    +0.000 N 
ATOM     15  H   UNL     1       4.093   4.103  14.924  0.00  0.00    +0.000 HD
ENDBRANCH   1  11
BRANCH   1  16
ATOM     16  N   UNL     1       1.959   7.315  19.322  0.00  0.00    +0.000 N 
ATOM     17  C   UNL     1       2.373   7.912  18.040  0.00  0.00    +0.000 C 
ATOM     18  C   UNL     1       1.159   8.630  17.486  0.00  0.00    +0.000 C 
ATOM     19  C   UNL     1       0.728   9.775  18.414  0.00  0.00    +0.000 C 
ATOM     20  C   UNL     1       0.868   9.432  19.899  0.00  0.00    +0.000 A 
ATOM     21  C   UNL     1       0.406  10.353  20.861  0.00  0.00    +0.000 A 
ATOM     22  C   UNL     1       0.515  10.084  22.221  0.00  0.00    +0.000 A 
ATOM     23  C   UNL     1       1.126   8.912  22.644  0.00  0.00    +0.000 A 
ATOM     24  C   UNL     1       1.619   8.002  21.704  0.00  0.00    +0.000 A 
ATOM     25  C   UNL     1       1.495   8.239  20.330  0.00  0.00    +0.000 A 
BRANCH  19  26
ATOM     26  C   UNL     1      -0.660  10.292  17.988  0.00  0.00    +0.000 C 
ATOM     27  F   UNL     1      -0.709  11.642  17.922  0.00  0.00    +0.000 F 
ATOM     28  F   UNL     1      -1.068   9.824  16.790  0.00  0.00    +0.000 F 
ATOM     29  F   UNL     1      -1.590   9.913  18.901  0.00  0.00    +0.000 F 
ENDBRANCH  19  26
ENDBRANCH   1  16
TORSDOF 3
ENDMDL
MODEL 9
REMARK VINA RESULT:      -7.1      3.459      5.193
REMARK  Name = 
REMARK  3 active torsions:
REMARK  status: ('A' for Active; 'I' for Inactive)
REMARK    1  A    between atoms: C_8  and  S_9
REMARK    2  A    between atoms: S_9  and  N_12
REMARK    3  A    between atoms: C_15  and  C_16
REMARK                            x       y       z     vdW  Elec       q    Type
REMARK                         _______ _______ _______ _____ _____    ______ ____
ROOT
ATOM      1  S   UNL     1       1.458   9.412  18.209  0.00  0.00    +0.000 S 
ATOM      2  O   UNL     1       0.343   9.030  17.364  0.00  0.00    +0.000 OA
ATOM      3  O   UNL     1       2.547  10.200  17.666  0.00  0.00    +0.000 OA
ENDROOT
BRANCH   1  11
ATOM      4  O   UNL     1       1.070  15.464  22.506  0.00  0.00    +0.000 OA
ATOM      5  C   UNL     1       0.590  14.377  22.189  0.00  0.00    +0.000 C 
ATOM      6  C   UNL     1      -0.690  13.814  22.801  0.00  0.00    +0.000 C 
ATOM      7  O   UNL     1      -0.971  12.424  22.703  0.00  0.00    +0.000 OA
ATOM      8  C   UNL     1      -0.394  11.802  21.633  0.00  0.00    +0.000 A 
ATOM      9  C   UNL     1      -0.868  10.522  21.334  0.00  0.00    +0.000 A 
ATOM     10  C   UNL     1      -0.305   9.795  20.290  0.00  0.00    +0.000 A 
ATOM     11  C   UNL     1       0.749  10.341  19.557  0.00  0.00    +0.000 A 
ATOM     12  C   UNL     1       1.213  11.636  19.827  0.00  0.00    +0.000 A 
ATOM     13  C   UNL     1       0.643  12.353  20.876  0.00  0.00    +0.000 A 
ATOM     14  N   UNL     1       1.140  13.620  21.189  0.00  0.00    +0.000 N 
ATOM     15  H   UNL     1       1.946  14.005  20.713  0.00  0.00    +0.000 HD
ENDBRANCH   1  11
BRANCH   1  16
ATOM     16  N   UNL     1       2.082   8.020  18.952  0.00  0.00    +0.000 N 
ATOM     17  C   UNL     1       1.873   7.848  20.400  0.00  0.00    +0.000 C 
ATOM     18  C   UNL     1       1.385   6.427  20.599  0.00  0.00    +0.000 C 
ATOM     19  C   UNL     1       2.451   5.414  20.160  0.00  0.00    +0.000 C 
ATOM     20  C   UNL     1       3.215   5.848  18.905  0.00  0.00    +0.000 A 
ATOM     21  C   UNL     1       4.148   4.962  18.331  0.00  0.00    +0.000 A 
ATOM     22  C   UNL     1       4.865   5.315  17.193  0.00  0.00    +0.000 A 
ATOM     23  C   UNL     1       4.695   6.575  16.636  0.00  0.00    +0.000 A 
ATOM     24  C   UNL     1       3.797   7.479  17.213  0.00  0.00    +0.000 A 
ATOM     25  C   UNL     1       3.044   7.135  18.341  0.00  0.00    +0.000 A 
BRANCH  19  26
ATOM     26  C   UNL     1       1.831   4.004  20.095  0.00  0.00    +0.000 C 
ATOM     27  F   UNL     1       1.239   3.757  18.904  0.00  0.00    +0.000 F 
ATOM     28  F   UNL     1       2.720   3.011  20.307  0.00  0.00    +0.000 F 
ATOM     29  F   UNL     1       0.866   3.884  21.042  0.00  0.00    +0.000 F 
ENDBRANCH  19  26
ENDBRANCH   1  16
TORSDOF 3
ENDMDL
