MODEL 1
REMARK VINA RESULT:      -9.4      0.000      0.000
REMARK  Name = 
REMARK  8 active torsions:
REMARK  status: ('A' for Active; 'I' for Inactive)
REMARK    1  A    between atoms: C_2  and  C_4
REMARK    2  A    between atoms: C_4  and  N_5
REMARK    3  A    between atoms: N_5  and  C_6
REMARK    4  A    between atoms: C_6  and  C_7
REMARK    5  A    between atoms: C_11  and  C_12
REMARK    6  A    between atoms: N_18  and  C_19
REMARK    7  A    between atoms: C_23  and  C_24
REMARK    8  A    between atoms: C_24  and  C_25
REMARK                            x       y       z     vdW  Elec       q    Type
REMARK                         _______ _______ _______ _____ _____    ______ ____
ROOT
ATOM      1  C   UNL     1      -0.238  11.386  19.194  0.00  0.00    +0.000 A 
ATOM      2  C   UNL     1       0.602  10.580  18.420  0.00  0.00    +0.000 A 
ATOM      3  C   UNL     1       1.137   9.451  19.007  0.00  0.00    +0.000 A 
ATOM      4  C   UNL     1       0.891   9.091  20.327  0.00  0.00    +0.000 A 
ATOM      5  C   UNL     1       0.081   9.882  21.135  0.00  0.00    +0.000 A 
ATOM      6  C   UNL     1      -0.491  11.027  20.543  0.00  0.00    +0.000 A 
ATOM      7  C   UNL     1       1.613   7.819  20.630  0.00  0.00    +0.000 C 
ATOM      8  N   UNL     1       2.298   7.504  19.384  0.00  0.00    +0.000 N 
ATOM      9  C   UNL     1       2.029   8.459  18.402  0.00  0.00    +0.000 C 
ATOM     10  O   UNL     1       2.399   8.552  17.245  0.00  0.00    +0.000 OA
ENDROOT
BRANCH   8  11
ATOM     11  C   UNL     1       3.171   6.393  19.260  0.00  0.00    +0.000 A 
ATOM     12  C   UNL     1       2.866   5.152  19.822  0.00  0.00    +0.000 A 
ATOM     13  C   UNL     1       3.711   4.058  19.640  0.00  0.00    +0.000 A 
ATOM     14  C   UNL     1       4.877   4.193  18.893  0.00  0.00    +0.000 A 
ATOM     15  C   UNL     1       5.251   5.421  18.318  0.00  0.00    +0.000 A 
ATOM     16  C   UNL     1       4.369   6.504  18.532  0.00  0.00    +0.000 A 
BRANCH  15  17
ATOM     17  C   UNL     1       6.571   5.578  17.436  0.00  0.00    +0.000 C 
ATOM     18  C   UNL     1       6.518   5.091  15.970  0.00  0.00    +0.000 C 
ATOM     19  O   UNL     1       7.789   4.413  16.112  0.00  0.00    +0.000 OA
ATOM     20  C   UNL     1       7.686   4.515  17.556  0.00  0.00    +0.000 C 
BRANCH  17  21
ATOM     21  C   UNL     1       7.135   6.990  17.564  0.00  0.00    +0.000 C 
ATOM     22  F   UNL     1       7.954   7.035  18.654  0.00  0.00    +0.000 F 
ENDBRANCH  17  21
ENDBRANCH  15  17
ENDBRANCH   8  11
BRANCH   5  23
ATOM     23  C   UNL     1      -0.190   9.568  22.583  0.00  0.00    +0.000 C 
ATOM     24  F   UNL     1      -0.883  10.544  23.233  0.00  0.00    +0.000 F 
ATOM     25  F   UNL     1      -0.916   8.429  22.740  0.00  0.00    +0.000 F 
ATOM     26  F   UNL     1       0.953   9.387  23.297  0.00  0.00    +0.000 F 
ENDBRANCH   5  23
BRANCH   1  27
ATOM     27  C   UNL     1      -0.877  12.609  18.582  0.00  0.00    +0.000 C 
BRANCH  27  28
ATOM     28  N   UNL     1      -1.682  12.266  17.415  0.00  0.00    +0.000 NA
ATOM     29  H   UNL     1      -1.981  13.114  16.938  0.00  0.00    +0.000 HD
BRANCH  28  30
ATOM     30  C   UNL     1      -2.876  11.522  17.816  0.00  0.00    +0.000 C 
BRANCH  30  32
ATOM     31  C   UNL     1      -2.534  10.039  15.816  0.00  0.00    +0.000 C 
ATOM     32  C   UNL     1      -2.966  10.222  17.071  0.00  0.00    +0.000 C 
ATOM     33  F   UNL     1      -3.499   9.155  17.711  0.00  0.00    +0.000 F 
ENDBRANCH  30  32
ENDBRANCH  28  30
ENDBRANCH  27  28
ENDBRANCH   1  27
TORSDOF 8
ENDMDL
MODEL 2
REMARK VINA RESULT:      -9.1      1.168      1.404
REMARK  Name = 
REMARK  8 active torsions:
REMARK  status: ('A' for Active; 'I' for Inactive)
REMARK    1  A    between atoms: C_2  and  C_4
REMARK    2  A    between atoms: C_4  and  N_5
REMARK    3  A    between atoms: N_5  and  C_6
REMARK    4  A    between atoms: C_6  and  C_7
REMARK    5  A    between atoms: C_11  and  C_12
REMARK    6  A    between atoms: N_18  and  C_19
REMARK    7  A    between atoms: C_23  and  C_24
REMARK    8  A    between atoms: C_24  and  C_25
REMARK                            x       y       z     vdW  Elec       q    Type
REMARK                         _______ _______ _______ _____ _____    ______ ____
ROOT
ATOM      1  C   UNL     1      -0.062  11.520  19.308  0.00  0.00    +0.000 A 
ATOM      2  C   UNL     1       0.725  10.643  18.555  0.00  0.00    +0.000 A 
ATOM      3  C   UNL     1       1.136   9.468  19.150  0.00  0.00    +0.000 A 
ATOM      4  C   UNL     1       0.816   9.127  20.460  0.00  0.00    +0.000 A 
ATOM      5  C   UNL     1       0.057   9.985  21.247  0.00  0.00    +0.000 A 
ATOM      6  C   UNL     1      -0.389  11.181  20.646  0.00  0.00    +0.000 A 
ATOM      7  C   UNL     1       1.408   7.793  20.777  0.00  0.00    +0.000 C 
ATOM      8  N   UNL     1       2.101   7.422  19.550  0.00  0.00    +0.000 N 
ATOM      9  C   UNL     1       1.952   8.401  18.567  0.00  0.00    +0.000 C 
ATOM     10  O   UNL     1       2.365   8.464  17.423  0.00  0.00    +0.000 OA
ENDROOT
BRANCH   8  11
ATOM     11  C   UNL     1       2.872   6.235  19.446  0.00  0.00    +0.000 A 
ATOM     12  C   UNL     1       2.593   5.107  20.219  0.00  0.00    +0.000 A 
ATOM     13  C   UNL     1       3.328   3.933  20.060  0.00  0.00    +0.000 A 
ATOM     14  C   UNL     1       4.357   3.874  19.125  0.00  0.00    +0.000 A 
ATOM     15  C   UNL     1       4.700   4.983  18.330  0.00  0.00    +0.000 A 
ATOM     16  C   UNL     1       3.934   6.153  18.528  0.00  0.00    +0.000 A 
BRANCH  15  17
ATOM     17  C   UNL     1       5.858   4.915  17.235  0.00  0.00    +0.000 C 
ATOM     18  C   UNL     1       7.307   4.708  17.733  0.00  0.00    +0.000 C 
ATOM     19  O   UNL     1       7.794   5.757  16.862  0.00  0.00    +0.000 OA
ATOM     20  C   UNL     1       6.436   6.231  16.669  0.00  0.00    +0.000 C 
BRANCH  17  21
ATOM     21  C   UNL     1       5.481   3.949  16.116  0.00  0.00    +0.000 C 
ATOM     22  F   UNL     1       4.121   3.915  16.010  0.00  0.00    +0.000 F 
ENDBRANCH  17  21
ENDBRANCH  15  17
ENDBRANCH   8  11
BRANCH   5  23
ATOM     23  C   UNL     1      -0.288   9.692  22.684  0.00  0.00    +0.000 C 
ATOM     24  F   UNL     1      -1.013  10.677  23.284  0.00  0.00    +0.000 F 
ATOM     25  F   UNL     1      -1.021   8.555  22.821  0.00  0.00    +0.000 F 
ATOM     26  F   UNL     1       0.818   9.522  23.459  0.00  0.00    +0.000 F 
ENDBRANCH   5  23
BRANCH   1  27
ATOM     27  C   UNL     1      -0.567  12.799  18.685  0.00  0.00    +0.000 C 
BRANCH  27  28
ATOM     28  N   UNL     1      -1.305  12.540  17.453  0.00  0.00    +0.000 NA
ATOM     29  H   UNL     1      -1.577  13.420  17.019  0.00  0.00    +0.000 HD
BRANCH  28  30
ATOM     30  C   UNL     1      -2.520  11.775  17.735  0.00  0.00    +0.000 C 
BRANCH  30  32
ATOM     31  C   UNL     1      -2.767  10.654  15.500  0.00  0.00    +0.000 C 
ATOM     32  C   UNL     1      -2.618  10.583  16.828  0.00  0.00    +0.000 C 
ATOM     33  F   UNL     1      -2.529   9.351  17.383  0.00  0.00    +0.000 F 
ENDBRANCH  30  32
ENDBRANCH  28  30
ENDBRANCH  27  28
ENDBRANCH   1  27
TORSDOF 8
ENDMDL
MODEL 3
REMARK VINA RESULT:      -8.6      2.910      8.402
REMARK  Name = 
REMARK  8 active torsions:
REMARK  status: ('A' for Active; 'I' for Inactive)
REMARK    1  A    between atoms: C_2  and  C_4
REMARK    2  A    between atoms: C_4  and  N_5
REMARK    3  A    between atoms: N_5  and  C_6
REMARK    4  A    between atoms: C_6  and  C_7
REMARK    5  A    between atoms: C_11  and  C_12
REMARK    6  A    between atoms: N_18  and  C_19
REMARK    7  A    between atoms: C_23  and  C_24
REMARK    8  A    between atoms: C_24  and  C_25
REMARK                            x       y       z     vdW  Elec       q    Type
REMARK                         _______ _______ _______ _____ _____    ______ ____
ROOT
ATOM      1  C   UNL     1       3.837   4.880  17.874  0.00  0.00    +0.000 A 
ATOM      2  C   UNL     1       3.445   6.222  17.910  0.00  0.00    +0.000 A 
ATOM      3  C   UNL     1       2.642   6.634  18.954  0.00  0.00    +0.000 A 
ATOM      4  C   UNL     1       2.198   5.778  19.956  0.00  0.00    +0.000 A 
ATOM      5  C   UNL     1       2.547   4.432  19.940  0.00  0.00    +0.000 A 
ATOM      6  C   UNL     1       3.385   4.000  18.890  0.00  0.00    +0.000 A 
ATOM      7  C   UNL     1       1.364   6.550  20.926  0.00  0.00    +0.000 C 
ATOM      8  N   UNL     1       1.359   7.900  20.379  0.00  0.00    +0.000 N 
ATOM      9  C   UNL     1       2.114   7.977  19.208  0.00  0.00    +0.000 C 
ATOM     10  O   UNL     1       2.359   8.911  18.466  0.00  0.00    +0.000 OA
ENDROOT
BRANCH   8  11
ATOM     11  C   UNL     1       0.608   8.951  20.966  0.00  0.00    +0.000 A 
ATOM     12  C   UNL     1       0.380   9.012  22.342  0.00  0.00    +0.000 A 
ATOM     13  C   UNL     1      -0.312  10.084  22.904  0.00  0.00    +0.000 A 
ATOM     14  C   UNL     1      -0.789  11.110  22.094  0.00  0.00    +0.000 A 
ATOM     15  C   UNL     1      -0.609  11.097  20.699  0.00  0.00    +0.000 A 
ATOM     16  C   UNL     1       0.093   9.990  20.171  0.00  0.00    +0.000 A 
BRANCH  15  17
ATOM     17  C   UNL     1      -1.126  12.283  19.766  0.00  0.00    +0.000 C 
ATOM     18  C   UNL     1      -1.487  11.942  18.303  0.00  0.00    +0.000 C 
ATOM     19  O   UNL     1      -0.760  13.096  17.817  0.00  0.00    +0.000 OA
ATOM     20  C   UNL     1      -0.094  13.221  19.101  0.00  0.00    +0.000 C 
BRANCH  17  21
ATOM     21  C   UNL     1      -2.224  13.077  20.469  0.00  0.00    +0.000 C 
ATOM     22  F   UNL     1      -1.670  14.201  21.009  0.00  0.00    +0.000 F 
ENDBRANCH  17  21
ENDBRANCH  15  17
ENDBRANCH   8  11
BRANCH   5  23
ATOM     23  C   UNL     1       2.064   3.447  20.972  0.00  0.00    +0.000 C 
ATOM     24  F   UNL     1       0.710   3.311  21.006  0.00  0.00    +0.000 F 
ATOM     25  F   UNL     1       2.558   2.196  20.766  0.00  0.00    +0.000 F 
ATOM     26  F   UNL     1       2.434   3.794  22.234  0.00  0.00    +0.000 F 
ENDBRANCH   5  23
BRANCH   1  27
ATOM     27  C   UNL     1       4.747   4.393  16.772  0.00  0.00    +0.000 C 
BRANCH  27  28
ATOM     28  N   UNL     1       6.045   3.980  17.293  0.00  0.00    +0.000 NA
ATOM     29  H   UNL     1       5.989   3.849  18.301  0.00  0.00    +0.000 HD
BRANCH  28  30
ATOM     30  C   UNL     1       7.056   5.002  17.021  0.00  0.00    +0.000 C 
BRANCH  30  32
ATOM     31  C   UNL     1       7.899   7.056  18.197  0.00  0.00    +0.000 C 
ATOM     32  C   UNL     1       7.258   5.880  18.221  0.00  0.00    +0.000 C 
ATOM     33  F   UNL     1       6.743   5.472  19.405  0.00  0.00    +0.000 F 
ENDBRANCH  30  32
ENDBRANCH  28  30
ENDBRANCH  27  28
ENDBRANCH   1  27
TORSDOF 8
ENDMDL
MODEL 4
REMARK VINA RESULT:      -8.6      2.784      8.448
REMARK  Name = 
REMARK  8 active torsions:
REMARK  status: ('A' for Active; 'I' for Inactive)
REMARK    1  A    between atoms: C_2  and  C_4
REMARK    2  A    between atoms: C_4  and  N_5
REMARK    3  A    between atoms: N_5  and  C_6
REMARK    4  A    between atoms: C_6  and  C_7
REMARK    5  A    between atoms: C_11  and  C_12
REMARK    6  A    between atoms: N_18  and  C_19
REMARK    7  A    between atoms: C_23  and  C_24
REMARK    8  A    between atoms: C_24  and  C_25
REMARK                            x       y       z     vdW  Elec       q    Type
REMARK                         _______ _______ _______ _____ _____    ______ ____
ROOT
ATOM      1  C   UNL     1       3.985   4.731  17.443  0.00  0.00    +0.000 A 
ATOM      2  C   UNL     1       3.635   6.080  17.555  0.00  0.00    +0.000 A 
ATOM      3  C   UNL     1       2.851   6.459  18.625  0.00  0.00    +0.000 A 
ATOM      4  C   UNL     1       2.385   5.564  19.582  0.00  0.00    +0.000 A 
ATOM      5  C   UNL     1       2.692   4.211  19.490  0.00  0.00    +0.000 A 
ATOM      6  C   UNL     1       3.510   3.811  18.413  0.00  0.00    +0.000 A 
ATOM      7  C   UNL     1       1.581   6.307  20.598  0.00  0.00    +0.000 C 
ATOM      8  N   UNL     1       1.616   7.685  20.125  0.00  0.00    +0.000 N 
ATOM      9  C   UNL     1       2.367   7.802  18.955  0.00  0.00    +0.000 C 
ATOM     10  O   UNL     1       2.637   8.767  18.263  0.00  0.00    +0.000 OA
ENDROOT
BRANCH   8  11
ATOM     11  C   UNL     1       0.901   8.725  20.774  0.00  0.00    +0.000 A 
ATOM     12  C   UNL     1       0.856   8.829  22.166  0.00  0.00    +0.000 A 
ATOM     13  C   UNL     1       0.195   9.891  22.781  0.00  0.00    +0.000 A 
ATOM     14  C   UNL     1      -0.433  10.864  22.010  0.00  0.00    +0.000 A 
ATOM     15  C   UNL     1      -0.440  10.805  20.605  0.00  0.00    +0.000 A 
ATOM     16  C   UNL     1       0.236   9.709  20.023  0.00  0.00    +0.000 A 
BRANCH  15  17
ATOM     17  C   UNL     1      -1.132  11.932  19.712  0.00  0.00    +0.000 C 
ATOM     18  C   UNL     1      -1.508  11.567  18.258  0.00  0.00    +0.000 C 
ATOM     19  O   UNL     1      -0.944  12.806  17.764  0.00  0.00    +0.000 OA
ATOM     20  C   UNL     1      -0.248  12.995  19.023  0.00  0.00    +0.000 C 
BRANCH  17  21
ATOM     21  C   UNL     1      -2.288  12.580  20.470  0.00  0.00    +0.000 C 
ATOM     22  F   UNL     1      -3.419  12.468  19.716  0.00  0.00    +0.000 F 
ENDBRANCH  17  21
ENDBRANCH  15  17
ENDBRANCH   8  11
BRANCH   5  23
ATOM     23  C   UNL     1       2.184   3.186  20.470  0.00  0.00    +0.000 C 
ATOM     24  F   UNL     1       2.739   3.292  21.708  0.00  0.00    +0.000 F 
ATOM     25  F   UNL     1       0.839   3.269  20.657  0.00  0.00    +0.000 F 
ATOM     26  F   UNL     1       2.428   1.911  20.062  0.00  0.00    +0.000 F 
ENDBRANCH   5  23
BRANCH   1  27
ATOM     27  C   UNL     1       4.873   4.277  16.310  0.00  0.00    +0.000 C 
BRANCH  27  28
ATOM     28  N   UNL     1       6.111   5.046  16.259  0.00  0.00    +0.000 NA
ATOM     29  H   UNL     1       6.594   4.870  15.380  0.00  0.00    +0.000 HD
BRANCH  28  30
ATOM     30  C   UNL     1       7.001   4.659  17.354  0.00  0.00    +0.000 C 
BRANCH  30  32
ATOM     31  C   UNL     1       7.353   7.130  17.639  0.00  0.00    +0.000 C 
ATOM     32  C   UNL     1       7.531   5.872  18.061  0.00  0.00    +0.000 C 
ATOM     33  F   UNL     1       8.217   5.689  19.214  0.00  0.00    +0.000 F 
ENDBRANCH  30  32
ENDBRANCH  28  30
ENDBRANCH  27  28
ENDBRANCH   1  27
TORSDOF 8
ENDMDL
MODEL 5
REMARK VINA RESULT:      -8.6      2.825      8.498
REMARK  Name = 
REMARK  8 active torsions:
REMARK  status: ('A' for Active; 'I' for Inactive)
REMARK    1  A    between atoms: C_2  and  C_4
REMARK    2  A    between atoms: C_4  and  N_5
REMARK    3  A    between atoms: N_5  and  C_6
REMARK    4  A    between atoms: C_6  and  C_7
REMARK    5  A    between atoms: C_11  and  C_12
REMARK    6  A    between atoms: N_18  and  C_19
REMARK    7  A    between atoms: C_23  and  C_24
REMARK    8  A    between atoms: C_24  and  C_25
REMARK                            x       y       z     vdW  Elec       q    Type
REMARK                         _______ _______ _______ _____ _____    ______ ____
ROOT
ATOM      1  C   UNL     1       3.877   4.841  17.780  0.00  0.00    +0.000 A 
ATOM      2  C   UNL     1       3.494   6.185  17.822  0.00  0.00    +0.000 A 
ATOM      3  C   UNL     1       2.707   6.600  18.877  0.00  0.00    +0.000 A 
ATOM      4  C   UNL     1       2.271   5.746  19.884  0.00  0.00    +0.000 A 
ATOM      5  C   UNL     1       2.612   4.398  19.862  0.00  0.00    +0.000 A 
ATOM      6  C   UNL     1       3.434   3.962  18.801  0.00  0.00    +0.000 A 
ATOM      7  C   UNL     1       1.455   6.522  20.865  0.00  0.00    +0.000 C 
ATOM      8  N   UNL     1       1.450   7.873  20.320  0.00  0.00    +0.000 N 
ATOM      9  C   UNL     1       2.191   7.946  19.139  0.00  0.00    +0.000 C 
ATOM     10  O   UNL     1       2.431   8.879  18.395  0.00  0.00    +0.000 OA
ENDROOT
BRANCH   8  11
ATOM     11  C   UNL     1       0.713   8.927  20.919  0.00  0.00    +0.000 A 
ATOM     12  C   UNL     1       0.489   8.979  22.295  0.00  0.00    +0.000 A 
ATOM     13  C   UNL     1      -0.189  10.053  22.869  0.00  0.00    +0.000 A 
ATOM     14  C   UNL     1      -0.655  11.092  22.069  0.00  0.00    +0.000 A 
ATOM     15  C   UNL     1      -0.479  11.089  20.673  0.00  0.00    +0.000 A 
ATOM     16  C   UNL     1       0.208   9.979  20.134  0.00  0.00    +0.000 A 
BRANCH  15  17
ATOM     17  C   UNL     1      -0.984  12.290  19.752  0.00  0.00    +0.000 C 
ATOM     18  C   UNL     1      -0.114  13.566  19.694  0.00  0.00    +0.000 C 
ATOM     19  O   UNL     1      -1.279  14.411  19.862  0.00  0.00    +0.000 OA
ATOM     20  C   UNL     1      -2.050  13.263  20.302  0.00  0.00    +0.000 C 
BRANCH  17  21
ATOM     21  C   UNL     1      -1.364  11.777  18.366  0.00  0.00    +0.000 C 
ATOM     22  F   UNL     1      -2.680  11.419  18.380  0.00  0.00    +0.000 F 
ENDBRANCH  17  21
ENDBRANCH  15  17
ENDBRANCH   8  11
BRANCH   5  23
ATOM     23  C   UNL     1       2.137   3.414  20.899  0.00  0.00    +0.000 C 
ATOM     24  F   UNL     1       2.434   3.781  22.176  0.00  0.00    +0.000 F 
ATOM     25  F   UNL     1       0.789   3.237  20.867  0.00  0.00    +0.000 F 
ATOM     26  F   UNL     1       2.683   2.180  20.731  0.00  0.00    +0.000 F 
ENDBRANCH   5  23
BRANCH   1  27
ATOM     27  C   UNL     1       4.770   4.350  16.666  0.00  0.00    +0.000 C 
BRANCH  27  28
ATOM     28  N   UNL     1       6.084   3.960  17.165  0.00  0.00    +0.000 NA
ATOM     29  H   UNL     1       6.080   3.951  18.183  0.00  0.00    +0.000 HD
BRANCH  28  30
ATOM     30  C   UNL     1       7.105   4.909  16.720  0.00  0.00    +0.000 C 
BRANCH  30  32
ATOM     31  C   UNL     1       7.448   7.246  17.577  0.00  0.00    +0.000 C 
ATOM     32  C   UNL     1       7.384   5.926  17.789  0.00  0.00    +0.000 C 
ATOM     33  F   UNL     1       7.564   5.485  19.056  0.00  0.00    +0.000 F 
ENDBRANCH  30  32
ENDBRANCH  28  30
ENDBRANCH  27  28
ENDBRANCH   1  27
TORSDOF 8
ENDMDL
MODEL 6
REMARK VINA RESULT:      -8.4      1.961      2.848
REMARK  Name = 
REMARK  8 active torsions:
REMARK  status: ('A' for Active; 'I' for Inactive)
REMARK    1  A    between atoms: C_2  and  C_4
REMARK    2  A    between atoms: C_4  and  N_5
REMARK    3  A    between atoms: N_5  and  C_6
REMARK    4  A    between atoms: C_6  and  C_7
REMARK    5  A    between atoms: C_11  and  C_12
REMARK    6  A    between atoms: N_18  and  C_19
REMARK    7  A    between atoms: C_23  and  C_24
REMARK    8  A    between atoms: C_24  and  C_25
REMARK                            x       y       z     vdW  Elec       q    Type
REMARK                         _______ _______ _______ _____ _____    ______ ____
ROOT
ATOM      1  C   UNL     1       0.080  11.915  19.652  0.00  0.00    +0.000 A 
ATOM      2  C   UNL     1       0.786  11.147  18.721  0.00  0.00    +0.000 A 
ATOM      3  C   UNL     1       1.171   9.874  19.092  0.00  0.00    +0.000 A 
ATOM      4  C   UNL     1       0.902   9.333  20.344  0.00  0.00    +0.000 A 
ATOM      5  C   UNL     1       0.225  10.077  21.304  0.00  0.00    +0.000 A 
ATOM      6  C   UNL     1      -0.195  11.371  20.932  0.00  0.00    +0.000 A 
ATOM      7  C   UNL     1       1.447   7.943  20.403  0.00  0.00    +0.000 C 
ATOM      8  N   UNL     1       2.058   7.755  19.095  0.00  0.00    +0.000 N 
ATOM      9  C   UNL     1       1.906   8.888  18.295  0.00  0.00    +0.000 C 
ATOM     10  O   UNL     1       2.262   9.125  17.155  0.00  0.00    +0.000 OA
ENDROOT
BRANCH   8  11
ATOM     11  C   UNL     1       2.767   6.574  18.754  0.00  0.00    +0.000 A 
ATOM     12  C   UNL     1       2.158   5.318  18.779  0.00  0.00    +0.000 A 
ATOM     13  C   UNL     1       2.857   4.178  18.386  0.00  0.00    +0.000 A 
ATOM     14  C   UNL     1       4.179   4.279  17.963  0.00  0.00    +0.000 A 
ATOM     15  C   UNL     1       4.855   5.512  17.934  0.00  0.00    +0.000 A 
ATOM     16  C   UNL     1       4.111   6.641  18.346  0.00  0.00    +0.000 A 
BRANCH  15  17
ATOM     17  C   UNL     1       6.360   5.643  17.423  0.00  0.00    +0.000 C 
ATOM     18  C   UNL     1       6.801   4.742  16.247  0.00  0.00    +0.000 C 
ATOM     19  O   UNL     1       8.026   4.385  16.933  0.00  0.00    +0.000 OA
ATOM     20  C   UNL     1       7.479   4.890  18.179  0.00  0.00    +0.000 C 
BRANCH  17  21
ATOM     21  C   UNL     1       6.727   7.109  17.207  0.00  0.00    +0.000 C 
ATOM     22  F   UNL     1       7.984   7.319  17.693  0.00  0.00    +0.000 F 
ENDBRANCH  17  21
ENDBRANCH  15  17
ENDBRANCH   8  11
BRANCH   5  23
ATOM     23  C   UNL     1      -0.060   9.562  22.690  0.00  0.00    +0.000 C 
ATOM     24  F   UNL     1      -0.711  10.459  23.483  0.00  0.00    +0.000 F 
ATOM     25  F   UNL     1      -0.834   8.444  22.681  0.00  0.00    +0.000 F 
ATOM     26  F   UNL     1       1.074   9.229  23.363  0.00  0.00    +0.000 F 
ENDBRANCH   5  23
BRANCH   1  27
ATOM     27  C   UNL     1      -0.396  13.298  19.276  0.00  0.00    +0.000 C 
BRANCH  27  28
ATOM     28  N   UNL     1       0.297  14.329  20.041  0.00  0.00    +0.000 NA
ATOM     29  H   UNL     1      -0.339  15.098  20.243  0.00  0.00    +0.000 HD
BRANCH  28  30
ATOM     30  C   UNL     1       1.428  14.860  19.280  0.00  0.00    +0.000 C 
BRANCH  30  32
ATOM     31  C   UNL     1       3.066  13.953  20.956  0.00  0.00    +0.000 C 
ATOM     32  C   UNL     1       2.705  14.183  19.687  0.00  0.00    +0.000 C 
ATOM     33  F   UNL     1       3.541  13.758  18.711  0.00  0.00    +0.000 F 
ENDBRANCH  30  32
ENDBRANCH  28  30
ENDBRANCH  27  28
ENDBRANCH   1  27
TORSDOF 8
ENDMDL
MODEL 7
REMARK VINA RESULT:      -8.4      2.803      8.405
REMARK  Name = 
REMARK  8 active torsions:
REMARK  status: ('A' for Active; 'I' for Inactive)
REMARK    1  A    between atoms: C_2  and  C_4
REMARK    2  A    between atoms: C_4  and  N_5
REMARK    3  A    between atoms: N_5  and  C_6
REMARK    4  A    between atoms: C_6  and  C_7
REMARK    5  A    between atoms: C_11  and  C_12
REMARK    6  A    between atoms: N_18  and  C_19
REMARK    7  A    between atoms: C_23  and  C_24
REMARK    8  A    between atoms: C_24  and  C_25
REMARK                            x       y       z     vdW  Elec       q    Type
REMARK                         _______ _______ _______ _____ _____    ______ ____
ROOT
ATOM      1  C   UNL     1       3.976   4.724  17.760  0.00  0.00    +0.000 A 
ATOM      2  C   UNL     1       3.625   6.077  17.727  0.00  0.00    +0.000 A 
ATOM      3  C   UNL     1       2.801   6.557  18.725  0.00  0.00    +0.000 A 
ATOM      4  C   UNL     1       2.298   5.758  19.746  0.00  0.00    +0.000 A 
ATOM      5  C   UNL     1       2.606   4.403  19.797  0.00  0.00    +0.000 A 
ATOM      6  C   UNL     1       3.464   3.902  18.796  0.00  0.00    +0.000 A 
ATOM      7  C   UNL     1       1.457   6.594  20.653  0.00  0.00    +0.000 C 
ATOM      8  N   UNL     1       1.512   7.920  20.051  0.00  0.00    +0.000 N 
ATOM      9  C   UNL     1       2.307   7.924  18.904  0.00  0.00    +0.000 C 
ATOM     10  O   UNL     1       2.605   8.818  18.132  0.00  0.00    +0.000 OA
ENDROOT
BRANCH   8  11
ATOM     11  C   UNL     1       0.775   9.016  20.568  0.00  0.00    +0.000 A 
ATOM     12  C   UNL     1       0.797   9.343  21.925  0.00  0.00    +0.000 A 
ATOM     13  C   UNL     1       0.111  10.459  22.402  0.00  0.00    +0.000 A 
ATOM     14  C   UNL     1      -0.611  11.263  21.526  0.00  0.00    +0.000 A 
ATOM     15  C   UNL     1      -0.689  10.976  20.151  0.00  0.00    +0.000 A 
ATOM     16  C   UNL     1       0.016   9.833  19.711  0.00  0.00    +0.000 A 
BRANCH  15  17
ATOM     17  C   UNL     1      -1.490  11.908  19.134  0.00  0.00    +0.000 C 
ATOM     18  C   UNL     1      -3.016  12.049  19.337  0.00  0.00    +0.000 C 
ATOM     19  O   UNL     1      -3.259  11.850  17.923  0.00  0.00    +0.000 OA
ATOM     20  C   UNL     1      -1.911  11.337  17.762  0.00  0.00    +0.000 C 
BRANCH  17  21
ATOM     21  C   UNL     1      -0.794  13.258  18.983  0.00  0.00    +0.000 C 
ATOM     22  F   UNL     1      -1.414  14.161  19.796  0.00  0.00    +0.000 F 
ENDBRANCH  17  21
ENDBRANCH  15  17
ENDBRANCH   8  11
BRANCH   5  23
ATOM     23  C   UNL     1       2.060   3.477  20.852  0.00  0.00    +0.000 C 
ATOM     24  F   UNL     1       0.699   3.408  20.868  0.00  0.00    +0.000 F 
ATOM     25  F   UNL     1       2.495   2.197  20.696  0.00  0.00    +0.000 F 
ATOM     26  F   UNL     1       2.426   3.848  22.109  0.00  0.00    +0.000 F 
ENDBRANCH   5  23
BRANCH   1  27
ATOM     27  C   UNL     1       4.906   4.164  16.711  0.00  0.00    +0.000 C 
BRANCH  27  28
ATOM     28  N   UNL     1       5.609   5.224  15.997  0.00  0.00    +0.000 NA
ATOM     29  H   UNL     1       5.516   5.087  14.992  0.00  0.00    +0.000 HD
BRANCH  28  30
ATOM     30  C   UNL     1       7.033   5.210  16.330  0.00  0.00    +0.000 C 
BRANCH  30  32
ATOM     31  C   UNL     1       7.633   5.843  18.686  0.00  0.00    +0.000 C 
ATOM     32  C   UNL     1       7.331   6.189  17.428  0.00  0.00    +0.000 C 
ATOM     33  F   UNL     1       7.314   7.509  17.128  0.00  0.00    +0.000 F 
ENDBRANCH  30  32
ENDBRANCH  28  30
ENDBRANCH  27  28
ENDBRANCH   1  27
TORSDOF 8
ENDMDL
MODEL 8
REMARK VINA RESULT:      -8.4      3.192      8.235
REMARK  Name = 
REMARK  8 active torsions:
REMARK  status: ('A' for Active; 'I' for Inactive)
REMARK    1  A    between atoms: C_2  and  C_4
REMARK    2  A    between atoms: C_4  and  N_5
REMARK    3  A    between atoms: N_5  and  C_6
REMARK    4  A    between atoms: C_6  and  C_7
REMARK    5  A    between atoms: C_11  and  C_12
REMARK    6  A    between atoms: N_18  and  C_19
REMARK    7  A    between atoms: C_23  and  C_24
REMARK    8  A    between atoms: C_24  and  C_25
REMARK                            x       y       z     vdW  Elec       q    Type
REMARK                         _______ _______ _______ _____ _____    ______ ____
ROOT
ATOM      1  C   UNL     1       3.933   4.614  17.742  0.00  0.00    +0.000 A 
ATOM      2  C   UNL     1       3.610   5.973  17.689  0.00  0.00    +0.000 A 
ATOM      3  C   UNL     1       2.836   6.495  18.705  0.00  0.00    +0.000 A 
ATOM      4  C   UNL     1       2.355   5.732  19.763  0.00  0.00    +0.000 A 
ATOM      5  C   UNL     1       2.634   4.371  19.836  0.00  0.00    +0.000 A 
ATOM      6  C   UNL     1       3.443   3.828  18.816  0.00  0.00    +0.000 A 
ATOM      7  C   UNL     1       1.567   6.608  20.681  0.00  0.00    +0.000 C 
ATOM      8  N   UNL     1       1.628   7.917  20.045  0.00  0.00    +0.000 N 
ATOM      9  C   UNL     1       2.378   7.877  18.869  0.00  0.00    +0.000 C 
ATOM     10  O   UNL     1       2.666   8.745  18.066  0.00  0.00    +0.000 OA
ENDROOT
BRANCH   8  11
ATOM     11  C   UNL     1       0.935   9.042  20.562  0.00  0.00    +0.000 A 
ATOM     12  C   UNL     1       0.219   8.978  21.759  0.00  0.00    +0.000 A 
ATOM     13  C   UNL     1      -0.407  10.110  22.278  0.00  0.00    +0.000 A 
ATOM     14  C   UNL     1      -0.327  11.325  21.603  0.00  0.00    +0.000 A 
ATOM     15  C   UNL     1       0.361  11.450  20.383  0.00  0.00    +0.000 A 
ATOM     16  C   UNL     1       0.976  10.276  19.890  0.00  0.00    +0.000 A 
BRANCH  15  17
ATOM     17  C   UNL     1       0.483  12.843  19.616  0.00  0.00    +0.000 C 
ATOM     18  C   UNL     1       0.326  14.137  20.448  0.00  0.00    +0.000 C 
ATOM     19  O   UNL     1      -0.563  14.708  19.457  0.00  0.00    +0.000 OA
ATOM     20  C   UNL     1      -0.747  13.397  18.863  0.00  0.00    +0.000 C 
BRANCH  17  21
ATOM     21  C   UNL     1       1.728  12.862  18.734  0.00  0.00    +0.000 C 
ATOM     22  F   UNL     1       2.751  13.427  19.438  0.00  0.00    +0.000 F 
ENDBRANCH  17  21
ENDBRANCH  15  17
ENDBRANCH   8  11
BRANCH   5  23
ATOM     23  C   UNL     1       2.108   3.483  20.933  0.00  0.00    +0.000 C 
ATOM     24  F   UNL     1       0.752   3.363  20.935  0.00  0.00    +0.000 F 
ATOM     25  F   UNL     1       2.594   2.215  20.851  0.00  0.00    +0.000 F 
ATOM     26  F   UNL     1       2.443   3.935  22.171  0.00  0.00    +0.000 F 
ENDBRANCH   5  23
BRANCH   1  27
ATOM     27  C   UNL     1       4.810   4.009  16.673  0.00  0.00    +0.000 C 
BRANCH  27  28
ATOM     28  N   UNL     1       6.218   4.040  17.054  0.00  0.00    +0.000 NA
ATOM     29  H   UNL     1       6.302   4.101  18.067  0.00  0.00    +0.000 HD
BRANCH  28  30
ATOM     30  C   UNL     1       6.882   5.205  16.469  0.00  0.00    +0.000 C 
BRANCH  30  32
ATOM     31  C   UNL     1       7.370   5.838  18.851  0.00  0.00    +0.000 C 
ATOM     32  C   UNL     1       7.378   6.128  17.544  0.00  0.00    +0.000 C 
ATOM     33  F   UNL     1       7.888   7.325  17.171  0.00  0.00    +0.000 F 
ENDBRANCH  30  32
ENDBRANCH  28  30
ENDBRANCH  27  28
ENDBRANCH   1  27
TORSDOF 8
ENDMDL
MODEL 9
REMARK VINA RESULT:      -8.4      2.861      8.331
REMARK  Name = 
REMARK  8 active torsions:
REMARK  status: ('A' for Active; 'I' for Inactive)
REMARK    1  A    between atoms: C_2  and  C_4
REMARK    2  A    between atoms: C_4  and  N_5
REMARK    3  A    between atoms: N_5  and  C_6
REMARK    4  A    between atoms: C_6  and  C_7
REMARK    5  A    between atoms: C_11  and  C_12
REMARK    6  A    between atoms: N_18  and  C_19
REMARK    7  A    between atoms: C_23  and  C_24
REMARK    8  A    between atoms: C_24  and  C_25
REMARK                            x       y       z     vdW  Elec       q    Type
REMARK                         _______ _______ _______ _____ _____    ______ ____
ROOT
ATOM      1  C   UNL     1       3.895   4.509  17.869  0.00  0.00    +0.000 A 
ATOM      2  C   UNL     1       3.568   5.867  17.801  0.00  0.00    +0.000 A 
ATOM      3  C   UNL     1       2.785   6.395  18.807  0.00  0.00    +0.000 A 
ATOM      4  C   UNL     1       2.300   5.640  19.869  0.00  0.00    +0.000 A 
ATOM      5  C   UNL     1       2.583   4.281  19.957  0.00  0.00    +0.000 A 
ATOM      6  C   UNL     1       3.400   3.731  18.947  0.00  0.00    +0.000 A 
ATOM      7  C   UNL     1       1.503   6.522  20.774  0.00  0.00    +0.000 C 
ATOM      8  N   UNL     1       1.564   7.826  20.127  0.00  0.00    +0.000 N 
ATOM      9  C   UNL     1       2.323   7.777  18.956  0.00  0.00    +0.000 C 
ATOM     10  O   UNL     1       2.613   8.639  18.147  0.00  0.00    +0.000 OA
ENDROOT
BRANCH   8  11
ATOM     11  C   UNL     1       0.864   8.953  20.630  0.00  0.00    +0.000 A 
ATOM     12  C   UNL     1       0.613   9.115  21.993  0.00  0.00    +0.000 A 
ATOM     13  C   UNL     1      -0.026  10.258  22.471  0.00  0.00    +0.000 A 
ATOM     14  C   UNL     1      -0.427  11.255  21.588  0.00  0.00    +0.000 A 
ATOM     15  C   UNL     1      -0.221  11.143  20.201  0.00  0.00    +0.000 A 
ATOM     16  C   UNL     1       0.425   9.966  19.759  0.00  0.00    +0.000 A 
BRANCH  15  17
ATOM     17  C   UNL     1      -0.651  12.294  19.184  0.00  0.00    +0.000 C 
ATOM     18  C   UNL     1       0.473  13.110  18.505  0.00  0.00    +0.000 C 
ATOM     19  O   UNL     1      -0.215  14.354  18.781  0.00  0.00    +0.000 OA
ATOM     20  C   UNL     1      -1.065  13.674  19.741  0.00  0.00    +0.000 C 
BRANCH  17  21
ATOM     21  C   UNL     1      -1.678  11.769  18.184  0.00  0.00    +0.000 C 
ATOM     22  F   UNL     1      -2.838  11.506  18.850  0.00  0.00    +0.000 F 
ENDBRANCH  17  21
ENDBRANCH  15  17
ENDBRANCH   8  11
BRANCH   5  23
ATOM     23  C   UNL     1       2.053   3.401  21.058  0.00  0.00    +0.000 C 
ATOM     24  F   UNL     1       2.496   2.115  20.991  0.00  0.00    +0.000 F 
ATOM     25  F   UNL     1       2.401   3.850  22.294  0.00  0.00    +0.000 F 
ATOM     26  F   UNL     1       0.695   3.326  21.054  0.00  0.00    +0.000 F 
ENDBRANCH   5  23
BRANCH   1  27
ATOM     27  C   UNL     1       4.781   3.897  16.811  0.00  0.00    +0.000 C 
BRANCH  27  28
ATOM     28  N   UNL     1       6.189   3.963  17.187  0.00  0.00    +0.000 NA
ATOM     29  H   UNL     1       6.282   4.388  18.108  0.00  0.00    +0.000 HD
BRANCH  28  30
ATOM     30  C   UNL     1       6.938   4.777  16.230  0.00  0.00    +0.000 C 
BRANCH  30  32
ATOM     31  C   UNL     1       6.272   4.082  13.909  0.00  0.00    +0.000 C 
ATOM     32  C   UNL     1       6.174   4.924  14.946  0.00  0.00    +0.000 C 
ATOM     33  F   UNL     1       5.312   5.961  14.832  0.00  0.00    +0.000 F 
ENDBRANCH  30  32
ENDBRANCH  28  30
ENDBRANCH  27  28
ENDBRANCH   1  27
TORSDOF 8
ENDMDL
