MODEL 1
REMARK VINA RESULT:      -8.9      0.000      0.000
REMARK  Name = 
REMARK  4 active torsions:
REMARK  status: ('A' for Active; 'I' for Inactive)
REMARK    1  A    between atoms: C_2  and  C_18
REMARK    2  A    between atoms: N_3  and  C_4
REMARK    3  A    between atoms: C_7  and  S_8
REMARK    4  A    between atoms: S_8  and  N_11
REMARK                            x       y       z     vdW  Elec       q    Type
REMARK                         _______ _______ _______ _____ _____    ______ ____
ROOT
ATOM      1  O   UNL     1       1.867  10.426  17.728  0.00  0.00    +0.000 OA
ATOM      2  C   UNL     1       1.148  10.073  18.664  0.00  0.00    +0.000 C 
ATOM      3  N   UNL     1       1.280   8.893  19.386  0.00  0.00    +0.000 N 
ATOM      4  H   UNL     1       0.586   8.704  20.099  0.00  0.00    +0.000 HD
ENDROOT
BRANCH   2   5
ATOM      5  C   UNL     1      -0.040  10.937  18.930  0.00  0.00    +0.000 A 
ATOM      6  C   UNL     1       0.162  11.863  19.974  0.00  0.00    +0.000 A 
ATOM      7  C   UNL     1      -0.863  12.700  20.389  0.00  0.00    +0.000 A 
ATOM      8  C   UNL     1      -2.093  12.635  19.748  0.00  0.00    +0.000 A 
ATOM      9  C   UNL     1      -2.339  11.736  18.729  0.00  0.00    +0.000 A 
ATOM     10  N   UNL     1      -3.575  11.753  18.212  0.00  0.00    +0.000 NA
ATOM     11  C   UNL     1      -3.894  10.841  17.277  0.00  0.00    +0.000 A 
ATOM     12  C   UNL     1      -3.016   9.882  16.831  0.00  0.00    +0.000 A 
ATOM     13  C   UNL     1      -1.716   9.877  17.346  0.00  0.00    +0.000 A 
ATOM     14  C   UNL     1      -1.321  10.831  18.308  0.00  0.00    +0.000 A 
ENDBRANCH   2   5
BRANCH   3  15
ATOM     15  C   UNL     1       2.195   7.838  19.085  0.00  0.00    +0.000 A 
ATOM     16  C   UNL     1       2.935   7.768  17.899  0.00  0.00    +0.000 A 
ATOM     17  C   UNL     1       3.785   6.686  17.622  0.00  0.00    +0.000 A 
ATOM     18  C   UNL     1       3.939   5.664  18.555  0.00  0.00    +0.000 A 
ATOM     19  C   UNL     1       3.190   5.691  19.733  0.00  0.00    +0.000 A 
ATOM     20  C   UNL     1       2.333   6.780  20.001  0.00  0.00    +0.000 A 
BRANCH  18  21
ATOM     21  S   UNL     1       4.982   4.265  18.161  0.00  0.00    +0.000 S 
ATOM     22  O   UNL     1       5.583   4.529  16.872  0.00  0.00    +0.000 OA
ATOM     23  O   UNL     1       5.803   3.999  19.326  0.00  0.00    +0.000 OA
BRANCH  21  24
ATOM     24  N   UNL     1       3.916   2.964  17.980  0.00  0.00    +0.000 NA
ATOM     25  C   UNL     1       2.708   3.121  17.158  0.00  0.00    +0.000 C 
ATOM     26  C   UNL     1       1.579   3.110  18.170  0.00  0.00    +0.000 C 
ATOM     27  C   UNL     1       2.049   2.125  19.229  0.00  0.00    +0.000 C 
ATOM     28  C   UNL     1       3.575   2.131  19.153  0.00  0.00    +0.000 C 
ENDBRANCH  21  24
ENDBRANCH  18  21
ENDBRANCH   3  15
TORSDOF 4
ENDMDL
MODEL 2
REMARK VINA RESULT:      -8.6      1.534      2.512
REMARK  Name = 
REMARK  4 active torsions:
REMARK  status: ('A' for Active; 'I' for Inactive)
REMARK    1  A    between atoms: C_2  and  C_18
REMARK    2  A    between atoms: N_3  and  C_4
REMARK    3  A    between atoms: C_7  and  S_8
REMARK    4  A    between atoms: S_8  and  N_11
REMARK                            x       y       z     vdW  Elec       q    Type
REMARK                         _______ _______ _______ _____ _____    ______ ____
ROOT
ATOM      1  O   UNL     1       2.050  10.078  17.716  0.00  0.00    +0.000 OA
ATOM      2  C   UNL     1       1.319   9.803  18.669  0.00  0.00    +0.000 C 
ATOM      3  N   UNL     1       1.396   8.650  19.442  0.00  0.00    +0.000 N 
ATOM      4  H   UNL     1       0.696   8.527  20.165  0.00  0.00    +0.000 HD
ENDROOT
BRANCH   2   5
ATOM      5  C   UNL     1       0.176  10.736  18.900  0.00  0.00    +0.000 A 
ATOM      6  C   UNL     1       0.404  11.653  19.947  0.00  0.00    +0.000 A 
ATOM      7  C   UNL     1      -0.581  12.550  20.332  0.00  0.00    +0.000 A 
ATOM      8  C   UNL     1      -1.794  12.554  19.658  0.00  0.00    +0.000 A 
ATOM      9  C   UNL     1      -2.065  11.668  18.634  0.00  0.00    +0.000 A 
ATOM     10  N   UNL     1      -3.284  11.755  18.083  0.00  0.00    +0.000 NA
ATOM     11  C   UNL     1      -3.630  10.860  17.142  0.00  0.00    +0.000 A 
ATOM     12  C   UNL     1      -2.797   9.849  16.722  0.00  0.00    +0.000 A 
ATOM     13  C   UNL     1      -1.515   9.770  17.273  0.00  0.00    +0.000 A 
ATOM     14  C   UNL     1      -1.090  10.703  18.243  0.00  0.00    +0.000 A 
ENDBRANCH   2   5
BRANCH   3  15
ATOM     15  C   UNL     1       2.255   7.539  19.184  0.00  0.00    +0.000 A 
ATOM     16  C   UNL     1       2.855   7.292  17.944  0.00  0.00    +0.000 A 
ATOM     17  C   UNL     1       3.652   6.159  17.721  0.00  0.00    +0.000 A 
ATOM     18  C   UNL     1       3.897   5.264  18.760  0.00  0.00    +0.000 A 
ATOM     19  C   UNL     1       3.287   5.467  19.999  0.00  0.00    +0.000 A 
ATOM     20  C   UNL     1       2.482   6.607  20.212  0.00  0.00    +0.000 A 
BRANCH  18  21
ATOM     21  S   UNL     1       4.868   3.796  18.443  0.00  0.00    +0.000 S 
ATOM     22  O   UNL     1       4.910   3.036  19.673  0.00  0.00    +0.000 OA
ATOM     23  O   UNL     1       4.365   3.203  17.218  0.00  0.00    +0.000 OA
BRANCH  21  24
ATOM     24  N   UNL     1       6.429   4.365  18.130  0.00  0.00    +0.000 NA
ATOM     25  C   UNL     1       6.998   5.429  18.968  0.00  0.00    +0.000 C 
ATOM     26  C   UNL     1       7.038   6.632  18.045  0.00  0.00    +0.000 C 
ATOM     27  C   UNL     1       7.359   6.036  16.683  0.00  0.00    +0.000 C 
ATOM     28  C   UNL     1       6.857   4.593  16.734  0.00  0.00    +0.000 C 
ENDBRANCH  21  24
ENDBRANCH  18  21
ENDBRANCH   3  15
TORSDOF 4
ENDMDL
MODEL 3
REMARK VINA RESULT:      -8.4      0.399      1.008
REMARK  Name = 
REMARK  4 active torsions:
REMARK  status: ('A' for Active; 'I' for Inactive)
REMARK    1  A    between atoms: C_2  and  C_18
REMARK    2  A    between atoms: N_3  and  C_4
REMARK    3  A    between atoms: C_7  and  S_8
REMARK    4  A    between atoms: S_8  and  N_11
REMARK                            x       y       z     vdW  Elec       q    Type
REMARK                         _______ _______ _______ _____ _____    ______ ____
ROOT
ATOM      1  O   UNL     1       1.181   9.840  17.392  0.00  0.00    +0.000 OA
ATOM      2  C   UNL     1       0.912   9.838  18.595  0.00  0.00    +0.000 C 
ATOM      3  N   UNL     1       1.393   8.930  19.530  0.00  0.00    +0.000 N 
ATOM      4  H   UNL     1       1.048   9.014  20.479  0.00  0.00    +0.000 HD
ENDROOT
BRANCH   2   5
ATOM      5  C   UNL     1      -0.128  10.819  19.028  0.00  0.00    +0.000 A 
ATOM      6  C   UNL     1       0.329  11.725  20.006  0.00  0.00    +0.000 A 
ATOM      7  C   UNL     1      -0.529  12.663  20.561  0.00  0.00    +0.000 A 
ATOM      8  C   UNL     1      -1.846  12.718  20.126  0.00  0.00    +0.000 A 
ATOM      9  C   UNL     1      -2.339  11.843  19.177  0.00  0.00    +0.000 A 
ATOM     10  N   UNL     1      -3.635  11.981  18.864  0.00  0.00    +0.000 NA
ATOM     11  C   UNL     1      -4.187  11.100  18.011  0.00  0.00    +0.000 A 
ATOM     12  C   UNL     1      -3.489  10.056  17.451  0.00  0.00    +0.000 A 
ATOM     13  C   UNL     1      -2.131   9.924  17.753  0.00  0.00    +0.000 A 
ATOM     14  C   UNL     1      -1.495  10.838  18.619  0.00  0.00    +0.000 A 
ENDBRANCH   2   5
BRANCH   3  15
ATOM     15  C   UNL     1       2.180   7.776  19.232  0.00  0.00    +0.000 A 
ATOM     16  C   UNL     1       2.307   6.679  20.093  0.00  0.00    +0.000 A 
ATOM     17  C   UNL     1       3.133   5.588  19.782  0.00  0.00    +0.000 A 
ATOM     18  C   UNL     1       3.821   5.558  18.571  0.00  0.00    +0.000 A 
ATOM     19  C   UNL     1       3.737   6.650  17.706  0.00  0.00    +0.000 A 
ATOM     20  C   UNL     1       2.910   7.747  18.031  0.00  0.00    +0.000 A 
BRANCH  18  21
ATOM     21  S   UNL     1       4.912   4.186  18.216  0.00  0.00    +0.000 S 
ATOM     22  O   UNL     1       5.566   4.474  16.958  0.00  0.00    +0.000 OA
ATOM     23  O   UNL     1       5.685   3.929  19.416  0.00  0.00    +0.000 OA
BRANCH  21  24
ATOM     24  N   UNL     1       3.886   2.863  17.977  0.00  0.00    +0.000 NA
ATOM     25  C   UNL     1       2.668   3.022  17.172  0.00  0.00    +0.000 C 
ATOM     26  C   UNL     1       1.548   2.925  18.190  0.00  0.00    +0.000 C 
ATOM     27  C   UNL     1       2.057   1.905  19.195  0.00  0.00    +0.000 C 
ATOM     28  C   UNL     1       3.582   1.963  19.109  0.00  0.00    +0.000 C 
ENDBRANCH  21  24
ENDBRANCH  18  21
ENDBRANCH   3  15
TORSDOF 4
ENDMDL
MODEL 4
REMARK VINA RESULT:      -8.2      2.301      2.731
REMARK  Name = 
REMARK  4 active torsions:
REMARK  status: ('A' for Active; 'I' for Inactive)
REMARK    1  A    between atoms: C_2  and  C_18
REMARK    2  A    between atoms: N_3  and  C_4
REMARK    3  A    between atoms: C_7  and  S_8
REMARK    4  A    between atoms: S_8  and  N_11
REMARK                            x       y       z     vdW  Elec       q    Type
REMARK                         _______ _______ _______ _____ _____    ______ ____
ROOT
ATOM      1  O   UNL     1       1.864   9.369  22.341  0.00  0.00    +0.000 OA
ATOM      2  C   UNL     1       0.957   9.519  21.521  0.00  0.00    +0.000 C 
ATOM      3  N   UNL     1       0.765   8.754  20.377  0.00  0.00    +0.000 N 
ATOM      4  H   UNL     1       0.006   9.020  19.761  0.00  0.00    +0.000 HD
ENDROOT
BRANCH   2   5
ATOM      5  C   UNL     1       0.088  10.715  21.727  0.00  0.00    +0.000 A 
ATOM      6  C   UNL     1      -0.767  10.603  22.842  0.00  0.00    +0.000 A 
ATOM      7  C   UNL     1      -1.683  11.602  23.139  0.00  0.00    +0.000 A 
ATOM      8  C   UNL     1      -1.735  12.733  22.336  0.00  0.00    +0.000 A 
ATOM      9  C   UNL     1      -0.924  12.881  21.228  0.00  0.00    +0.000 A 
ATOM     10  N   UNL     1      -1.091  14.006  20.519  0.00  0.00    +0.000 NA
ATOM     11  C   UNL     1      -0.389  14.161  19.383  0.00  0.00    +0.000 A 
ATOM     12  C   UNL     1       0.487  13.215  18.905  0.00  0.00    +0.000 A 
ATOM     13  C   UNL     1       0.687  12.052  19.655  0.00  0.00    +0.000 A 
ATOM     14  C   UNL     1      -0.003  11.853  20.870  0.00  0.00    +0.000 A 
ENDBRANCH   2   5
BRANCH   3  15
ATOM     15  C   UNL     1       1.659   7.748  19.897  0.00  0.00    +0.000 A 
ATOM     16  C   UNL     1       1.960   6.576  20.601  0.00  0.00    +0.000 A 
ATOM     17  C   UNL     1       2.884   5.639  20.115  0.00  0.00    +0.000 A 
ATOM     18  C   UNL     1       3.499   5.842  18.882  0.00  0.00    +0.000 A 
ATOM     19  C   UNL     1       3.243   7.016  18.171  0.00  0.00    +0.000 A 
ATOM     20  C   UNL     1       2.317   7.957  18.672  0.00  0.00    +0.000 A 
BRANCH  18  21
ATOM     21  S   UNL     1       4.717   4.665  18.304  0.00  0.00    +0.000 S 
ATOM     22  O   UNL     1       5.221   5.157  17.041  0.00  0.00    +0.000 OA
ATOM     23  O   UNL     1       5.614   4.396  19.411  0.00  0.00    +0.000 OA
BRANCH  21  24
ATOM     24  N   UNL     1       3.844   3.250  17.998  0.00  0.00    +0.000 NA
ATOM     25  C   UNL     1       2.610   3.312  17.202  0.00  0.00    +0.000 C 
ATOM     26  C   UNL     1       1.514   3.039  18.214  0.00  0.00    +0.000 C 
ATOM     27  C   UNL     1       2.140   2.032  19.166  0.00  0.00    +0.000 C 
ATOM     28  C   UNL     1       3.648   2.265  19.083  0.00  0.00    +0.000 C 
ENDBRANCH  21  24
ENDBRANCH  18  21
ENDBRANCH   3  15
TORSDOF 4
ENDMDL
MODEL 5
REMARK VINA RESULT:      -8.2      3.241      9.111
REMARK  Name = 
REMARK  4 active torsions:
REMARK  status: ('A' for Active; 'I' for Inactive)
REMARK    1  A    between atoms: C_2  and  C_18
REMARK    2  A    between atoms: N_3  and  C_4
REMARK    3  A    between atoms: C_7  and  S_8
REMARK    4  A    between atoms: S_8  and  N_11
REMARK                            x       y       z     vdW  Elec       q    Type
REMARK                         _______ _______ _______ _____ _____    ______ ____
ROOT
ATOM      1  O   UNL     1       2.448   7.315  19.714  0.00  0.00    +0.000 OA
ATOM      2  C   UNL     1       2.558   7.310  18.487  0.00  0.00    +0.000 C 
ATOM      3  N   UNL     1       2.189   8.346  17.637  0.00  0.00    +0.000 N 
ATOM      4  H   UNL     1       2.287   8.187  16.642  0.00  0.00    +0.000 HD
ENDROOT
BRANCH   2   5
ATOM      5  C   UNL     1       2.998   6.018  17.881  0.00  0.00    +0.000 A 
ATOM      6  C   UNL     1       2.029   4.997  17.973  0.00  0.00    +0.000 A 
ATOM      7  C   UNL     1       2.302   3.718  17.512  0.00  0.00    +0.000 A 
ATOM      8  C   UNL     1       3.536   3.453  16.935  0.00  0.00    +0.000 A 
ATOM      9  C   UNL     1       4.518   4.420  16.834  0.00  0.00    +0.000 A 
ATOM     10  N   UNL     1       5.676   4.030  16.283  0.00  0.00    +0.000 NA
ATOM     11  C   UNL     1       6.694   4.907  16.239  0.00  0.00    +0.000 A 
ATOM     12  C   UNL     1       6.610   6.184  16.743  0.00  0.00    +0.000 A 
ATOM     13  C   UNL     1       5.396   6.604  17.294  0.00  0.00    +0.000 A 
ATOM     14  C   UNL     1       4.287   5.734  17.337  0.00  0.00    +0.000 A 
ENDBRANCH   2   5
BRANCH   3  15
ATOM     15  C   UNL     1       1.508   9.537  18.035  0.00  0.00    +0.000 A 
ATOM     16  C   UNL     1       2.151  10.757  18.271  0.00  0.00    +0.000 A 
ATOM     17  C   UNL     1       1.449  11.890  18.710  0.00  0.00    +0.000 A 
ATOM     18  C   UNL     1       0.068  11.830  18.883  0.00  0.00    +0.000 A 
ATOM     19  C   UNL     1      -0.597  10.618  18.684  0.00  0.00    +0.000 A 
ATOM     20  C   UNL     1       0.119   9.482  18.249  0.00  0.00    +0.000 A 
BRANCH  18  21
ATOM     21  S   UNL     1      -0.803  13.266  19.497  0.00  0.00    +0.000 S 
ATOM     22  O   UNL     1      -0.311  14.411  18.763  0.00  0.00    +0.000 OA
ATOM     23  O   UNL     1      -2.217  12.940  19.508  0.00  0.00    +0.000 OA
BRANCH  21  24
ATOM     24  N   UNL     1      -0.304  13.426  21.104  0.00  0.00    +0.000 NA
ATOM     25  C   UNL     1      -0.270  12.244  21.977  0.00  0.00    +0.000 C 
ATOM     26  C   UNL     1      -1.408  12.483  22.951  0.00  0.00    +0.000 C 
ATOM     27  C   UNL     1      -1.396  13.988  23.164  0.00  0.00    +0.000 C 
ATOM     28  C   UNL     1      -0.768  14.580  21.902  0.00  0.00    +0.000 C 
ENDBRANCH  21  24
ENDBRANCH  18  21
ENDBRANCH   3  15
TORSDOF 4
ENDMDL
MODEL 6
REMARK VINA RESULT:      -8.2      1.577      2.535
REMARK  Name = 
REMARK  4 active torsions:
REMARK  status: ('A' for Active; 'I' for Inactive)
REMARK    1  A    between atoms: C_2  and  C_18
REMARK    2  A    between atoms: N_3  and  C_4
REMARK    3  A    between atoms: C_7  and  S_8
REMARK    4  A    between atoms: S_8  and  N_11
REMARK                            x       y       z     vdW  Elec       q    Type
REMARK                         _______ _______ _______ _____ _____    ______ ____
ROOT
ATOM      1  O   UNL     1       0.018   9.187  17.673  0.00  0.00    +0.000 OA
ATOM      2  C   UNL     1       0.496   9.683  18.695  0.00  0.00    +0.000 C 
ATOM      3  N   UNL     1       1.603   9.204  19.385  0.00  0.00    +0.000 N 
ATOM      4  H   UNL     1       1.858   9.680  20.242  0.00  0.00    +0.000 HD
ENDROOT
BRANCH   2   5
ATOM      5  C   UNL     1      -0.282  10.807  19.295  0.00  0.00    +0.000 A 
ATOM      6  C   UNL     1      -0.530  11.862  18.393  0.00  0.00    +0.000 A 
ATOM      7  C   UNL     1      -1.187  13.011  18.807  0.00  0.00    +0.000 A 
ATOM      8  C   UNL     1      -1.624  13.105  20.122  0.00  0.00    +0.000 A 
ATOM      9  C   UNL     1      -1.393  12.101  21.042  0.00  0.00    +0.000 A 
ATOM     10  N   UNL     1      -1.840  12.326  22.286  0.00  0.00    +0.000 NA
ATOM     11  C   UNL     1      -1.566  11.420  23.240  0.00  0.00    +0.000 A 
ATOM     12  C   UNL     1      -0.841  10.275  23.006  0.00  0.00    +0.000 A 
ATOM     13  C   UNL     1      -0.397  10.022  21.705  0.00  0.00    +0.000 A 
ATOM     14  C   UNL     1      -0.682  10.926  20.660  0.00  0.00    +0.000 A 
ENDBRANCH   2   5
BRANCH   3  15
ATOM     15  C   UNL     1       2.294   7.988  19.096  0.00  0.00    +0.000 A 
ATOM     16  C   UNL     1       2.320   6.885  19.958  0.00  0.00    +0.000 A 
ATOM     17  C   UNL     1       3.055   5.729  19.655  0.00  0.00    +0.000 A 
ATOM     18  C   UNL     1       3.753   5.641  18.453  0.00  0.00    +0.000 A 
ATOM     19  C   UNL     1       3.772   6.737  17.588  0.00  0.00    +0.000 A 
ATOM     20  C   UNL     1       3.034   7.899  17.904  0.00  0.00    +0.000 A 
BRANCH  18  21
ATOM     21  S   UNL     1       4.731   4.183  18.110  0.00  0.00    +0.000 S 
ATOM     22  O   UNL     1       5.388   4.398  16.840  0.00  0.00    +0.000 OA
ATOM     23  O   UNL     1       5.497   3.888  19.306  0.00  0.00    +0.000 OA
BRANCH  21  24
ATOM     24  N   UNL     1       3.603   2.940  17.907  0.00  0.00    +0.000 NA
ATOM     25  C   UNL     1       2.343   3.207  17.200  0.00  0.00    +0.000 C 
ATOM     26  C   UNL     1       1.295   3.147  18.295  0.00  0.00    +0.000 C 
ATOM     27  C   UNL     1       1.805   2.060  19.228  0.00  0.00    +0.000 C 
ATOM     28  C   UNL     1       3.320   2.021  19.030  0.00  0.00    +0.000 C 
ENDBRANCH  21  24
ENDBRANCH  18  21
ENDBRANCH   3  15
TORSDOF 4
ENDMDL
MODEL 7
REMARK VINA RESULT:      -8.2      1.334      2.301
REMARK  Name = 
REMARK  4 active torsions:
REMARK  status: ('A' for Active; 'I' for Inactive)
REMARK    1  A    between atoms: C_2  and  C_18
REMARK    2  A    between atoms: N_3  and  C_4
REMARK    3  A    between atoms: C_7  and  S_8
REMARK    4  A    between atoms: S_8  and  N_11
REMARK                            x       y       z     vdW  Elec       q    Type
REMARK                         _______ _______ _______ _____ _____    ______ ____
ROOT
ATOM      1  O   UNL     1       1.851  10.536  18.336  0.00  0.00    +0.000 OA
ATOM      2  C   UNL     1       1.054  10.059  19.145  0.00  0.00    +0.000 C 
ATOM      3  N   UNL     1       1.120   8.782  19.691  0.00  0.00    +0.000 N 
ATOM      4  H   UNL     1       0.367   8.500  20.307  0.00  0.00    +0.000 HD
ENDROOT
BRANCH   2   5
ATOM      5  C   UNL     1      -0.150  10.893  19.438  0.00  0.00    +0.000 A 
ATOM      6  C   UNL     1      -0.653  11.568  18.307  0.00  0.00    +0.000 A 
ATOM      7  C   UNL     1      -1.731  12.433  18.418  0.00  0.00    +0.000 A 
ATOM      8  C   UNL     1      -2.331  12.613  19.657  0.00  0.00    +0.000 A 
ATOM      9  C   UNL     1      -1.864  11.981  20.793  0.00  0.00    +0.000 A 
ATOM     10  N   UNL     1      -2.511  12.261  21.933  0.00  0.00    +0.000 NA
ATOM     11  C   UNL     1      -2.045  11.741  23.082  0.00  0.00    +0.000 A 
ATOM     12  C   UNL     1      -0.928  10.942  23.148  0.00  0.00    +0.000 A 
ATOM     13  C   UNL     1      -0.265  10.625  21.959  0.00  0.00    +0.000 A 
ATOM     14  C   UNL     1      -0.730  11.120  20.722  0.00  0.00    +0.000 A 
ENDBRANCH   2   5
BRANCH   3  15
ATOM     15  C   UNL     1       2.053   7.770  19.312  0.00  0.00    +0.000 A 
ATOM     16  C   UNL     1       2.720   7.749  18.081  0.00  0.00    +0.000 A 
ATOM     17  C   UNL     1       3.590   6.706  17.730  0.00  0.00    +0.000 A 
ATOM     18  C   UNL     1       3.842   5.675  18.631  0.00  0.00    +0.000 A 
ATOM     19  C   UNL     1       3.168   5.652  19.854  0.00  0.00    +0.000 A 
ATOM     20  C   UNL     1       2.289   6.702  20.196  0.00  0.00    +0.000 A 
BRANCH  18  21
ATOM     21  S   UNL     1       4.910   4.325  18.145  0.00  0.00    +0.000 S 
ATOM     22  O   UNL     1       5.478   4.670  16.861  0.00  0.00    +0.000 OA
ATOM     23  O   UNL     1       5.761   4.020  19.279  0.00  0.00    +0.000 OA
BRANCH  21  24
ATOM     24  N   UNL     1       3.873   3.009  17.917  0.00  0.00    +0.000 NA
ATOM     25  C   UNL     1       2.628   3.185  17.157  0.00  0.00    +0.000 C 
ATOM     26  C   UNL     1       1.543   3.072  18.210  0.00  0.00    +0.000 C 
ATOM     27  C   UNL     1       2.083   2.032  19.179  0.00  0.00    +0.000 C 
ATOM     28  C   UNL     1       3.604   2.088  19.042  0.00  0.00    +0.000 C 
ENDBRANCH  21  24
ENDBRANCH  18  21
ENDBRANCH   3  15
TORSDOF 4
ENDMDL
MODEL 8
REMARK VINA RESULT:      -8.2      6.719     10.148
REMARK  Name = 
REMARK  4 active torsions:
REMARK  status: ('A' for Active; 'I' for Inactive)
REMARK    1  A    between atoms: C_2  and  C_18
REMARK    2  A    between atoms: N_3  and  C_4
REMARK    3  A    between atoms: C_7  and  S_8
REMARK    4  A    between atoms: S_8  and  N_11
REMARK                            x       y       z     vdW  Elec       q    Type
REMARK                         _______ _______ _______ _____ _____    ______ ____
ROOT
ATOM      1  O   UNL     1       8.152   6.533  18.868  0.00  0.00    +0.000 OA
ATOM      2  C   UNL     1       7.603   6.906  17.830  0.00  0.00    +0.000 C 
ATOM      3  N   UNL     1       7.649   8.193  17.307  0.00  0.00    +0.000 N 
ATOM      4  H   UNL     1       7.108   8.374  16.470  0.00  0.00    +0.000 HD
ENDROOT
BRANCH   2   5
ATOM      5  C   UNL     1       6.707   5.907  17.175  0.00  0.00    +0.000 A 
ATOM      6  C   UNL     1       7.167   5.484  15.911  0.00  0.00    +0.000 A 
ATOM      7  C   UNL     1       6.421   4.603  15.143  0.00  0.00    +0.000 A 
ATOM      8  C   UNL     1       5.219   4.119  15.640  0.00  0.00    +0.000 A 
ATOM      9  C   UNL     1       4.725   4.515  16.869  0.00  0.00    +0.000 A 
ATOM     10  N   UNL     1       3.540   3.998  17.222  0.00  0.00    +0.000 NA
ATOM     11  C   UNL     1       2.973   4.415  18.367  0.00  0.00    +0.000 A 
ATOM     12  C   UNL     1       3.544   5.357  19.191  0.00  0.00    +0.000 A 
ATOM     13  C   UNL     1       4.793   5.879  18.841  0.00  0.00    +0.000 A 
ATOM     14  C   UNL     1       5.445   5.453  17.665  0.00  0.00    +0.000 A 
ENDBRANCH   2   5
BRANCH   3  15
ATOM     15  C   UNL     1       8.238   9.325  17.949  0.00  0.00    +0.000 A 
ATOM     16  C   UNL     1       8.966   9.249  19.143  0.00  0.00    +0.000 A 
ATOM     17  C   UNL     1       9.483  10.394  19.766  0.00  0.00    +0.000 A 
ATOM     18  C   UNL     1       9.312  11.645  19.178  0.00  0.00    +0.000 A 
ATOM     19  C   UNL     1       8.564  11.756  18.005  0.00  0.00    +0.000 A 
ATOM     20  C   UNL     1       8.042  10.599  17.388  0.00  0.00    +0.000 A 
BRANCH  18  21
ATOM     21  S   UNL     1       9.929  13.101  20.016  0.00  0.00    +0.000 S 
ATOM     22  O   UNL     1       8.920  14.129  19.887  0.00  0.00    +0.000 OA
ATOM     23  O   UNL     1      10.401  12.679  21.321  0.00  0.00    +0.000 OA
BRANCH  21  24
ATOM     24  N   UNL     1      11.278  13.582  19.116  0.00  0.00    +0.000 NA
ATOM     25  C   UNL     1      11.228  14.828  18.338  0.00  0.00    +0.000 C 
ATOM     26  C   UNL     1      11.205  14.353  16.898  0.00  0.00    +0.000 C 
ATOM     27  C   UNL     1      12.088  13.116  16.908  0.00  0.00    +0.000 C 
ATOM     28  C   UNL     1      12.032  12.577  18.338  0.00  0.00    +0.000 C 
ENDBRANCH  21  24
ENDBRANCH  18  21
ENDBRANCH   3  15
TORSDOF 4
ENDMDL
MODEL 9
REMARK VINA RESULT:      -8.1      3.117      8.854
REMARK  Name = 
REMARK  4 active torsions:
REMARK  status: ('A' for Active; 'I' for Inactive)
REMARK    1  A    between atoms: C_2  and  C_18
REMARK    2  A    between atoms: N_3  and  C_4
REMARK    3  A    between atoms: C_7  and  S_8
REMARK    4  A    between atoms: S_8  and  N_11
REMARK                            x       y       z     vdW  Elec       q    Type
REMARK                         _______ _______ _______ _____ _____    ______ ____
ROOT
ATOM      1  O   UNL     1       2.499   7.349  19.779  0.00  0.00    +0.000 OA
ATOM      2  C   UNL     1       2.727   7.399  18.570  0.00  0.00    +0.000 C 
ATOM      3  N   UNL     1       2.390   8.450  17.725  0.00  0.00    +0.000 N 
ATOM      4  H   UNL     1       2.591   8.337  16.739  0.00  0.00    +0.000 HD
ENDROOT
BRANCH   2   5
ATOM      5  C   UNL     1       3.287   6.154  17.963  0.00  0.00    +0.000 A 
ATOM      6  C   UNL     1       4.378   6.392  17.103  0.00  0.00    +0.000 A 
ATOM      7  C   UNL     1       4.976   5.349  16.411  0.00  0.00    +0.000 A 
ATOM      8  C   UNL     1       4.503   4.056  16.591  0.00  0.00    +0.000 A 
ATOM      9  C   UNL     1       3.430   3.780  17.416  0.00  0.00    +0.000 A 
ATOM     10  N   UNL     1       3.052   2.495  17.482  0.00  0.00    +0.000 NA
ATOM     11  C   UNL     1       1.960   2.183  18.202  0.00  0.00    +0.000 A 
ATOM     12  C   UNL     1       1.204   3.119  18.867  0.00  0.00    +0.000 A 
ATOM     13  C   UNL     1       1.609   4.456  18.824  0.00  0.00    +0.000 A 
ATOM     14  C   UNL     1       2.765   4.834  18.108  0.00  0.00    +0.000 A 
ENDBRANCH   2   5
BRANCH   3  15
ATOM     15  C   UNL     1       1.615   9.591  18.096  0.00  0.00    +0.000 A 
ATOM     16  C   UNL     1       2.164  10.854  18.346  0.00  0.00    +0.000 A 
ATOM     17  C   UNL     1       1.370  11.936  18.758  0.00  0.00    +0.000 A 
ATOM     18  C   UNL     1      -0.007  11.779  18.889  0.00  0.00    +0.000 A 
ATOM     19  C   UNL     1      -0.579  10.524  18.677  0.00  0.00    +0.000 A 
ATOM     20  C   UNL     1       0.228   9.439  18.269  0.00  0.00    +0.000 A 
BRANCH  18  21
ATOM     21  S   UNL     1      -0.996  13.153  19.470  0.00  0.00    +0.000 S 
ATOM     22  O   UNL     1      -0.581  14.323  18.728  0.00  0.00    +0.000 OA
ATOM     23  O   UNL     1      -2.380  12.719  19.464  0.00  0.00    +0.000 OA
BRANCH  21  24
ATOM     24  N   UNL     1      -0.535  13.370  21.082  0.00  0.00    +0.000 NA
ATOM     25  C   UNL     1      -0.316  12.199  21.942  0.00  0.00    +0.000 C 
ATOM     26  C   UNL     1      -1.482  12.240  22.911  0.00  0.00    +0.000 C 
ATOM     27  C   UNL     1      -1.713  13.725  23.141  0.00  0.00    +0.000 C 
ATOM     28  C   UNL     1      -1.183  14.425  21.890  0.00  0.00    +0.000 C 
ENDBRANCH  21  24
ENDBRANCH  18  21
ENDBRANCH   3  15
TORSDOF 4
ENDMDL
