MODEL 1
REMARK VINA RESULT:      -8.6      0.000      0.000
REMARK  Name = 
REMARK  3 active torsions:
REMARK  status: ('A' for Active; 'I' for Inactive)
REMARK    1  A    between atoms: C_2  and  C_14
REMARK    2  A    between atoms: N_3  and  C_4
REMARK    3  A    between atoms: C_7  and  C_8
REMARK                            x       y       z     vdW  Elec       q    Type
REMARK                         _______ _______ _______ _____ _____    ______ ____
ROOT
ATOM      1  O   UNL     1       2.116   9.044  17.308  0.00  0.00    +0.000 OA
ATOM      2  C   UNL     1       1.882   8.514  18.400  0.00  0.00    +0.000 C 
ATOM      3  N   UNL     1       2.443   7.309  18.771  0.00  0.00    +0.000 N 
ATOM      4  H   UNL     1       2.166   6.888  19.647  0.00  0.00    +0.000 HD
ENDROOT
BRANCH   2   5
ATOM      5  C   UNL     1       1.067   9.368  19.348  0.00  0.00    +0.000 A 
ATOM      6  C   UNL     1       0.656  10.565  18.728  0.00  0.00    +0.000 A 
ATOM      7  C   UNL     1       0.453  11.700  19.473  0.00  0.00    +0.000 A 
ATOM      8  C   UNL     1       0.514  11.566  20.833  0.00  0.00    +0.000 A 
ATOM      9  C   UNL     1       0.442  12.757  21.652  0.00  0.00    +0.000 A 
ATOM     10  O   UNL     1       1.217  13.701  21.513  0.00  0.00    +0.000 OA
ATOM     11  N   UNL     1      -0.599  12.689  22.517  0.00  0.00    +0.000 N 
ATOM     12  C   UNL     1      -1.257  11.497  22.771  0.00  0.00    +0.000 A 
ATOM     13  N   UNL     1      -0.787  10.311  22.406  0.00  0.00    +0.000 NA
ATOM     14  C   UNL     1       0.235  10.336  21.398  0.00  0.00    +0.000 A 
ATOM     15  C   UNL     1       0.719   9.203  20.707  0.00  0.00    +0.000 A 
ATOM     16  C   UNL     1      -2.551  11.877  23.440  0.00  0.00    +0.000 C 
ATOM     17  C   UNL     1      -2.674  13.378  23.090  0.00  0.00    +0.000 C 
ATOM     18  C   UNL     1      -1.227  13.822  23.110  0.00  0.00    +0.000 C 
ENDBRANCH   2   5
BRANCH   3  19
ATOM     19  C   UNL     1       3.403   6.589  17.973  0.00  0.00    +0.000 A 
ATOM     20  C   UNL     1       4.535   7.176  17.363  0.00  0.00    +0.000 A 
ATOM     21  C   UNL     1       5.427   6.442  16.566  0.00  0.00    +0.000 A 
ATOM     22  C   UNL     1       5.230   5.080  16.355  0.00  0.00    +0.000 A 
ATOM     23  C   UNL     1       4.134   4.471  16.988  0.00  0.00    +0.000 A 
ATOM     24  C   UNL     1       3.237   5.217  17.782  0.00  0.00    +0.000 A 
BRANCH  22  25
ATOM     25  C   UNL     1       6.169   4.286  15.473  0.00  0.00    +0.000 C 
ATOM     26  F   UNL     1       7.484   4.455  15.777  0.00  0.00    +0.000 F 
ATOM     27  F   UNL     1       5.944   2.946  15.535  0.00  0.00    +0.000 F 
ATOM     28  F   UNL     1       6.048   4.621  14.157  0.00  0.00    +0.000 F 
ENDBRANCH  22  25
ENDBRANCH   3  19
TORSDOF 3
ENDMDL
MODEL 2
REMARK VINA RESULT:      -8.4      7.063      9.123
REMARK  Name = 
REMARK  3 active torsions:
REMARK  status: ('A' for Active; 'I' for Inactive)
REMARK    1  A    between atoms: C_2  and  C_14
REMARK    2  A    between atoms: N_3  and  C_4
REMARK    3  A    between atoms: C_7  and  C_8
REMARK                            x       y       z     vdW  Elec       q    Type
REMARK                         _______ _______ _______ _____ _____    ______ ____
ROOT
ATOM      1  O   UNL     1       8.428   7.992  16.641  0.00  0.00    +0.000 OA
ATOM      2  C   UNL     1       7.884   7.994  17.751  0.00  0.00    +0.000 C 
ATOM      3  N   UNL     1       8.054   9.024  18.654  0.00  0.00    +0.000 N 
ATOM      4  H   UNL     1       7.640   8.944  19.573  0.00  0.00    +0.000 HD
ENDROOT
BRANCH   2   5
ATOM      5  C   UNL     1       6.899   6.865  17.968  0.00  0.00    +0.000 A 
ATOM      6  C   UNL     1       5.792   6.984  17.103  0.00  0.00    +0.000 A 
ATOM      7  C   UNL     1       4.564   6.496  17.475  0.00  0.00    +0.000 A 
ATOM      8  C   UNL     1       4.513   5.766  18.631  0.00  0.00    +0.000 A 
ATOM      9  C   UNL     1       3.221   5.349  19.132  0.00  0.00    +0.000 A 
ATOM     10  O   UNL     1       2.315   6.146  19.364  0.00  0.00    +0.000 OA
ATOM     11  N   UNL     1       3.158   4.000  19.249  0.00  0.00    +0.000 N 
ATOM     12  C   UNL     1       4.296   3.212  19.203  0.00  0.00    +0.000 A 
ATOM     13  N   UNL     1       5.525   3.699  19.298  0.00  0.00    +0.000 NA
ATOM     14  C   UNL     1       5.651   5.109  19.060  0.00  0.00    +0.000 A 
ATOM     15  C   UNL     1       6.873   5.797  18.893  0.00  0.00    +0.000 A 
ATOM     16  C   UNL     1       3.812   1.806  18.968  0.00  0.00    +0.000 C 
ATOM     17  C   UNL     1       2.370   2.035  18.456  0.00  0.00    +0.000 C 
ATOM     18  C   UNL     1       1.946   3.250  19.254  0.00  0.00    +0.000 C 
ENDBRANCH   2   5
BRANCH   3  19
ATOM     19  C   UNL     1       8.808  10.220  18.379  0.00  0.00    +0.000 A 
ATOM     20  C   UNL     1      10.169  10.402  18.719  0.00  0.00    +0.000 A 
ATOM     21  C   UNL     1      10.857  11.598  18.461  0.00  0.00    +0.000 A 
ATOM     22  C   UNL     1      10.212  12.663  17.837  0.00  0.00    +0.000 A 
ATOM     23  C   UNL     1       8.873  12.485  17.454  0.00  0.00    +0.000 A 
ATOM     24  C   UNL     1       8.186  11.282  17.723  0.00  0.00    +0.000 A 
BRANCH  22  25
ATOM     25  C   UNL     1      10.937  13.968  17.582  0.00  0.00    +0.000 C 
ATOM     26  F   UNL     1      11.722  13.952  16.472  0.00  0.00    +0.000 F 
ATOM     27  F   UNL     1      10.088  15.018  17.420  0.00  0.00    +0.000 F 
ATOM     28  F   UNL     1      11.760  14.311  18.613  0.00  0.00    +0.000 F 
ENDBRANCH  22  25
ENDBRANCH   3  19
TORSDOF 3
ENDMDL
MODEL 3
REMARK VINA RESULT:      -8.3      2.103      3.217
REMARK  Name = 
REMARK  3 active torsions:
REMARK  status: ('A' for Active; 'I' for Inactive)
REMARK    1  A    between atoms: C_2  and  C_14
REMARK    2  A    between atoms: N_3  and  C_4
REMARK    3  A    between atoms: C_7  and  C_8
REMARK                            x       y       z     vdW  Elec       q    Type
REMARK                         _______ _______ _______ _____ _____    ______ ____
ROOT
ATOM      1  O   UNL     1       0.411   9.563  19.107  0.00  0.00    +0.000 OA
ATOM      2  C   UNL     1       0.609   9.381  20.313  0.00  0.00    +0.000 C 
ATOM      3  N   UNL     1       1.315   8.295  20.790  0.00  0.00    +0.000 N 
ATOM      4  H   UNL     1       1.390   8.159  21.789  0.00  0.00    +0.000 HD
ENDROOT
BRANCH   2   5
ATOM      5  C   UNL     1       0.156  10.522  21.200  0.00  0.00    +0.000 A 
ATOM      6  C   UNL     1      -0.224  10.055  22.474  0.00  0.00    +0.000 A 
ATOM      7  C   UNL     1      -1.174  10.723  23.205  0.00  0.00    +0.000 A 
ATOM      8  C   UNL     1      -1.604  11.924  22.709  0.00  0.00    +0.000 A 
ATOM      9  C   UNL     1      -2.700  12.596  23.372  0.00  0.00    +0.000 A 
ATOM     10  O   UNL     1      -3.790  12.058  23.555  0.00  0.00    +0.000 OA
ATOM     11  N   UNL     1      -2.332  13.833  23.786  0.00  0.00    +0.000 N 
ATOM     12  C   UNL     1      -1.178  14.442  23.322  0.00  0.00    +0.000 A 
ATOM     13  N   UNL     1      -0.488  14.000  22.279  0.00  0.00    +0.000 NA
ATOM     14  C   UNL     1      -0.764  12.647  21.884  0.00  0.00    +0.000 A 
ATOM     15  C   UNL     1      -0.004  11.904  20.954  0.00  0.00    +0.000 A 
ATOM     16  C   UNL     1      -0.904  15.579  24.270  0.00  0.00    +0.000 C 
ATOM     17  C   UNL     1      -1.771  15.204  25.494  0.00  0.00    +0.000 C 
ATOM     18  C   UNL     1      -2.970  14.552  24.838  0.00  0.00    +0.000 C 
ENDBRANCH   2   5
BRANCH   3  19
ATOM     19  C   UNL     1       1.951   7.315  19.947  0.00  0.00    +0.000 A 
ATOM     20  C   UNL     1       2.546   7.604  18.697  0.00  0.00    +0.000 A 
ATOM     21  C   UNL     1       3.127   6.611  17.892  0.00  0.00    +0.000 A 
ATOM     22  C   UNL     1       3.147   5.283  18.312  0.00  0.00    +0.000 A 
ATOM     23  C   UNL     1       2.598   4.985  19.570  0.00  0.00    +0.000 A 
ATOM     24  C   UNL     1       2.010   5.988  20.370  0.00  0.00    +0.000 A 
BRANCH  22  25
ATOM     25  C   UNL     1       3.743   4.201  17.438  0.00  0.00    +0.000 C 
ATOM     26  F   UNL     1       4.539   4.675  16.442  0.00  0.00    +0.000 F 
ATOM     27  F   UNL     1       4.510   3.322  18.137  0.00  0.00    +0.000 F 
ATOM     28  F   UNL     1       2.787   3.450  16.821  0.00  0.00    +0.000 F 
ENDBRANCH  22  25
ENDBRANCH   3  19
TORSDOF 3
ENDMDL
MODEL 4
REMARK VINA RESULT:      -8.3      0.673      1.255
REMARK  Name = 
REMARK  3 active torsions:
REMARK  status: ('A' for Active; 'I' for Inactive)
REMARK    1  A    between atoms: C_2  and  C_14
REMARK    2  A    between atoms: N_3  and  C_4
REMARK    3  A    between atoms: C_7  and  C_8
REMARK                            x       y       z     vdW  Elec       q    Type
REMARK                         _______ _______ _______ _____ _____    ______ ____
ROOT
ATOM      1  O   UNL     1       2.311   9.005  17.259  0.00  0.00    +0.000 OA
ATOM      2  C   UNL     1       1.942   8.429  18.289  0.00  0.00    +0.000 C 
ATOM      3  N   UNL     1       2.410   7.181  18.644  0.00  0.00    +0.000 N 
ATOM      4  H   UNL     1       2.026   6.727  19.461  0.00  0.00    +0.000 HD
ENDROOT
BRANCH   2   5
ATOM      5  C   UNL     1       1.069   9.270  19.197  0.00  0.00    +0.000 A 
ATOM      6  C   UNL     1       0.181  10.069  18.450  0.00  0.00    +0.000 A 
ATOM      7  C   UNL     1      -0.254  11.274  18.945  0.00  0.00    +0.000 A 
ATOM      8  C   UNL     1       0.087  11.571  20.237  0.00  0.00    +0.000 A 
ATOM      9  C   UNL     1      -0.232  12.884  20.754  0.00  0.00    +0.000 A 
ATOM     10  O   UNL     1       0.147  13.918  20.209  0.00  0.00    +0.000 OA
ATOM     11  N   UNL     1      -1.022  12.794  21.852  0.00  0.00    +0.000 N 
ATOM     12  C   UNL     1      -1.190  11.599  22.531  0.00  0.00    +0.000 A 
ATOM     13  N   UNL     1      -0.425  10.534  22.335  0.00  0.00    +0.000 NA
ATOM     14  C   UNL     1       0.337  10.536  21.118  0.00  0.00    +0.000 A 
ATOM     15  C   UNL     1       1.041   9.426  20.601  0.00  0.00    +0.000 A 
ATOM     16  C   UNL     1      -2.398  11.792  23.408  0.00  0.00    +0.000 C 
ATOM     17  C   UNL     1      -3.074  13.029  22.771  0.00  0.00    +0.000 C 
ATOM     18  C   UNL     1      -1.877  13.836  22.314  0.00  0.00    +0.000 C 
ENDBRANCH   2   5
BRANCH   3  19
ATOM     19  C   UNL     1       3.416   6.458  17.908  0.00  0.00    +0.000 A 
ATOM     20  C   UNL     1       3.366   5.072  17.638  0.00  0.00    +0.000 A 
ATOM     21  C   UNL     1       4.386   4.401  16.944  0.00  0.00    +0.000 A 
ATOM     22  C   UNL     1       5.499   5.097  16.479  0.00  0.00    +0.000 A 
ATOM     23  C   UNL     1       5.546   6.483  16.701  0.00  0.00    +0.000 A 
ATOM     24  C   UNL     1       4.519   7.149  17.405  0.00  0.00    +0.000 A 
BRANCH  22  25
ATOM     25  C   UNL     1       6.618   4.378  15.757  0.00  0.00    +0.000 C 
ATOM     26  F   UNL     1       7.142   5.080  14.716  0.00  0.00    +0.000 F 
ATOM     27  F   UNL     1       7.668   4.086  16.571  0.00  0.00    +0.000 F 
ATOM     28  F   UNL     1       6.213   3.187  15.232  0.00  0.00    +0.000 F 
ENDBRANCH  22  25
ENDBRANCH   3  19
TORSDOF 3
ENDMDL
MODEL 5
REMARK VINA RESULT:      -8.3      5.580     10.114
REMARK  Name = 
REMARK  3 active torsions:
REMARK  status: ('A' for Active; 'I' for Inactive)
REMARK    1  A    between atoms: C_2  and  C_14
REMARK    2  A    between atoms: N_3  and  C_4
REMARK    3  A    between atoms: C_7  and  C_8
REMARK                            x       y       z     vdW  Elec       q    Type
REMARK                         _______ _______ _______ _____ _____    ______ ____
ROOT
ATOM      1  O   UNL     1       1.171   7.667  21.173  0.00  0.00    +0.000 OA
ATOM      2  C   UNL     1       1.310   8.169  20.052  0.00  0.00    +0.000 C 
ATOM      3  N   UNL     1       0.726   9.370  19.704  0.00  0.00    +0.000 N 
ATOM      4  H   UNL     1       0.817   9.703  18.753  0.00  0.00    +0.000 HD
ENDROOT
BRANCH   2   5
ATOM      5  C   UNL     1       2.295   7.444  19.159  0.00  0.00    +0.000 A 
ATOM      6  C   UNL     1       2.486   6.116  19.588  0.00  0.00    +0.000 A 
ATOM      7  C   UNL     1       3.680   5.477  19.362  0.00  0.00    +0.000 A 
ATOM      8  C   UNL     1       4.592   6.130  18.577  0.00  0.00    +0.000 A 
ATOM      9  C   UNL     1       5.912   5.558  18.425  0.00  0.00    +0.000 A 
ATOM     10  O   UNL     1       6.632   5.295  19.386  0.00  0.00    +0.000 OA
ATOM     11  N   UNL     1       6.191   5.320  17.120  0.00  0.00    +0.000 N 
ATOM     12  C   UNL     1       5.430   5.871  16.102  0.00  0.00    +0.000 A 
ATOM     13  N   UNL     1       4.554   6.849  16.292  0.00  0.00    +0.000 NA
ATOM     14  C   UNL     1       4.141   7.052  17.652  0.00  0.00    +0.000 A 
ATOM     15  C   UNL     1       3.068   7.876  18.059  0.00  0.00    +0.000 A 
ATOM     16  C   UNL     1       5.777   5.091  14.863  0.00  0.00    +0.000 C 
ATOM     17  C   UNL     1       6.437   3.820  15.447  0.00  0.00    +0.000 C 
ATOM     18  C   UNL     1       7.151   4.372  16.663  0.00  0.00    +0.000 C 
ENDBRANCH   2   5
BRANCH   3  19
ATOM     19  C   UNL     1      -0.032  10.191  20.614  0.00  0.00    +0.000 A 
ATOM     20  C   UNL     1      -0.069  10.003  22.015  0.00  0.00    +0.000 A 
ATOM     21  C   UNL     1      -0.849  10.806  22.862  0.00  0.00    +0.000 A 
ATOM     22  C   UNL     1      -1.617  11.845  22.341  0.00  0.00    +0.000 A 
ATOM     23  C   UNL     1      -1.558  12.073  20.957  0.00  0.00    +0.000 A 
ATOM     24  C   UNL     1      -0.778  11.256  20.111  0.00  0.00    +0.000 A 
BRANCH  22  25
ATOM     25  C   UNL     1      -2.484  12.698  23.243  0.00  0.00    +0.000 C 
ATOM     26  F   UNL     1      -1.781  13.549  24.037  0.00  0.00    +0.000 F 
ATOM     27  F   UNL     1      -3.358  13.476  22.550  0.00  0.00    +0.000 F 
ATOM     28  F   UNL     1      -3.245  11.946  24.088  0.00  0.00    +0.000 F 
ENDBRANCH  22  25
ENDBRANCH   3  19
TORSDOF 3
ENDMDL
MODEL 6
REMARK VINA RESULT:      -8.2      0.919      1.131
REMARK  Name = 
REMARK  3 active torsions:
REMARK  status: ('A' for Active; 'I' for Inactive)
REMARK    1  A    between atoms: C_2  and  C_14
REMARK    2  A    between atoms: N_3  and  C_4
REMARK    3  A    between atoms: C_7  and  C_8
REMARK                            x       y       z     vdW  Elec       q    Type
REMARK                         _______ _______ _______ _____ _____    ______ ____
ROOT
ATOM      1  O   UNL     1       2.251   9.277  17.333  0.00  0.00    +0.000 OA
ATOM      2  C   UNL     1       1.803   8.664  18.308  0.00  0.00    +0.000 C 
ATOM      3  N   UNL     1       2.237   7.399  18.648  0.00  0.00    +0.000 N 
ATOM      4  H   UNL     1       1.790   6.916  19.415  0.00  0.00    +0.000 HD
ENDROOT
BRANCH   2   5
ATOM      5  C   UNL     1       0.867   9.474  19.180  0.00  0.00    +0.000 A 
ATOM      6  C   UNL     1      -0.173  10.044  18.417  0.00  0.00    +0.000 A 
ATOM      7  C   UNL     1      -0.755  11.224  18.807  0.00  0.00    +0.000 A 
ATOM      8  C   UNL     1      -0.390  11.720  20.029  0.00  0.00    +0.000 A 
ATOM      9  C   UNL     1      -0.872  13.027  20.420  0.00  0.00    +0.000 A 
ATOM     10  O   UNL     1      -0.684  14.031  19.737  0.00  0.00    +0.000 OA
ATOM     11  N   UNL     1      -1.575  12.958  21.577  0.00  0.00    +0.000 N 
ATOM     12  C   UNL     1      -1.523  11.842  22.395  0.00  0.00    +0.000 A 
ATOM     13  N   UNL     1      -0.619  10.881  22.261  0.00  0.00    +0.000 NA
ATOM     14  C   UNL     1       0.063  10.846  20.998  0.00  0.00    +0.000 A 
ATOM     15  C   UNL     1       0.896   9.794  20.556  0.00  0.00    +0.000 A 
ATOM     16  C   UNL     1      -2.694  11.965  23.332  0.00  0.00    +0.000 C 
ATOM     17  C   UNL     1      -3.583  13.007  22.614  0.00  0.00    +0.000 C 
ATOM     18  C   UNL     1      -2.549  13.916  21.983  0.00  0.00    +0.000 C 
ENDBRANCH   2   5
BRANCH   3  19
ATOM     19  C   UNL     1       3.294   6.699  17.962  0.00  0.00    +0.000 A 
ATOM     20  C   UNL     1       4.448   7.319  17.432  0.00  0.00    +0.000 A 
ATOM     21  C   UNL     1       5.438   6.603  16.741  0.00  0.00    +0.000 A 
ATOM     22  C   UNL     1       5.319   5.227  16.562  0.00  0.00    +0.000 A 
ATOM     23  C   UNL     1       4.199   4.588  17.119  0.00  0.00    +0.000 A 
ATOM     24  C   UNL     1       3.205   5.316  17.806  0.00  0.00    +0.000 A 
BRANCH  22  25
ATOM     25  C   UNL     1       6.366   4.451  15.792  0.00  0.00    +0.000 C 
ATOM     26  F   UNL     1       6.718   5.024  14.610  0.00  0.00    +0.000 F 
ATOM     27  F   UNL     1       7.525   4.297  16.488  0.00  0.00    +0.000 F 
ATOM     28  F   UNL     1       5.950   3.190  15.482  0.00  0.00    +0.000 F 
ENDBRANCH  22  25
ENDBRANCH   3  19
TORSDOF 3
ENDMDL
MODEL 7
REMARK VINA RESULT:      -8.2      2.598      3.395
REMARK  Name = 
REMARK  3 active torsions:
REMARK  status: ('A' for Active; 'I' for Inactive)
REMARK    1  A    between atoms: C_2  and  C_14
REMARK    2  A    between atoms: N_3  and  C_4
REMARK    3  A    between atoms: C_7  and  C_8
REMARK                            x       y       z     vdW  Elec       q    Type
REMARK                         _______ _______ _______ _____ _____    ______ ____
ROOT
ATOM      1  O   UNL     1       1.665   8.562  19.290  0.00  0.00    +0.000 OA
ATOM      2  C   UNL     1       1.229   8.408  20.436  0.00  0.00    +0.000 C 
ATOM      3  N   UNL     1       1.284   7.194  21.090  0.00  0.00    +0.000 N 
ATOM      4  H   UNL     1       0.853   7.107  22.000  0.00  0.00    +0.000 HD
ENDROOT
BRANCH   2   5
ATOM      5  C   UNL     1       0.784   9.688  21.112  0.00  0.00    +0.000 A 
ATOM      6  C   UNL     1       0.523   9.475  22.481  0.00  0.00    +0.000 A 
ATOM      7  C   UNL     1      -0.404  10.242  23.140  0.00  0.00    +0.000 A 
ATOM      8  C   UNL     1      -0.932  11.302  22.452  0.00  0.00    +0.000 A 
ATOM      9  C   UNL     1      -2.010  12.054  23.056  0.00  0.00    +0.000 A 
ATOM     10  O   UNL     1      -3.054  11.525  23.432  0.00  0.00    +0.000 OA
ATOM     11  N   UNL     1      -1.677  13.362  23.184  0.00  0.00    +0.000 N 
ATOM     12  C   UNL     1      -0.593  13.905  22.514  0.00  0.00    +0.000 A 
ATOM     13  N   UNL     1       0.039  13.287  21.526  0.00  0.00    +0.000 NA
ATOM     14  C   UNL     1      -0.193  11.873  21.433  0.00  0.00    +0.000 A 
ATOM     15  C   UNL     1       0.534  10.985  20.610  0.00  0.00    +0.000 A 
ATOM     16  C   UNL     1      -0.311  15.220  23.190  0.00  0.00    +0.000 C 
ATOM     17  C   UNL     1      -1.065  15.070  24.532  0.00  0.00    +0.000 C 
ATOM     18  C   UNL     1      -2.273  14.255  24.121  0.00  0.00    +0.000 C 
ENDBRANCH   2   5
BRANCH   3  19
ATOM     19  C   UNL     1       1.911   6.016  20.548  0.00  0.00    +0.000 A 
ATOM     20  C   UNL     1       3.180   6.002  19.924  0.00  0.00    +0.000 A 
ATOM     21  C   UNL     1       3.740   4.835  19.380  0.00  0.00    +0.000 A 
ATOM     22  C   UNL     1       3.055   3.625  19.449  0.00  0.00    +0.000 A 
ATOM     23  C   UNL     1       1.812   3.611  20.103  0.00  0.00    +0.000 A 
ATOM     24  C   UNL     1       1.253   4.790  20.642  0.00  0.00    +0.000 A 
BRANCH  22  25
ATOM     25  C   UNL     1       3.636   2.367  18.839  0.00  0.00    +0.000 C 
ATOM     26  F   UNL     1       4.622   1.800  19.584  0.00  0.00    +0.000 F 
ATOM     27  F   UNL     1       2.705   1.392  18.654  0.00  0.00    +0.000 F 
ATOM     28  F   UNL     1       4.184   2.595  17.612  0.00  0.00    +0.000 F 
ENDBRANCH  22  25
ENDBRANCH   3  19
TORSDOF 3
ENDMDL
MODEL 8
REMARK VINA RESULT:      -8.2      2.449      3.474
REMARK  Name = 
REMARK  3 active torsions:
REMARK  status: ('A' for Active; 'I' for Inactive)
REMARK    1  A    between atoms: C_2  and  C_14
REMARK    2  A    between atoms: N_3  and  C_4
REMARK    3  A    between atoms: C_7  and  C_8
REMARK                            x       y       z     vdW  Elec       q    Type
REMARK                         _______ _______ _______ _____ _____    ______ ____
ROOT
ATOM      1  O   UNL     1      -0.320   7.572  21.180  0.00  0.00    +0.000 OA
ATOM      2  C   UNL     1       0.622   8.371  21.231  0.00  0.00    +0.000 C 
ATOM      3  N   UNL     1       1.864   8.082  20.702  0.00  0.00    +0.000 N 
ATOM      4  H   UNL     1       2.618   8.743  20.830  0.00  0.00    +0.000 HD
ENDROOT
BRANCH   2   5
ATOM      5  C   UNL     1       0.255   9.737  21.770  0.00  0.00    +0.000 A 
ATOM      6  C   UNL     1      -0.373   9.635  23.027  0.00  0.00    +0.000 A 
ATOM      7  C   UNL     1      -1.285  10.580  23.428  0.00  0.00    +0.000 A 
ATOM      8  C   UNL     1      -1.426  11.681  22.628  0.00  0.00    +0.000 A 
ATOM      9  C   UNL     1      -2.470  12.634  22.937  0.00  0.00    +0.000 A 
ATOM     10  O   UNL     1      -3.652  12.309  23.034  0.00  0.00    +0.000 OA
ATOM     11  N   UNL     1      -1.954  13.870  23.144  0.00  0.00    +0.000 N 
ATOM     12  C   UNL     1      -0.658  14.188  22.772  0.00  0.00    +0.000 A 
ATOM     13  N   UNL     1       0.082  13.426  21.979  0.00  0.00    +0.000 NA
ATOM     14  C   UNL     1      -0.367  12.070  21.830  0.00  0.00    +0.000 A 
ATOM     15  C   UNL     1       0.374  11.033  21.220  0.00  0.00    +0.000 A 
ATOM     16  C   UNL     1      -0.326  15.464  23.497  0.00  0.00    +0.000 C 
ATOM     17  C   UNL     1      -1.406  15.507  24.603  0.00  0.00    +0.000 C 
ATOM     18  C   UNL     1      -2.597  14.893  23.898  0.00  0.00    +0.000 C 
ENDBRANCH   2   5
BRANCH   3  19
ATOM     19  C   UNL     1       2.170   6.873  19.981  0.00  0.00    +0.000 A 
ATOM     20  C   UNL     1       2.039   5.570  20.516  0.00  0.00    +0.000 A 
ATOM     21  C   UNL     1       2.382   4.419  19.788  0.00  0.00    +0.000 A 
ATOM     22  C   UNL     1       2.860   4.524  18.484  0.00  0.00    +0.000 A 
ATOM     23  C   UNL     1       2.956   5.808  17.923  0.00  0.00    +0.000 A 
ATOM     24  C   UNL     1       2.617   6.960  18.663  0.00  0.00    +0.000 A 
BRANCH  22  25
ATOM     25  C   UNL     1       3.260   3.291  17.702  0.00  0.00    +0.000 C 
ATOM     26  F   UNL     1       3.840   3.565  16.503  0.00  0.00    +0.000 F 
ATOM     27  F   UNL     1       4.148   2.508  18.372  0.00  0.00    +0.000 F 
ATOM     28  F   UNL     1       2.194   2.488  17.423  0.00  0.00    +0.000 F 
ENDBRANCH  22  25
ENDBRANCH   3  19
TORSDOF 3
ENDMDL
MODEL 9
REMARK VINA RESULT:      -8.1      1.276      1.632
REMARK  Name = 
REMARK  3 active torsions:
REMARK  status: ('A' for Active; 'I' for Inactive)
REMARK    1  A    between atoms: C_2  and  C_14
REMARK    2  A    between atoms: N_3  and  C_4
REMARK    3  A    between atoms: C_7  and  C_8
REMARK                            x       y       z     vdW  Elec       q    Type
REMARK                         _______ _______ _______ _____ _____    ______ ____
ROOT
ATOM      1  O   UNL     1       1.693   7.011  20.796  0.00  0.00    +0.000 OA
ATOM      2  C   UNL     1       1.587   8.048  20.132  0.00  0.00    +0.000 C 
ATOM      3  N   UNL     1       2.164   8.189  18.886  0.00  0.00    +0.000 N 
ATOM      4  H   UNL     1       2.103   9.081  18.415  0.00  0.00    +0.000 HD
ENDROOT
BRANCH   2   5
ATOM      5  C   UNL     1       0.648   9.078  20.725  0.00  0.00    +0.000 A 
ATOM      6  C   UNL     1       0.172   9.961  19.735  0.00  0.00    +0.000 A 
ATOM      7  C   UNL     1      -0.170  11.250  20.060  0.00  0.00    +0.000 A 
ATOM      8  C   UNL     1      -0.175  11.572  21.390  0.00  0.00    +0.000 A 
ATOM      9  C   UNL     1      -0.396  12.951  21.769  0.00  0.00    +0.000 A 
ATOM     10  O   UNL     1       0.301  13.871  21.347  0.00  0.00    +0.000 OA
ATOM     11  N   UNL     1      -1.475  13.064  22.581  0.00  0.00    +0.000 N 
ATOM     12  C   UNL     1      -2.042  11.959  23.196  0.00  0.00    +0.000 A 
ATOM     13  N   UNL     1      -1.452  10.773  23.253  0.00  0.00    +0.000 NA
ATOM     14  C   UNL     1      -0.379  10.571  22.321  0.00  0.00    +0.000 A 
ATOM     15  C   UNL     1       0.240   9.330  22.054  0.00  0.00    +0.000 A 
ATOM     16  C   UNL     1      -3.400  12.405  23.669  0.00  0.00    +0.000 C 
ATOM     17  C   UNL     1      -3.632  13.691  22.841  0.00  0.00    +0.000 C 
ATOM     18  C   UNL     1      -2.231  14.259  22.752  0.00  0.00    +0.000 C 
ENDBRANCH   2   5
BRANCH   3  19
ATOM     19  C   UNL     1       2.873   7.136  18.204  0.00  0.00    +0.000 A 
ATOM     20  C   UNL     1       2.479   5.778  18.204  0.00  0.00    +0.000 A 
ATOM     21  C   UNL     1       3.219   4.779  17.552  0.00  0.00    +0.000 A 
ATOM     22  C   UNL     1       4.383   5.101  16.859  0.00  0.00    +0.000 A 
ATOM     23  C   UNL     1       4.767   6.451  16.813  0.00  0.00    +0.000 A 
ATOM     24  C   UNL     1       4.021   7.449  17.476  0.00  0.00    +0.000 A 
BRANCH  22  25
ATOM     25  C   UNL     1       5.204   4.026  16.179  0.00  0.00    +0.000 C 
ATOM     26  F   UNL     1       6.533   4.087  16.463  0.00  0.00    +0.000 F 
ATOM     27  F   UNL     1       4.811   2.769  16.518  0.00  0.00    +0.000 F 
ATOM     28  F   UNL     1       5.114   4.090  14.820  0.00  0.00    +0.000 F 
ENDBRANCH  22  25
ENDBRANCH   3  19
TORSDOF 3
ENDMDL
