MODEL 1
REMARK VINA RESULT:      -8.2      0.000      0.000
REMARK  Name = 
REMARK  6 active torsions:
REMARK  status: ('A' for Active; 'I' for Inactive)
REMARK    1  A    between atoms: C_7  and  C_8
REMARK    2  A    between atoms: C_11  and  S_12
REMARK    3  A    between atoms: S_12  and  C_13
REMARK    4  A    between atoms: C_13  and  C_14
REMARK    5  A    between atoms: C_17  and  C_18
REMARK    6  A    between atoms: N_26  and  C_27
REMARK                            x       y       z     vdW  Elec       q    Type
REMARK                         _______ _______ _______ _____ _____    ______ ____
ROOT
ATOM      1  C   UNL     1       4.868   4.653  19.022  0.00  0.00    +0.000 A 
ATOM      2  N   UNL     1       5.730   4.717  20.032  0.00  0.00    +0.000 NA
ATOM      3  N   UNL     1       6.826   5.468  19.665  0.00  0.00    +0.000 NA
ATOM      4  C   UNL     1       6.634   5.883  18.438  0.00  0.00    +0.000 A 
ATOM      5  N   UNL     1       5.398   5.440  18.002  0.00  0.00    +0.000 N 
ENDROOT
BRANCH   1  12
ATOM      6  F   UNL     1       4.060   2.219  17.535  0.00  0.00    +0.000 F 
ATOM      7  C   UNL     1       3.200   2.814  18.365  0.00  0.00    +0.000 A 
ATOM      8  C   UNL     1       1.939   2.204  18.492  0.00  0.00    +0.000 A 
ATOM      9  C   UNL     1       1.013   2.694  19.400  0.00  0.00    +0.000 A 
ATOM     10  C   UNL     1       1.350   3.789  20.189  0.00  0.00    +0.000 A 
ATOM     11  C   UNL     1       2.606   4.405  20.039  0.00  0.00    +0.000 A 
ATOM     12  C   UNL     1       3.559   3.946  19.106  0.00  0.00    +0.000 A 
ENDBRANCH   1  12
BRANCH   5  13
ATOM     13  C   UNL     1       4.820   5.681  16.701  0.00  0.00    +0.000 C 
ATOM     14  C   UNL     1       4.722   4.697  15.567  0.00  0.00    +0.000 C 
ATOM     15  C   UNL     1       5.633   5.890  15.450  0.00  0.00    +0.000 C 
ENDBRANCH   5  13
BRANCH   4  16
ATOM     16  S   UNL     1       7.775   6.765  17.456  0.00  0.00    +0.000 S 
BRANCH  16  17
ATOM     17  C   UNL     1       7.219   8.490  17.585  0.00  0.00    +0.000 C 
BRANCH  17  18
ATOM     18  C   UNL     1       8.267   9.397  18.156  0.00  0.00    +0.000 A 
ATOM     19  N   UNL     1       8.954   9.254  19.273  0.00  0.00    +0.000 NA
ATOM     20  N   UNL     1       9.729  10.387  19.410  0.00  0.00    +0.000 NA
ATOM     21  C   UNL     1       9.460  11.169  18.381  0.00  0.00    +0.000 A 
ATOM     22  O   UNL     1       8.542  10.593  17.527  0.00  0.00    +0.000 OA
BRANCH  21  23
ATOM     23  C   UNL     1      10.080  12.453  18.025  0.00  0.00    +0.000 A 
ATOM     24  C   UNL     1      11.262  12.407  17.252  0.00  0.00    +0.000 A 
ATOM     25  C   UNL     1      11.924  13.570  16.831  0.00  0.00    +0.000 A 
ATOM     26  C   UNL     1      11.420  14.815  17.186  0.00  0.00    +0.000 A 
ATOM     27  C   UNL     1      10.277  14.891  17.978  0.00  0.00    +0.000 A 
ATOM     28  C   UNL     1       9.614  13.722  18.406  0.00  0.00    +0.000 A 
ATOM     29 BR   UNL     1       8.139  13.994  19.574  0.00  0.00    +0.000 Br
ENDBRANCH  21  23
ENDBRANCH  17  18
ENDBRANCH  16  17
ENDBRANCH   4  16
TORSDOF 6
ENDMDL
MODEL 2
REMARK VINA RESULT:      -8.1      6.073      8.836
REMARK  Name = 
REMARK  6 active torsions:
REMARK  status: ('A' for Active; 'I' for Inactive)
REMARK    1  A    between atoms: C_7  and  C_8
REMARK    2  A    between atoms: C_11  and  S_12
REMARK    3  A    between atoms: S_12  and  C_13
REMARK    4  A    between atoms: C_13  and  C_14
REMARK    5  A    between atoms: C_17  and  C_18
REMARK    6  A    between atoms: N_26  and  C_27
REMARK                            x       y       z     vdW  Elec       q    Type
REMARK                         _______ _______ _______ _____ _____    ______ ____
ROOT
ATOM      1  C   UNL     1       1.270   9.487  18.982  0.00  0.00    +0.000 A 
ATOM      2  N   UNL     1       2.036   8.905  18.065  0.00  0.00    +0.000 NA
ATOM      3  N   UNL     1       2.437   7.663  18.508  0.00  0.00    +0.000 NA
ATOM      4  C   UNL     1       1.904   7.468  19.688  0.00  0.00    +0.000 A 
ATOM      5  N   UNL     1       1.123   8.562  20.014  0.00  0.00    +0.000 N 
ENDROOT
BRANCH   1  12
ATOM      6  F   UNL     1      -1.574  10.047  18.363  0.00  0.00    +0.000 F 
ATOM      7  C   UNL     1      -0.702  11.051  18.475  0.00  0.00    +0.000 A 
ATOM      8  C   UNL     1      -1.224  12.346  18.307  0.00  0.00    +0.000 A 
ATOM      9  C   UNL     1      -0.416  13.457  18.498  0.00  0.00    +0.000 A 
ATOM     10  C   UNL     1       0.912  13.274  18.864  0.00  0.00    +0.000 A 
ATOM     11  C   UNL     1       1.431  11.974  19.009  0.00  0.00    +0.000 A 
ATOM     12  C   UNL     1       0.641  10.824  18.796  0.00  0.00    +0.000 A 
ENDBRANCH   1  12
BRANCH   5  13
ATOM     13  C   UNL     1       0.373   8.736  21.236  0.00  0.00    +0.000 C 
ATOM     14  C   UNL     1      -0.090  10.041  21.826  0.00  0.00    +0.000 C 
ATOM     15  C   UNL     1       0.976   9.238  22.523  0.00  0.00    +0.000 C 
ENDBRANCH   5  13
BRANCH   4  16
ATOM     16  S   UNL     1       2.196   6.108  20.741  0.00  0.00    +0.000 S 
BRANCH  16  17
ATOM     17  C   UNL     1       1.311   4.739  19.939  0.00  0.00    +0.000 C 
BRANCH  17  18
ATOM     18  C   UNL     1       1.993   4.254  18.697  0.00  0.00    +0.000 A 
ATOM     19  N   UNL     1       1.580   3.341  17.839  0.00  0.00    +0.000 NA
ATOM     20  N   UNL     1       2.590   3.181  16.913  0.00  0.00    +0.000 NA
ATOM     21  C   UNL     1       3.573   3.988  17.265  0.00  0.00    +0.000 A 
ATOM     22  O   UNL     1       3.255   4.719  18.392  0.00  0.00    +0.000 OA
BRANCH  21  23
ATOM     23  C   UNL     1       4.838   4.246  16.564  0.00  0.00    +0.000 A 
ATOM     24  C   UNL     1       4.900   3.896  15.195  0.00  0.00    +0.000 A 
ATOM     25  C   UNL     1       6.046   4.122  14.420  0.00  0.00    +0.000 A 
ATOM     26  C   UNL     1       7.169   4.697  15.001  0.00  0.00    +0.000 A 
ATOM     27  C   UNL     1       7.150   5.020  16.356  0.00  0.00    +0.000 A 
ATOM     28  C   UNL     1       5.999   4.788  17.138  0.00  0.00    +0.000 A 
ATOM     29 BR   UNL     1       6.174   5.176  18.991  0.00  0.00    +0.000 Br
ENDBRANCH  21  23
ENDBRANCH  17  18
ENDBRANCH  16  17
ENDBRANCH   4  16
TORSDOF 6
ENDMDL
MODEL 3
REMARK VINA RESULT:      -7.9      6.279      8.906
REMARK  Name = 
REMARK  6 active torsions:
REMARK  status: ('A' for Active; 'I' for Inactive)
REMARK    1  A    between atoms: C_7  and  C_8
REMARK    2  A    between atoms: C_11  and  S_12
REMARK    3  A    between atoms: S_12  and  C_13
REMARK    4  A    between atoms: C_13  and  C_14
REMARK    5  A    between atoms: C_17  and  C_18
REMARK    6  A    between atoms: N_26  and  C_27
REMARK                            x       y       z     vdW  Elec       q    Type
REMARK                         _______ _______ _______ _____ _____    ______ ____
ROOT
ATOM      1  C   UNL     1       3.701   6.604  17.950  0.00  0.00    +0.000 A 
ATOM      2  N   UNL     1       3.242   7.766  17.495  0.00  0.00    +0.000 NA
ATOM      3  N   UNL     1       2.333   8.292  18.387  0.00  0.00    +0.000 NA
ATOM      4  C   UNL     1       2.244   7.468  19.401  0.00  0.00    +0.000 A 
ATOM      5  N   UNL     1       3.117   6.414  19.201  0.00  0.00    +0.000 N 
ENDROOT
BRANCH   1  12
ATOM      6  F   UNL     1       3.277   4.036  16.532  0.00  0.00    +0.000 F 
ATOM      7  C   UNL     1       4.499   4.568  16.604  0.00  0.00    +0.000 A 
ATOM      8  C   UNL     1       5.524   3.854  15.958  0.00  0.00    +0.000 A 
ATOM      9  C   UNL     1       6.809   4.374  15.898  0.00  0.00    +0.000 A 
ATOM     10  C   UNL     1       7.066   5.612  16.476  0.00  0.00    +0.000 A 
ATOM     11  C   UNL     1       6.039   6.309  17.138  0.00  0.00    +0.000 A 
ATOM     12  C   UNL     1       4.729   5.794  17.239  0.00  0.00    +0.000 A 
ENDBRANCH   1  12
BRANCH   5  13
ATOM     13  C   UNL     1       3.310   5.291  20.088  0.00  0.00    +0.000 C 
ATOM     14  C   UNL     1       3.689   3.890  19.693  0.00  0.00    +0.000 C 
ATOM     15  C   UNL     1       2.317   4.169  20.247  0.00  0.00    +0.000 C 
ENDBRANCH   5  13
BRANCH   4  16
ATOM     16  S   UNL     1       1.141   7.602  20.745  0.00  0.00    +0.000 S 
BRANCH  16  17
ATOM     17  C   UNL     1       1.293   9.336  21.265  0.00  0.00    +0.000 C 
BRANCH  17  18
ATOM     18  C   UNL     1       0.180  10.196  20.750  0.00  0.00    +0.000 A 
ATOM     19  N   UNL     1      -0.374  11.247  21.323  0.00  0.00    +0.000 NA
ATOM     20  N   UNL     1      -1.412  11.644  20.504  0.00  0.00    +0.000 NA
ATOM     21  C   UNL     1      -1.449  10.804  19.487  0.00  0.00    +0.000 A 
ATOM     22  O   UNL     1      -0.448   9.857  19.570  0.00  0.00    +0.000 OA
BRANCH  21  23
ATOM     23  C   UNL     1      -2.320  10.840  18.305  0.00  0.00    +0.000 A 
ATOM     24  C   UNL     1      -1.846  10.207  17.133  0.00  0.00    +0.000 A 
ATOM     25  C   UNL     1      -2.603  10.156  15.954  0.00  0.00    +0.000 A 
ATOM     26  C   UNL     1      -3.858  10.751  15.916  0.00  0.00    +0.000 A 
ATOM     27  C   UNL     1      -4.337  11.413  17.043  0.00  0.00    +0.000 A 
ATOM     28  C   UNL     1      -3.573  11.469  18.228  0.00  0.00    +0.000 A 
ATOM     29 BR   UNL     1      -4.316  12.509  19.636  0.00  0.00    +0.000 Br
ENDBRANCH  21  23
ENDBRANCH  17  18
ENDBRANCH  16  17
ENDBRANCH   4  16
TORSDOF 6
ENDMDL
MODEL 4
REMARK VINA RESULT:      -7.9      2.043      2.657
REMARK  Name = 
REMARK  6 active torsions:
REMARK  status: ('A' for Active; 'I' for Inactive)
REMARK    1  A    between atoms: C_7  and  C_8
REMARK    2  A    between atoms: C_11  and  S_12
REMARK    3  A    between atoms: S_12  and  C_13
REMARK    4  A    between atoms: C_13  and  C_14
REMARK    5  A    between atoms: C_17  and  C_18
REMARK    6  A    between atoms: N_26  and  C_27
REMARK                            x       y       z     vdW  Elec       q    Type
REMARK                         _______ _______ _______ _____ _____    ______ ____
ROOT
ATOM      1  C   UNL     1       4.810   4.580  18.794  0.00  0.00    +0.000 A 
ATOM      2  N   UNL     1       5.955   4.238  19.376  0.00  0.00    +0.000 NA
ATOM      3  N   UNL     1       6.949   5.120  19.009  0.00  0.00    +0.000 NA
ATOM      4  C   UNL     1       6.416   6.017  18.218  0.00  0.00    +0.000 A 
ATOM      5  N   UNL     1       5.064   5.754  18.087  0.00  0.00    +0.000 N 
ENDROOT
BRANCH   1  12
ATOM      6  F   UNL     1       2.784   5.133  20.886  0.00  0.00    +0.000 F 
ATOM      7  C   UNL     1       2.607   4.122  20.032  0.00  0.00    +0.000 A 
ATOM      8  C   UNL     1       1.420   3.385  20.183  0.00  0.00    +0.000 A 
ATOM      9  C   UNL     1       1.104   2.375  19.285  0.00  0.00    +0.000 A 
ATOM     10  C   UNL     1       1.971   2.109  18.232  0.00  0.00    +0.000 A 
ATOM     11  C   UNL     1       3.167   2.838  18.102  0.00  0.00    +0.000 A 
ATOM     12  C   UNL     1       3.529   3.852  19.014  0.00  0.00    +0.000 A 
ENDBRANCH   1  12
BRANCH   5  13
ATOM     13  C   UNL     1       4.125   6.510  17.292  0.00  0.00    +0.000 C 
ATOM     14  C   UNL     1       3.641   7.908  17.567  0.00  0.00    +0.000 C 
ATOM     15  C   UNL     1       2.692   6.746  17.691  0.00  0.00    +0.000 C 
ENDBRANCH   5  13
BRANCH   4  16
ATOM     16  S   UNL     1       7.266   7.285  17.375  0.00  0.00    +0.000 S 
BRANCH  16  17
ATOM     17  C   UNL     1       8.409   7.948  18.622  0.00  0.00    +0.000 C 
BRANCH  17  18
ATOM     18  C   UNL     1       8.587   9.432  18.517  0.00  0.00    +0.000 A 
ATOM     19  N   UNL     1       8.432  10.203  17.458  0.00  0.00    +0.000 NA
ATOM     20  N   UNL     1       8.794  11.479  17.839  0.00  0.00    +0.000 NA
ATOM     21  C   UNL     1       9.167  11.416  19.104  0.00  0.00    +0.000 A 
ATOM     22  O   UNL     1       9.047  10.138  19.609  0.00  0.00    +0.000 OA
BRANCH  21  23
ATOM     23  C   UNL     1       9.567  12.516  19.993  0.00  0.00    +0.000 A 
ATOM     24  C   UNL     1       8.875  12.638  21.220  0.00  0.00    +0.000 A 
ATOM     25  C   UNL     1       9.190  13.632  22.157  0.00  0.00    +0.000 A 
ATOM     26  C   UNL     1      10.204  14.541  21.882  0.00  0.00    +0.000 A 
ATOM     27  C   UNL     1      10.879  14.467  20.666  0.00  0.00    +0.000 A 
ATOM     28  C   UNL     1      10.559  13.471  19.721  0.00  0.00    +0.000 A 
ATOM     29 BR   UNL     1      11.491  13.578  18.067  0.00  0.00    +0.000 Br
ENDBRANCH  21  23
ENDBRANCH  17  18
ENDBRANCH  16  17
ENDBRANCH   4  16
TORSDOF 6
ENDMDL
MODEL 5
REMARK VINA RESULT:      -7.9      8.439     10.561
REMARK  Name = 
REMARK  6 active torsions:
REMARK  status: ('A' for Active; 'I' for Inactive)
REMARK    1  A    between atoms: C_7  and  C_8
REMARK    2  A    between atoms: C_11  and  S_12
REMARK    3  A    between atoms: S_12  and  C_13
REMARK    4  A    between atoms: C_13  and  C_14
REMARK    5  A    between atoms: C_17  and  C_18
REMARK    6  A    between atoms: N_26  and  C_27
REMARK                            x       y       z     vdW  Elec       q    Type
REMARK                         _______ _______ _______ _____ _____    ______ ____
ROOT
ATOM      1  C   UNL     1      -1.092  12.228  22.251  0.00  0.00    +0.000 A 
ATOM      2  N   UNL     1      -0.108  11.400  22.586  0.00  0.00    +0.000 NA
ATOM      3  N   UNL     1       0.277  10.661  21.488  0.00  0.00    +0.000 NA
ATOM      4  C   UNL     1      -0.454  11.045  20.471  0.00  0.00    +0.000 A 
ATOM      5  N   UNL     1      -1.298  12.060  20.883  0.00  0.00    +0.000 N 
ENDROOT
BRANCH   1  12
ATOM      6  F   UNL     1      -3.636  11.887  23.735  0.00  0.00    +0.000 F 
ATOM      7  C   UNL     1      -2.931  13.012  23.864  0.00  0.00    +0.000 A 
ATOM      8  C   UNL     1      -3.456  13.975  24.744  0.00  0.00    +0.000 A 
ATOM      9  C   UNL     1      -2.748  15.136  25.016  0.00  0.00    +0.000 A 
ATOM     10  C   UNL     1      -1.510  15.331  24.415  0.00  0.00    +0.000 A 
ATOM     11  C   UNL     1      -1.002  14.373  23.519  0.00  0.00    +0.000 A 
ATOM     12  C   UNL     1      -1.710  13.194  23.202  0.00  0.00    +0.000 A 
ENDBRANCH   1  12
BRANCH   5  13
ATOM     13  C   UNL     1      -2.266  12.746  20.060  0.00  0.00    +0.000 C 
ATOM     14  C   UNL     1      -3.700  13.035  20.413  0.00  0.00    +0.000 C 
ATOM     15  C   UNL     1      -3.379  12.049  19.321  0.00  0.00    +0.000 C 
ENDBRANCH   5  13
BRANCH   4  16
ATOM     16  S   UNL     1      -0.454  10.340  18.876  0.00  0.00    +0.000 S 
BRANCH  16  17
ATOM     17  C   UNL     1       1.309  10.199  18.461  0.00  0.00    +0.000 C 
BRANCH  17  18
ATOM     18  C   UNL     1       1.853   8.822  18.694  0.00  0.00    +0.000 A 
ATOM     19  N   UNL     1       1.758   8.077  19.778  0.00  0.00    +0.000 NA
ATOM     20  N   UNL     1       2.491   6.933  19.538  0.00  0.00    +0.000 NA
ATOM     21  C   UNL     1       3.010   7.049  18.330  0.00  0.00    +0.000 A 
ATOM     22  O   UNL     1       2.632   8.229  17.722  0.00  0.00    +0.000 OA
BRANCH  21  23
ATOM     23  C   UNL     1       3.805   6.067  17.580  0.00  0.00    +0.000 A 
ATOM     24  C   UNL     1       4.992   6.529  16.967  0.00  0.00    +0.000 A 
ATOM     25  C   UNL     1       5.843   5.676  16.251  0.00  0.00    +0.000 A 
ATOM     26  C   UNL     1       5.518   4.331  16.120  0.00  0.00    +0.000 A 
ATOM     27  C   UNL     1       4.337   3.854  16.683  0.00  0.00    +0.000 A 
ATOM     28  C   UNL     1       3.479   4.713  17.399  0.00  0.00    +0.000 A 
ATOM     29 BR   UNL     1       1.853   3.933  18.004  0.00  0.00    +0.000 Br
ENDBRANCH  21  23
ENDBRANCH  17  18
ENDBRANCH  16  17
ENDBRANCH   4  16
TORSDOF 6
ENDMDL
MODEL 6
REMARK VINA RESULT:      -7.9      0.790      1.084
REMARK  Name = 
REMARK  6 active torsions:
REMARK  status: ('A' for Active; 'I' for Inactive)
REMARK    1  A    between atoms: C_7  and  C_8
REMARK    2  A    between atoms: C_11  and  S_12
REMARK    3  A    between atoms: S_12  and  C_13
REMARK    4  A    between atoms: C_13  and  C_14
REMARK    5  A    between atoms: C_17  and  C_18
REMARK    6  A    between atoms: N_26  and  C_27
REMARK                            x       y       z     vdW  Elec       q    Type
REMARK                         _______ _______ _______ _____ _____    ______ ____
ROOT
ATOM      1  C   UNL     1       4.908   4.874  19.115  0.00  0.00    +0.000 A 
ATOM      2  N   UNL     1       6.027   4.534  19.748  0.00  0.00    +0.000 NA
ATOM      3  N   UNL     1       7.092   5.240  19.230  0.00  0.00    +0.000 NA
ATOM      4  C   UNL     1       6.630   6.028  18.292  0.00  0.00    +0.000 A 
ATOM      5  N   UNL     1       5.258   5.874  18.209  0.00  0.00    +0.000 N 
ENDROOT
BRANCH   1  12
ATOM      6  F   UNL     1       3.615   2.479  17.941  0.00  0.00    +0.000 F 
ATOM      7  C   UNL     1       2.976   3.201  18.864  0.00  0.00    +0.000 A 
ATOM      8  C   UNL     1       1.702   2.739  19.238  0.00  0.00    +0.000 A 
ATOM      9  C   UNL     1       1.000   3.369  20.256  0.00  0.00    +0.000 A 
ATOM     10  C   UNL     1       1.577   4.454  20.906  0.00  0.00    +0.000 A 
ATOM     11  C   UNL     1       2.843   4.922  20.510  0.00  0.00    +0.000 A 
ATOM     12  C   UNL     1       3.570   4.319  19.461  0.00  0.00    +0.000 A 
ENDBRANCH   1  12
BRANCH   5  13
ATOM     13  C   UNL     1       4.380   6.562  17.293  0.00  0.00    +0.000 C 
ATOM     14  C   UNL     1       3.568   7.796  17.585  0.00  0.00    +0.000 C 
ATOM     15  C   UNL     1       2.876   6.479  17.353  0.00  0.00    +0.000 C 
ENDBRANCH   5  13
BRANCH   4  16
ATOM     16  S   UNL     1       7.580   7.042  17.236  0.00  0.00    +0.000 S 
BRANCH  16  17
ATOM     17  C   UNL     1       7.067   8.729  17.674  0.00  0.00    +0.000 C 
BRANCH  17  18
ATOM     18  C   UNL     1       8.203   9.571  18.169  0.00  0.00    +0.000 A 
ATOM     19  N   UNL     1       9.000   9.349  19.196  0.00  0.00    +0.000 NA
ATOM     20  N   UNL     1       9.827  10.449  19.302  0.00  0.00    +0.000 NA
ATOM     21  C   UNL     1       9.478  11.291  18.347  0.00  0.00    +0.000 A 
ATOM     22  O   UNL     1       8.453  10.789  17.572  0.00  0.00    +0.000 OA
BRANCH  21  23
ATOM     23  C   UNL     1      10.103  12.572  17.988  0.00  0.00    +0.000 A 
ATOM     24  C   UNL     1      11.279  12.520  17.206  0.00  0.00    +0.000 A 
ATOM     25  C   UNL     1      11.944  13.679  16.782  0.00  0.00    +0.000 A 
ATOM     26  C   UNL     1      11.451  14.927  17.142  0.00  0.00    +0.000 A 
ATOM     27  C   UNL     1      10.314  15.009  17.941  0.00  0.00    +0.000 A 
ATOM     28  C   UNL     1       9.647  13.843  18.373  0.00  0.00    +0.000 A 
ATOM     29 BR   UNL     1       8.182  14.123  19.552  0.00  0.00    +0.000 Br
ENDBRANCH  21  23
ENDBRANCH  17  18
ENDBRANCH  16  17
ENDBRANCH   4  16
TORSDOF 6
ENDMDL
MODEL 7
REMARK VINA RESULT:      -7.9      6.035      8.812
REMARK  Name = 
REMARK  6 active torsions:
REMARK  status: ('A' for Active; 'I' for Inactive)
REMARK    1  A    between atoms: C_7  and  C_8
REMARK    2  A    between atoms: C_11  and  S_12
REMARK    3  A    between atoms: S_12  and  C_13
REMARK    4  A    between atoms: C_13  and  C_14
REMARK    5  A    between atoms: C_17  and  C_18
REMARK    6  A    between atoms: N_26  and  C_27
REMARK                            x       y       z     vdW  Elec       q    Type
REMARK                         _______ _______ _______ _____ _____    ______ ____
ROOT
ATOM      1  C   UNL     1       1.379   9.813  18.654  0.00  0.00    +0.000 A 
ATOM      2  N   UNL     1       1.887   9.211  17.583  0.00  0.00    +0.000 NA
ATOM      3  N   UNL     1       2.313   7.943  17.917  0.00  0.00    +0.000 NA
ATOM      4  C   UNL     1       2.053   7.755  19.187  0.00  0.00    +0.000 A 
ATOM      5  N   UNL     1       1.423   8.880  19.688  0.00  0.00    +0.000 N 
ENDROOT
BRANCH   1  12
ATOM      6  F   UNL     1       2.858  12.382  18.676  0.00  0.00    +0.000 F 
ATOM      7  C   UNL     1       1.523  12.377  18.664  0.00  0.00    +0.000 A 
ATOM      8  C   UNL     1       0.900  13.637  18.640  0.00  0.00    +0.000 A 
ATOM      9  C   UNL     1      -0.480  13.734  18.533  0.00  0.00    +0.000 A 
ATOM     10  C   UNL     1      -1.236  12.571  18.441  0.00  0.00    +0.000 A 
ATOM     11  C   UNL     1      -0.605  11.314  18.488  0.00  0.00    +0.000 A 
ATOM     12  C   UNL     1       0.794  11.183  18.623  0.00  0.00    +0.000 A 
ENDBRANCH   1  12
BRANCH   5  13
ATOM     13  C   UNL     1       0.979   9.069  21.049  0.00  0.00    +0.000 C 
ATOM     14  C   UNL     1      -0.173   8.374  21.722  0.00  0.00    +0.000 C 
ATOM     15  C   UNL     1      -0.254   9.848  21.426  0.00  0.00    +0.000 C 
ENDBRANCH   5  13
BRANCH   4  16
ATOM     16  S   UNL     1       2.505   6.364  20.138  0.00  0.00    +0.000 S 
BRANCH  16  17
ATOM     17  C   UNL     1       1.725   4.971  19.272  0.00  0.00    +0.000 C 
BRANCH  17  18
ATOM     18  C   UNL     1       2.689   4.202  18.421  0.00  0.00    +0.000 A 
ATOM     19  N   UNL     1       2.889   2.899  18.381  0.00  0.00    +0.000 NA
ATOM     20  N   UNL     1       3.936   2.684  17.509  0.00  0.00    +0.000 NA
ATOM     21  C   UNL     1       4.332   3.867  17.078  0.00  0.00    +0.000 A 
ATOM     22  O   UNL     1       3.569   4.887  17.609  0.00  0.00    +0.000 OA
BRANCH  21  23
ATOM     23  C   UNL     1       5.363   4.175  16.076  0.00  0.00    +0.000 A 
ATOM     24  C   UNL     1       5.087   3.818  14.736  0.00  0.00    +0.000 A 
ATOM     25  C   UNL     1       5.985   4.088  13.693  0.00  0.00    +0.000 A 
ATOM     26  C   UNL     1       7.193   4.715  13.970  0.00  0.00    +0.000 A 
ATOM     27  C   UNL     1       7.507   5.046  15.285  0.00  0.00    +0.000 A 
ATOM     28  C   UNL     1       6.607   4.770  16.335  0.00  0.00    +0.000 A 
ATOM     29 BR   UNL     1       7.235   5.177  18.084  0.00  0.00    +0.000 Br
ENDBRANCH  21  23
ENDBRANCH  17  18
ENDBRANCH  16  17
ENDBRANCH   4  16
TORSDOF 6
ENDMDL
MODEL 8
REMARK VINA RESULT:      -7.8      6.710      9.025
REMARK  Name = 
REMARK  6 active torsions:
REMARK  status: ('A' for Active; 'I' for Inactive)
REMARK    1  A    between atoms: C_7  and  C_8
REMARK    2  A    between atoms: C_11  and  S_12
REMARK    3  A    between atoms: S_12  and  C_13
REMARK    4  A    between atoms: C_13  and  C_14
REMARK    5  A    between atoms: C_17  and  C_18
REMARK    6  A    between atoms: N_26  and  C_27
REMARK                            x       y       z     vdW  Elec       q    Type
REMARK                         _______ _______ _______ _____ _____    ______ ____
ROOT
ATOM      1  C   UNL     1       2.769   6.730  18.650  0.00  0.00    +0.000 A 
ATOM      2  N   UNL     1       2.652   7.962  18.165  0.00  0.00    +0.000 NA
ATOM      3  N   UNL     1       1.917   8.740  19.035  0.00  0.00    +0.000 NA
ATOM      4  C   UNL     1       1.597   7.996  20.064  0.00  0.00    +0.000 A 
ATOM      5  N   UNL     1       2.146   6.737  19.897  0.00  0.00    +0.000 N 
ENDROOT
BRANCH   1  12
ATOM      6  F   UNL     1       5.713   6.555  18.356  0.00  0.00    +0.000 F 
ATOM      7  C   UNL     1       4.929   5.615  17.823  0.00  0.00    +0.000 A 
ATOM      8  C   UNL     1       5.587   4.565  17.158  0.00  0.00    +0.000 A 
ATOM      9  C   UNL     1       4.863   3.494  16.653  0.00  0.00    +0.000 A 
ATOM     10  C   UNL     1       3.483   3.470  16.820  0.00  0.00    +0.000 A 
ATOM     11  C   UNL     1       2.832   4.536  17.468  0.00  0.00    +0.000 A 
ATOM     12  C   UNL     1       3.537   5.651  17.969  0.00  0.00    +0.000 A 
ENDBRANCH   1  12
BRANCH   5  13
ATOM     13  C   UNL     1       2.016   5.626  20.809  0.00  0.00    +0.000 C 
ATOM     14  C   UNL     1       2.613   4.255  20.644  0.00  0.00    +0.000 C 
ATOM     15  C   UNL     1       1.121   4.439  20.560  0.00  0.00    +0.000 C 
ENDBRANCH   5  13
BRANCH   4  16
ATOM     16  S   UNL     1       0.565   8.459  21.392  0.00  0.00    +0.000 S 
BRANCH  16  17
ATOM     17  C   UNL     1       0.893  10.234  21.600  0.00  0.00    +0.000 C 
BRANCH  17  18
ATOM     18  C   UNL     1       0.085  11.087  20.671  0.00  0.00    +0.000 A 
ATOM     19  N   UNL     1       0.063  12.403  20.578  0.00  0.00    +0.000 NA
ATOM     20  N   UNL     1      -0.900  12.718  19.641  0.00  0.00    +0.000 NA
ATOM     21  C   UNL     1      -1.428  11.581  19.227  0.00  0.00    +0.000 A 
ATOM     22  O   UNL     1      -0.836  10.492  19.834  0.00  0.00    +0.000 OA
BRANCH  21  23
ATOM     23  C   UNL     1      -2.437  11.372  18.180  0.00  0.00    +0.000 A 
ATOM     24  C   UNL     1      -1.986  10.855  16.944  0.00  0.00    +0.000 A 
ATOM     25  C   UNL     1      -2.863  10.589  15.882  0.00  0.00    +0.000 A 
ATOM     26  C   UNL     1      -4.220  10.847  16.030  0.00  0.00    +0.000 A 
ATOM     27  C   UNL     1      -4.688  11.390  17.223  0.00  0.00    +0.000 A 
ATOM     28  C   UNL     1      -3.806  11.662  18.289  0.00  0.00    +0.000 A 
ATOM     29 BR   UNL     1      -4.583  12.509  19.804  0.00  0.00    +0.000 Br
ENDBRANCH  21  23
ENDBRANCH  17  18
ENDBRANCH  16  17
ENDBRANCH   4  16
TORSDOF 6
ENDMDL
MODEL 9
REMARK VINA RESULT:      -7.8      6.752      9.258
REMARK  Name = 
REMARK  6 active torsions:
REMARK  status: ('A' for Active; 'I' for Inactive)
REMARK    1  A    between atoms: C_7  and  C_8
REMARK    2  A    between atoms: C_11  and  S_12
REMARK    3  A    between atoms: S_12  and  C_13
REMARK    4  A    between atoms: C_13  and  C_14
REMARK    5  A    between atoms: C_17  and  C_18
REMARK    6  A    between atoms: N_26  and  C_27
REMARK                            x       y       z     vdW  Elec       q    Type
REMARK                         _______ _______ _______ _____ _____    ______ ____
ROOT
ATOM      1  C   UNL     1       0.122  10.554  22.020  0.00  0.00    +0.000 A 
ATOM      2  N   UNL     1       0.857   9.836  22.862  0.00  0.00    +0.000 NA
ATOM      3  N   UNL     1       1.536   8.854  22.172  0.00  0.00    +0.000 NA
ATOM      4  C   UNL     1       1.236   8.976  20.903  0.00  0.00    +0.000 A 
ATOM      5  N   UNL     1       0.388  10.059  20.745  0.00  0.00    +0.000 N 
ENDROOT
BRANCH   1  12
ATOM      6  F   UNL     1       0.811  13.423  21.728  0.00  0.00    +0.000 F 
ATOM      7  C   UNL     1      -0.333  13.065  22.314  0.00  0.00    +0.000 A 
ATOM      8  C   UNL     1      -1.164  14.114  22.744  0.00  0.00    +0.000 A 
ATOM      9  C   UNL     1      -2.415  13.844  23.280  0.00  0.00    +0.000 A 
ATOM     10  C   UNL     1      -2.838  12.523  23.378  0.00  0.00    +0.000 A 
ATOM     11  C   UNL     1      -1.991  11.478  22.966  0.00  0.00    +0.000 A 
ATOM     12  C   UNL     1      -0.703  11.720  22.441  0.00  0.00    +0.000 A 
ENDBRANCH   1  12
BRANCH   5  13
ATOM     13  C   UNL     1      -0.174  10.520  19.498  0.00  0.00    +0.000 C 
ATOM     14  C   UNL     1      -0.200  11.939  18.996  0.00  0.00    +0.000 C 
ATOM     15  C   UNL     1      -1.483  11.259  19.393  0.00  0.00    +0.000 C 
ENDBRANCH   5  13
BRANCH   4  16
ATOM     16  S   UNL     1       1.728   7.905  19.618  0.00  0.00    +0.000 S 
BRANCH  16  17
ATOM     17  C   UNL     1       1.773   6.269  20.406  0.00  0.00    +0.000 C 
BRANCH  17  18
ATOM     18  C   UNL     1       2.806   5.364  19.808  0.00  0.00    +0.000 A 
ATOM     19  N   UNL     1       3.245   4.207  20.265  0.00  0.00    +0.000 NA
ATOM     20  N   UNL     1       4.253   3.801  19.415  0.00  0.00    +0.000 NA
ATOM     21  C   UNL     1       4.389   4.740  18.497  0.00  0.00    +0.000 A 
ATOM     22  O   UNL     1       3.485   5.766  18.676  0.00  0.00    +0.000 OA
BRANCH  21  23
ATOM     23  C   UNL     1       5.274   4.746  17.323  0.00  0.00    +0.000 A 
ATOM     24  C   UNL     1       4.747   4.233  16.115  0.00  0.00    +0.000 A 
ATOM     25  C   UNL     1       5.491   4.214  14.927  0.00  0.00    +0.000 A 
ATOM     26  C   UNL     1       6.792   4.702  14.920  0.00  0.00    +0.000 A 
ATOM     27  C   UNL     1       7.349   5.180  16.103  0.00  0.00    +0.000 A 
ATOM     28  C   UNL     1       6.604   5.195  17.301  0.00  0.00    +0.000 A 
ATOM     29 BR   UNL     1       7.546   5.769  18.849  0.00  0.00    +0.000 Br
ENDBRANCH  21  23
ENDBRANCH  17  18
ENDBRANCH  16  17
ENDBRANCH   4  16
TORSDOF 6
ENDMDL
