MODEL 1
REMARK VINA RESULT:      -8.8      0.000      0.000
REMARK  Name = 
REMARK  4 active torsions:
REMARK  status: ('A' for Active; 'I' for Inactive)
REMARK    1  A    between atoms: C_2  and  C_13
REMARK    2  A    between atoms: N_3  and  C_4
REMARK    3  A    between atoms: C_16  and  C_17
REMARK    4  A    between atoms: C_20  and  C_21
REMARK                            x       y       z     vdW  Elec       q    Type
REMARK                         _______ _______ _______ _____ _____    ______ ____
ROOT
ATOM      1  C   UNL     1       3.103   6.292  18.798  0.00  0.00    +0.000 A 
ATOM      2  C   UNL     1       3.715   7.165  17.889  0.00  0.00    +0.000 A 
ATOM      3  C   UNL     1       4.502   6.665  16.853  0.00  0.00    +0.000 A 
ATOM      4  C   UNL     1       4.679   5.283  16.699  0.00  0.00    +0.000 A 
ATOM      5  C   UNL     1       4.057   4.414  17.613  0.00  0.00    +0.000 A 
ATOM      6  C   UNL     1       3.272   4.912  18.662  0.00  0.00    +0.000 A 
ENDROOT
BRANCH   4   7
ATOM      7  C   UNL     1       5.475   4.760  15.596  0.00  0.00    +0.000 A 
ATOM      8  N   UNL     1       6.809   4.613  15.643  0.00  0.00    +0.000 NA
ATOM      9  O   UNL     1       7.140   4.120  14.388  0.00  0.00    +0.000 OA
ATOM     10  C   UNL     1       5.974   4.011  13.690  0.00  0.00    +0.000 A 
ATOM     11  N   UNL     1       4.919   4.382  14.393  0.00  0.00    +0.000 NA
BRANCH  10  12
ATOM     12  C   UNL     1       6.097   3.519  12.294  0.00  0.00    +0.000 C 
ATOM     13  F   UNL     1       7.123   4.102  11.618  0.00  0.00    +0.000 F 
ATOM     14  F   UNL     1       6.315   2.177  12.238  0.00  0.00    +0.000 F 
ATOM     15  F   UNL     1       4.972   3.761  11.567  0.00  0.00    +0.000 F 
ENDBRANCH  10  12
ENDBRANCH   4   7
BRANCH   1  17
ATOM     16  O   UNL     1       1.681   6.106  20.608  0.00  0.00    +0.000 OA
ATOM     17  C   UNL     1       2.221   6.887  19.829  0.00  0.00    +0.000 C 
ATOM     18  N   UNL     1       2.039   8.257  19.771  0.00  0.00    +0.000 N 
ATOM     19  H   UNL     1       2.388   8.742  18.956  0.00  0.00    +0.000 HD
BRANCH  18  20
ATOM     20  C   UNL     1       1.198   8.998  20.637  0.00  0.00    +0.000 A 
ATOM     21  C   UNL     1       1.094   8.714  22.013  0.00  0.00    +0.000 A 
ATOM     22  C   UNL     1       0.202   9.406  22.835  0.00  0.00    +0.000 A 
ATOM     23  C   UNL     1      -0.565  10.391  22.260  0.00  0.00    +0.000 A 
ATOM     24  C   UNL     1      -0.464  10.706  20.915  0.00  0.00    +0.000 A 
ATOM     25  C   UNL     1       0.423  10.030  20.087  0.00  0.00    +0.000 A 
ATOM     26  C   UNL     1      -1.493  11.718  20.587  0.00  0.00    +0.000 C 
ATOM     27  C   UNL     1      -1.849  12.171  22.005  0.00  0.00    +0.000 C 
ATOM     28  O   UNL     1      -1.508  11.119  22.935  0.00  0.00    +0.000 OA
ENDBRANCH  18  20
ENDBRANCH   1  17
TORSDOF 4
ENDMDL
MODEL 2
REMARK VINA RESULT:      -8.4      0.801      1.546
REMARK  Name = 
REMARK  4 active torsions:
REMARK  status: ('A' for Active; 'I' for Inactive)
REMARK    1  A    between atoms: C_2  and  C_13
REMARK    2  A    between atoms: N_3  and  C_4
REMARK    3  A    between atoms: C_16  and  C_17
REMARK    4  A    between atoms: C_20  and  C_21
REMARK                            x       y       z     vdW  Elec       q    Type
REMARK                         _______ _______ _______ _____ _____    ______ ____
ROOT
ATOM      1  C   UNL     1       3.230   6.546  18.234  0.00  0.00    +0.000 A 
ATOM      2  C   UNL     1       4.036   7.368  17.437  0.00  0.00    +0.000 A 
ATOM      3  C   UNL     1       4.868   6.812  16.466  0.00  0.00    +0.000 A 
ATOM      4  C   UNL     1       4.897   5.425  16.267  0.00  0.00    +0.000 A 
ATOM      5  C   UNL     1       4.081   4.607  17.069  0.00  0.00    +0.000 A 
ATOM      6  C   UNL     1       3.250   5.161  18.051  0.00  0.00    +0.000 A 
ENDROOT
BRANCH   4   7
ATOM      7  C   UNL     1       5.743   4.846  15.230  0.00  0.00    +0.000 A 
ATOM      8  N   UNL     1       7.079   4.745  15.328  0.00  0.00    +0.000 NA
ATOM      9  O   UNL     1       7.464   4.171  14.123  0.00  0.00    +0.000 OA
ATOM     10  C   UNL     1       6.324   3.974  13.401  0.00  0.00    +0.000 A 
ATOM     11  N   UNL     1       5.237   4.364  14.043  0.00  0.00    +0.000 NA
BRANCH  10  12
ATOM     12  C   UNL     1       6.506   3.385  12.050  0.00  0.00    +0.000 C 
ATOM     13  F   UNL     1       7.220   2.226  12.072  0.00  0.00    +0.000 F 
ATOM     14  F   UNL     1       5.319   3.093  11.453  0.00  0.00    +0.000 F 
ATOM     15  F   UNL     1       7.167   4.227  11.211  0.00  0.00    +0.000 F 
ENDBRANCH  10  12
ENDBRANCH   4   7
BRANCH   1  17
ATOM     16  O   UNL     1       1.958   6.542  20.161  0.00  0.00    +0.000 OA
ATOM     17  C   UNL     1       2.315   7.208  19.193  0.00  0.00    +0.000 C 
ATOM     18  N   UNL     1       1.900   8.488  18.869  0.00  0.00    +0.000 N 
ATOM     19  H   UNL     1       2.119   8.831  17.943  0.00  0.00    +0.000 HD
BRANCH  18  20
ATOM     20  C   UNL     1       0.993   9.260  19.634  0.00  0.00    +0.000 A 
ATOM     21  C   UNL     1       0.242  10.314  19.077  0.00  0.00    +0.000 A 
ATOM     22  C   UNL     1      -0.590  11.112  19.864  0.00  0.00    +0.000 A 
ATOM     23  C   UNL     1      -0.666  10.828  21.206  0.00  0.00    +0.000 A 
ATOM     24  C   UNL     1       0.044   9.783  21.774  0.00  0.00    +0.000 A 
ATOM     25  C   UNL     1       0.870   8.977  21.003  0.00  0.00    +0.000 A 
ATOM     26  C   UNL     1      -0.163   9.813  23.240  0.00  0.00    +0.000 C 
ATOM     27  C   UNL     1      -1.379  10.740  23.296  0.00  0.00    +0.000 C 
ATOM     28  O   UNL     1      -1.407  11.554  22.102  0.00  0.00    +0.000 OA
ENDBRANCH  18  20
ENDBRANCH   1  17
TORSDOF 4
ENDMDL
MODEL 3
REMARK VINA RESULT:      -8.3      6.698     11.263
REMARK  Name = 
REMARK  4 active torsions:
REMARK  status: ('A' for Active; 'I' for Inactive)
REMARK    1  A    between atoms: C_2  and  C_13
REMARK    2  A    between atoms: N_3  and  C_4
REMARK    3  A    between atoms: C_16  and  C_17
REMARK    4  A    between atoms: C_20  and  C_21
REMARK                            x       y       z     vdW  Elec       q    Type
REMARK                         _______ _______ _______ _____ _____    ______ ____
ROOT
ATOM      1  C   UNL     1       1.119   9.374  19.556  0.00  0.00    +0.000 A 
ATOM      2  C   UNL     1       0.528  10.552  19.081  0.00  0.00    +0.000 A 
ATOM      3  C   UNL     1      -0.153  11.399  19.954  0.00  0.00    +0.000 A 
ATOM      4  C   UNL     1      -0.241  11.090  21.319  0.00  0.00    +0.000 A 
ATOM      5  C   UNL     1       0.360   9.908  21.787  0.00  0.00    +0.000 A 
ATOM      6  C   UNL     1       1.038   9.048  20.911  0.00  0.00    +0.000 A 
ENDROOT
BRANCH   4   7
ATOM      7  C   UNL     1      -0.925  11.993  22.237  0.00  0.00    +0.000 A 
ATOM      8  N   UNL     1      -0.329  13.035  22.839  0.00  0.00    +0.000 NA
ATOM      9  O   UNL     1      -1.330  13.586  23.629  0.00  0.00    +0.000 OA
ATOM     10  C   UNL     1      -2.446  12.827  23.435  0.00  0.00    +0.000 A 
ATOM     11  N   UNL     1      -2.251  11.840  22.578  0.00  0.00    +0.000 NA
BRANCH  10  12
ATOM     12  C   UNL     1      -3.646  13.227  24.211  0.00  0.00    +0.000 C 
ATOM     13  F   UNL     1      -4.606  13.804  23.439  0.00  0.00    +0.000 F 
ATOM     14  F   UNL     1      -4.237  12.168  24.828  0.00  0.00    +0.000 F 
ATOM     15  F   UNL     1      -3.346  14.127  25.186  0.00  0.00    +0.000 F 
ENDBRANCH  10  12
ENDBRANCH   4   7
BRANCH   1  17
ATOM     16  O   UNL     1       2.022   9.023  17.459  0.00  0.00    +0.000 OA
ATOM     17  C   UNL     1       1.890   8.558  18.588  0.00  0.00    +0.000 C 
ATOM     18  N   UNL     1       2.330   7.323  19.031  0.00  0.00    +0.000 N 
ATOM     19  H   UNL     1       1.977   6.992  19.920  0.00  0.00    +0.000 HD
BRANCH  18  20
ATOM     20  C   UNL     1       3.038   6.386  18.241  0.00  0.00    +0.000 A 
ATOM     21  C   UNL     1       2.568   5.077  18.021  0.00  0.00    +0.000 A 
ATOM     22  C   UNL     1       3.317   4.144  17.301  0.00  0.00    +0.000 A 
ATOM     23  C   UNL     1       4.530   4.549  16.798  0.00  0.00    +0.000 A 
ATOM     24  C   UNL     1       5.003   5.839  16.980  0.00  0.00    +0.000 A 
ATOM     25  C   UNL     1       4.266   6.778  17.688  0.00  0.00    +0.000 A 
ATOM     26  C   UNL     1       6.373   5.923  16.422  0.00  0.00    +0.000 C 
ATOM     27  C   UNL     1       6.371   4.646  15.579  0.00  0.00    +0.000 C 
ATOM     28  O   UNL     1       5.387   3.731  16.111  0.00  0.00    +0.000 OA
ENDBRANCH  18  20
ENDBRANCH   1  17
TORSDOF 4
ENDMDL
MODEL 4
REMARK VINA RESULT:      -8.3      7.083     11.387
REMARK  Name = 
REMARK  4 active torsions:
REMARK  status: ('A' for Active; 'I' for Inactive)
REMARK    1  A    between atoms: C_2  and  C_13
REMARK    2  A    between atoms: N_3  and  C_4
REMARK    3  A    between atoms: C_16  and  C_17
REMARK    4  A    between atoms: C_20  and  C_21
REMARK                            x       y       z     vdW  Elec       q    Type
REMARK                         _______ _______ _______ _____ _____    ______ ____
ROOT
ATOM      1  C   UNL     1       1.106   9.211  20.376  0.00  0.00    +0.000 A 
ATOM      2  C   UNL     1       0.745   8.928  21.700  0.00  0.00    +0.000 A 
ATOM      3  C   UNL     1       0.058   9.873  22.460  0.00  0.00    +0.000 A 
ATOM      4  C   UNL     1      -0.292  11.112  21.904  0.00  0.00    +0.000 A 
ATOM      5  C   UNL     1       0.070  11.385  20.573  0.00  0.00    +0.000 A 
ATOM      6  C   UNL     1       0.769  10.442  19.808  0.00  0.00    +0.000 A 
ENDROOT
BRANCH   4   7
ATOM      7  C   UNL     1      -1.039  12.087  22.689  0.00  0.00    +0.000 A 
ATOM      8  N   UNL     1      -0.512  13.231  23.155  0.00  0.00    +0.000 NA
ATOM      9  O   UNL     1      -1.555  13.823  23.856  0.00  0.00    +0.000 OA
ATOM     10  C   UNL     1      -2.624  12.983  23.753  0.00  0.00    +0.000 A 
ATOM     11  N   UNL     1      -2.361  11.906  23.035  0.00  0.00    +0.000 NA
BRANCH  10  12
ATOM     12  C   UNL     1      -3.857  13.413  24.459  0.00  0.00    +0.000 C 
ATOM     13  F   UNL     1      -4.392  12.429  25.232  0.00  0.00    +0.000 F 
ATOM     14  F   UNL     1      -3.635  14.471  25.284  0.00  0.00    +0.000 F 
ATOM     15  F   UNL     1      -4.835  13.793  23.592  0.00  0.00    +0.000 F 
ENDBRANCH  10  12
ENDBRANCH   4   7
BRANCH   1  17
ATOM     16  O   UNL     1       1.910   8.329  18.399  0.00  0.00    +0.000 OA
ATOM     17  C   UNL     1       1.768   8.134  19.603  0.00  0.00    +0.000 C 
ATOM     18  N   UNL     1       2.102   6.987  20.301  0.00  0.00    +0.000 N 
ATOM     19  H   UNL     1       1.745   6.891  21.243  0.00  0.00    +0.000 HD
BRANCH  18  20
ATOM     20  C   UNL     1       2.695   5.836  19.728  0.00  0.00    +0.000 A 
ATOM     21  C   UNL     1       3.958   5.868  19.106  0.00  0.00    +0.000 A 
ATOM     22  C   UNL     1       4.491   4.739  18.480  0.00  0.00    +0.000 A 
ATOM     23  C   UNL     1       3.748   3.584  18.504  0.00  0.00    +0.000 A 
ATOM     24  C   UNL     1       2.514   3.520  19.130  0.00  0.00    +0.000 A 
ATOM     25  C   UNL     1       1.974   4.632  19.761  0.00  0.00    +0.000 A 
ATOM     26  C   UNL     1       1.925   2.184  18.880  0.00  0.00    +0.000 C 
ATOM     27  C   UNL     1       3.181   1.450  18.404  0.00  0.00    +0.000 C 
ATOM     28  O   UNL     1       4.128   2.416  17.895  0.00  0.00    +0.000 OA
ENDBRANCH  18  20
ENDBRANCH   1  17
TORSDOF 4
ENDMDL
MODEL 5
REMARK VINA RESULT:      -8.3      6.705     11.322
REMARK  Name = 
REMARK  4 active torsions:
REMARK  status: ('A' for Active; 'I' for Inactive)
REMARK    1  A    between atoms: C_2  and  C_13
REMARK    2  A    between atoms: N_3  and  C_4
REMARK    3  A    between atoms: C_16  and  C_17
REMARK    4  A    between atoms: C_20  and  C_21
REMARK                            x       y       z     vdW  Elec       q    Type
REMARK                         _______ _______ _______ _____ _____    ______ ____
ROOT
ATOM      1  C   UNL     1       1.139   8.587  20.760  0.00  0.00    +0.000 A 
ATOM      2  C   UNL     1       0.864   8.532  22.132  0.00  0.00    +0.000 A 
ATOM      3  C   UNL     1       0.201   9.586  22.761  0.00  0.00    +0.000 A 
ATOM      4  C   UNL     1      -0.210  10.705  22.024  0.00  0.00    +0.000 A 
ATOM      5  C   UNL     1       0.066  10.749  20.646  0.00  0.00    +0.000 A 
ATOM      6  C   UNL     1       0.740   9.697  20.012  0.00  0.00    +0.000 A 
ENDROOT
BRANCH   4   7
ATOM      7  C   UNL     1      -0.931  11.792  22.675  0.00  0.00    +0.000 A 
ATOM      8  N   UNL     1      -0.400  13.002  22.914  0.00  0.00    +0.000 NA
ATOM      9  O   UNL     1      -1.414  13.694  23.563  0.00  0.00    +0.000 OA
ATOM     10  C   UNL     1      -2.473  12.840  23.661  0.00  0.00    +0.000 A 
ATOM     11  N   UNL     1      -2.229  11.660  23.119  0.00  0.00    +0.000 NA
BRANCH  10  12
ATOM     12  C   UNL     1      -3.674  13.372  24.352  0.00  0.00    +0.000 C 
ATOM     13  F   UNL     1      -4.527  14.015  23.509  0.00  0.00    +0.000 F 
ATOM     14  F   UNL     1      -4.398  12.390  24.954  0.00  0.00    +0.000 F 
ATOM     15  F   UNL     1      -3.349  14.266  25.324  0.00  0.00    +0.000 F 
ENDBRANCH  10  12
ENDBRANCH   4   7
BRANCH   1  17
ATOM     16  O   UNL     1       1.819   6.381  20.825  0.00  0.00    +0.000 OA
ATOM     17  C   UNL     1       1.778   7.401  20.143  0.00  0.00    +0.000 C 
ATOM     18  N   UNL     1       2.327   7.578  18.885  0.00  0.00    +0.000 N 
ATOM     19  H   UNL     1       2.392   8.524  18.532  0.00  0.00    +0.000 HD
BRANCH  18  20
ATOM     20  C   UNL     1       3.018   6.580  18.157  0.00  0.00    +0.000 A 
ATOM     21  C   UNL     1       2.522   5.270  18.013  0.00  0.00    +0.000 A 
ATOM     22  C   UNL     1       3.255   4.280  17.356  0.00  0.00    +0.000 A 
ATOM     23  C   UNL     1       4.478   4.629  16.836  0.00  0.00    +0.000 A 
ATOM     24  C   UNL     1       4.979   5.917  16.944  0.00  0.00    +0.000 A 
ATOM     25  C   UNL     1       4.258   6.913  17.589  0.00  0.00    +0.000 A 
ATOM     26  C   UNL     1       6.352   5.938  16.391  0.00  0.00    +0.000 C 
ATOM     27  C   UNL     1       6.327   4.613  15.626  0.00  0.00    +0.000 C 
ATOM     28  O   UNL     1       5.321   3.752  16.206  0.00  0.00    +0.000 OA
ENDBRANCH  18  20
ENDBRANCH   1  17
TORSDOF 4
ENDMDL
MODEL 6
REMARK VINA RESULT:      -8.3      2.644      3.902
REMARK  Name = 
REMARK  4 active torsions:
REMARK  status: ('A' for Active; 'I' for Inactive)
REMARK    1  A    between atoms: C_2  and  C_13
REMARK    2  A    between atoms: N_3  and  C_4
REMARK    3  A    between atoms: C_16  and  C_17
REMARK    4  A    between atoms: C_20  and  C_21
REMARK                            x       y       z     vdW  Elec       q    Type
REMARK                         _______ _______ _______ _____ _____    ______ ____
ROOT
ATOM      1  C   UNL     1       1.093   9.227  19.537  0.00  0.00    +0.000 A 
ATOM      2  C   UNL     1       1.541   9.276  18.211  0.00  0.00    +0.000 A 
ATOM      3  C   UNL     1       2.350   8.261  17.703  0.00  0.00    +0.000 A 
ATOM      4  C   UNL     1       2.713   7.173  18.509  0.00  0.00    +0.000 A 
ATOM      5  C   UNL     1       2.254   7.129  19.837  0.00  0.00    +0.000 A 
ATOM      6  C   UNL     1       1.448   8.152  20.355  0.00  0.00    +0.000 A 
ENDROOT
BRANCH   4   7
ATOM      7  C   UNL     1       3.532   6.095  17.967  0.00  0.00    +0.000 A 
ATOM      8  N   UNL     1       3.366   4.801  18.282  0.00  0.00    +0.000 NA
ATOM      9  O   UNL     1       4.364   4.148  17.571  0.00  0.00    +0.000 OA
ATOM     10  C   UNL     1       5.048   5.107  16.885  0.00  0.00    +0.000 A 
ATOM     11  N   UNL     1       4.568   6.321  17.086  0.00  0.00    +0.000 NA
BRANCH  10  12
ATOM     12  C   UNL     1       6.190   4.629  16.065  0.00  0.00    +0.000 C 
ATOM     13  F   UNL     1       6.387   5.379  14.947  0.00  0.00    +0.000 F 
ATOM     14  F   UNL     1       7.363   4.651  16.753  0.00  0.00    +0.000 F 
ATOM     15  F   UNL     1       6.012   3.348  15.640  0.00  0.00    +0.000 F 
ENDBRANCH  10  12
ENDBRANCH   4   7
BRANCH   1  17
ATOM     16  O   UNL     1      -0.608  10.741  19.153  0.00  0.00    +0.000 OA
ATOM     17  C   UNL     1       0.175  10.299  19.989  0.00  0.00    +0.000 C 
ATOM     18  N   UNL     1       0.336  10.744  21.290  0.00  0.00    +0.000 N 
ATOM     19  H   UNL     1       1.152  10.425  21.796  0.00  0.00    +0.000 HD
BRANCH  18  20
ATOM     20  C   UNL     1      -0.411  11.789  21.885  0.00  0.00    +0.000 A 
ATOM     21  C   UNL     1       0.027  13.128  21.878  0.00  0.00    +0.000 A 
ATOM     22  C   UNL     1      -0.686  14.132  22.536  0.00  0.00    +0.000 A 
ATOM     23  C   UNL     1      -1.845  13.775  23.182  0.00  0.00    +0.000 A 
ATOM     24  C   UNL     1      -2.310  12.469  23.183  0.00  0.00    +0.000 A 
ATOM     25  C   UNL     1      -1.614  11.462  22.528  0.00  0.00    +0.000 A 
ATOM     26  C   UNL     1      -3.506  12.393  24.053  0.00  0.00    +0.000 C 
ATOM     27  C   UNL     1      -3.824  13.886  24.160  0.00  0.00    +0.000 C 
ATOM     28  O   UNL     1      -2.621  14.645  23.902  0.00  0.00    +0.000 OA
ENDBRANCH  18  20
ENDBRANCH   1  17
TORSDOF 4
ENDMDL
MODEL 7
REMARK VINA RESULT:      -8.3      6.723     11.306
REMARK  Name = 
REMARK  4 active torsions:
REMARK  status: ('A' for Active; 'I' for Inactive)
REMARK    1  A    between atoms: C_2  and  C_13
REMARK    2  A    between atoms: N_3  and  C_4
REMARK    3  A    between atoms: C_16  and  C_17
REMARK    4  A    between atoms: C_20  and  C_21
REMARK                            x       y       z     vdW  Elec       q    Type
REMARK                         _______ _______ _______ _____ _____    ______ ____
ROOT
ATOM      1  C   UNL     1       1.163   9.671  19.475  0.00  0.00    +0.000 A 
ATOM      2  C   UNL     1       0.910   9.211  20.774  0.00  0.00    +0.000 A 
ATOM      3  C   UNL     1       0.245  10.023  21.691  0.00  0.00    +0.000 A 
ATOM      4  C   UNL     1      -0.191  11.303  21.321  0.00  0.00    +0.000 A 
ATOM      5  C   UNL     1       0.063  11.754  20.013  0.00  0.00    +0.000 A 
ATOM      6  C   UNL     1       0.739  10.945  19.091  0.00  0.00    +0.000 A 
ENDROOT
BRANCH   4   7
ATOM      7  C   UNL     1      -0.915  12.139  22.270  0.00  0.00    +0.000 A 
ATOM      8  N   UNL     1      -0.353  13.147  22.956  0.00  0.00    +0.000 NA
ATOM      9  O   UNL     1      -1.385  13.637  23.746  0.00  0.00    +0.000 OA
ATOM     10  C   UNL     1      -2.485  12.879  23.468  0.00  0.00    +0.000 A 
ATOM     11  N   UNL     1      -2.250  11.951  22.558  0.00  0.00    +0.000 NA
BRANCH  10  12
ATOM     12  C   UNL     1      -3.714  13.217  24.228  0.00  0.00    +0.000 C 
ATOM     13  F   UNL     1      -4.245  12.143  24.875  0.00  0.00    +0.000 F 
ATOM     14  F   UNL     1      -3.489  14.163  25.178  0.00  0.00    +0.000 F 
ATOM     15  F   UNL     1      -4.696  13.701  23.421  0.00  0.00    +0.000 F 
ENDBRANCH  10  12
ENDBRANCH   4   7
BRANCH   1  17
ATOM     16  O   UNL     1       1.809   9.053  17.345  0.00  0.00    +0.000 OA
ATOM     17  C   UNL     1       1.807   8.728  18.530  0.00  0.00    +0.000 C 
ATOM     18  N   UNL     1       2.284   7.544  19.065  0.00  0.00    +0.000 N 
ATOM     19  H   UNL     1       2.034   7.329  20.022  0.00  0.00    +0.000 HD
BRANCH  18  20
ATOM     20  C   UNL     1       2.885   6.504  18.317  0.00  0.00    +0.000 A 
ATOM     21  C   UNL     1       2.327   5.213  18.237  0.00  0.00    +0.000 A 
ATOM     22  C   UNL     1       2.975   4.180  17.556  0.00  0.00    +0.000 A 
ATOM     23  C   UNL     1       4.174   4.467  16.949  0.00  0.00    +0.000 A 
ATOM     24  C   UNL     1       4.731   5.734  16.993  0.00  0.00    +0.000 A 
ATOM     25  C   UNL     1       4.096   6.773  17.661  0.00  0.00    +0.000 A 
ATOM     26  C   UNL     1       6.064   5.687  16.350  0.00  0.00    +0.000 C 
ATOM     27  C   UNL     1       5.936   4.349  15.620  0.00  0.00    +0.000 C 
ATOM     28  O   UNL     1       4.937   3.543  16.285  0.00  0.00    +0.000 OA
ENDBRANCH  18  20
ENDBRANCH   1  17
TORSDOF 4
ENDMDL
MODEL 8
REMARK VINA RESULT:      -8.2      6.939      8.406
REMARK  Name = 
REMARK  4 active torsions:
REMARK  status: ('A' for Active; 'I' for Inactive)
REMARK    1  A    between atoms: C_2  and  C_13
REMARK    2  A    between atoms: N_3  and  C_4
REMARK    3  A    between atoms: C_16  and  C_17
REMARK    4  A    between atoms: C_20  and  C_21
REMARK                            x       y       z     vdW  Elec       q    Type
REMARK                         _______ _______ _______ _____ _____    ______ ____
ROOT
ATOM      1  C   UNL     1       8.322   8.520  18.425  0.00  0.00    +0.000 A 
ATOM      2  C   UNL     1       7.339   8.597  17.430  0.00  0.00    +0.000 A 
ATOM      3  C   UNL     1       6.580   7.474  17.101  0.00  0.00    +0.000 A 
ATOM      4  C   UNL     1       6.783   6.260  17.772  0.00  0.00    +0.000 A 
ATOM      5  C   UNL     1       7.768   6.194  18.774  0.00  0.00    +0.000 A 
ATOM      6  C   UNL     1       8.539   7.317  19.101  0.00  0.00    +0.000 A 
ENDROOT
BRANCH   4   7
ATOM      7  C   UNL     1       5.967   5.095  17.451  0.00  0.00    +0.000 A 
ATOM      8  N   UNL     1       6.101   4.379  16.323  0.00  0.00    +0.000 NA
ATOM      9  O   UNL     1       5.120   3.402  16.424  0.00  0.00    +0.000 OA
ATOM     10  C   UNL     1       4.476   3.612  17.607  0.00  0.00    +0.000 A 
ATOM     11  N   UNL     1       4.968   4.637  18.282  0.00  0.00    +0.000 NA
BRANCH  10  12
ATOM     12  C   UNL     1       3.358   2.684  17.912  0.00  0.00    +0.000 C 
ATOM     13  F   UNL     1       2.335   2.780  17.020  0.00  0.00    +0.000 F 
ATOM     14  F   UNL     1       3.752   1.383  17.904  0.00  0.00    +0.000 F 
ATOM     15  F   UNL     1       2.820   2.920  19.139  0.00  0.00    +0.000 F 
ENDBRANCH  10  12
ENDBRANCH   4   7
BRANCH   1  17
ATOM     16  O   UNL     1       9.095  10.054  19.969  0.00  0.00    +0.000 OA
ATOM     17  C   UNL     1       9.038   9.769  18.776  0.00  0.00    +0.000 C 
ATOM     18  N   UNL     1       9.515  10.525  17.720  0.00  0.00    +0.000 N 
ATOM     19  H   UNL     1       9.221  10.266  16.787  0.00  0.00    +0.000 HD
BRANCH  18  20
ATOM     20  C   UNL     1      10.181  11.768  17.852  0.00  0.00    +0.000 A 
ATOM     21  C   UNL     1      11.556  11.860  18.145  0.00  0.00    +0.000 A 
ATOM     22  C   UNL     1      12.177  13.094  18.346  0.00  0.00    +0.000 A 
ATOM     23  C   UNL     1      11.405  14.225  18.234  0.00  0.00    +0.000 A 
ATOM     24  C   UNL     1      10.056  14.162  17.923  0.00  0.00    +0.000 A 
ATOM     25  C   UNL     1       9.426  12.943  17.714  0.00  0.00    +0.000 A 
ATOM     26  C   UNL     1       9.491  15.530  17.989  0.00  0.00    +0.000 C 
ATOM     27  C   UNL     1      10.794  16.333  17.969  0.00  0.00    +0.000 C 
ATOM     28  O   UNL     1      11.871  15.496  18.446  0.00  0.00    +0.000 OA
ENDBRANCH  18  20
ENDBRANCH   1  17
TORSDOF 4
ENDMDL
MODEL 9
REMARK VINA RESULT:      -8.2      2.606      3.846
REMARK  Name = 
REMARK  4 active torsions:
REMARK  status: ('A' for Active; 'I' for Inactive)
REMARK    1  A    between atoms: C_2  and  C_13
REMARK    2  A    between atoms: N_3  and  C_4
REMARK    3  A    between atoms: C_16  and  C_17
REMARK    4  A    between atoms: C_20  and  C_21
REMARK                            x       y       z     vdW  Elec       q    Type
REMARK                         _______ _______ _______ _____ _____    ______ ____
ROOT
ATOM      1  C   UNL     1       1.160   9.164  19.287  0.00  0.00    +0.000 A 
ATOM      2  C   UNL     1       1.485   8.133  20.178  0.00  0.00    +0.000 A 
ATOM      3  C   UNL     1       2.380   7.133  19.802  0.00  0.00    +0.000 A 
ATOM      4  C   UNL     1       2.977   7.154  18.534  0.00  0.00    +0.000 A 
ATOM      5  C   UNL     1       2.649   8.196  17.648  0.00  0.00    +0.000 A 
ATOM      6  C   UNL     1       1.743   9.198  18.018  0.00  0.00    +0.000 A 
ENDROOT
BRANCH   4   7
ATOM      7  C   UNL     1       3.938   6.126  18.154  0.00  0.00    +0.000 A 
ATOM      8  N   UNL     1       4.299   5.110  18.955  0.00  0.00    +0.000 NA
ATOM      9  O   UNL     1       5.237   4.408  18.209  0.00  0.00    +0.000 OA
ATOM     10  C   UNL     1       5.361   5.062  17.019  0.00  0.00    +0.000 A 
ATOM     11  N   UNL     1       4.574   6.120  16.932  0.00  0.00    +0.000 NA
BRANCH  10  12
ATOM     12  C   UNL     1       6.344   4.491  16.064  0.00  0.00    +0.000 C 
ATOM     13  F   UNL     1       7.580   4.332  16.611  0.00  0.00    +0.000 F 
ATOM     14  F   UNL     1       5.966   3.266  15.609  0.00  0.00    +0.000 F 
ATOM     15  F   UNL     1       6.508   5.280  14.968  0.00  0.00    +0.000 F 
ENDBRANCH  10  12
ENDBRANCH   4   7
BRANCH   1  17
ATOM     16  O   UNL     1      -0.556  10.677  18.974  0.00  0.00    +0.000 OA
ATOM     17  C   UNL     1       0.261  10.234  19.777  0.00  0.00    +0.000 C 
ATOM     18  N   UNL     1       0.473  10.676  21.072  0.00  0.00    +0.000 N 
ATOM     19  H   UNL     1       1.309  10.357  21.544  0.00  0.00    +0.000 HD
BRANCH  18  20
ATOM     20  C   UNL     1      -0.250  11.719  21.699  0.00  0.00    +0.000 A 
ATOM     21  C   UNL     1       0.214  13.048  21.727  0.00  0.00    +0.000 A 
ATOM     22  C   UNL     1      -0.477  14.047  22.415  0.00  0.00    +0.000 A 
ATOM     23  C   UNL     1      -1.640  13.695  23.056  0.00  0.00    +0.000 A 
ATOM     24  C   UNL     1      -2.131  12.400  23.023  0.00  0.00    +0.000 A 
ATOM     25  C   UNL     1      -1.458  11.397  22.338  0.00  0.00    +0.000 A 
ATOM     26  C   UNL     1      -3.325  12.323  23.896  0.00  0.00    +0.000 C 
ATOM     27  C   UNL     1      -3.613  13.819  24.046  0.00  0.00    +0.000 C 
ATOM     28  O   UNL     1      -2.396  14.560  23.803  0.00  0.00    +0.000 OA
ENDBRANCH  18  20
ENDBRANCH   1  17
TORSDOF 4
ENDMDL
