MODEL 1
REMARK VINA RESULT:      -8.5      0.000      0.000
REMARK  Name = 
REMARK  8 active torsions:
REMARK  status: ('A' for Active; 'I' for Inactive)
REMARK    1  A    between atoms: C_1  and  O_2
REMARK    2  A    between atoms: O_2  and  C_3
REMARK    3  A    between atoms: C_8  and  C_9
REMARK    4  A    between atoms: C_9  and  C_10
REMARK    5  A    between atoms: C_9  and  C_11
REMARK    6  A    between atoms: C_9  and  C_12
REMARK    7  A    between atoms: C_15  and  C_16
REMARK    8  A    between atoms: C_25  and  C_26
REMARK                            x       y       z     vdW  Elec       q    Type
REMARK                         _______ _______ _______ _____ _____    ______ ____
ROOT
ATOM      1  C   UNL     1       1.655   8.633  19.706  0.00  0.00    +0.000 A 
ATOM      2  N   UNL     1       1.852   9.213  18.510  0.00  0.00    +0.000 NA
ATOM      3  O   UNL     1       2.402   8.185  17.732  0.00  0.00    +0.000 OA
ATOM      4  C   UNL     1       2.469   7.082  18.536  0.00  0.00    +0.000 A 
ATOM      5  N   UNL     1       2.073   7.320  19.764  0.00  0.00    +0.000 NA
ENDROOT
BRANCH   4   6
ATOM      6  C   UNL     1       3.004   5.785  17.995  0.00  0.00    +0.000 C 
ATOM      7  C   UNL     1       1.821   4.821  17.781  0.00  0.00    +0.000 C 
ATOM      8  C   UNL     1       1.816   4.119  19.108  0.00  0.00    +0.000 A 
ATOM      9  C   UNL     1       0.802   3.398  19.697  0.00  0.00    +0.000 A 
ATOM     10  C   UNL     1       1.059   2.805  20.927  0.00  0.00    +0.000 A 
ATOM     11  C   UNL     1       2.323   2.907  21.537  0.00  0.00    +0.000 A 
ATOM     12  C   UNL     1       3.353   3.613  20.918  0.00  0.00    +0.000 A 
ATOM     13  C   UNL     1       3.073   4.230  19.715  0.00  0.00    +0.000 A 
ATOM     14  N   UNL     1       3.901   5.071  18.945  0.00  0.00    +0.000 N 
ATOM     15  C   UNL     1       5.269   4.931  18.880  0.00  0.00    +0.000 C 
ATOM     16  C   UNL     1       6.029   5.909  18.024  0.00  0.00    +0.000 C 
ATOM     17  O   UNL     1       5.892   4.023  19.435  0.00  0.00    +0.000 OA
ENDBRANCH   4   6
BRANCH   1  18
ATOM     18  C   UNL     1       0.694   9.174  20.746  0.00  0.00    +0.000 C 
ATOM     19  C   UNL     1       1.572   9.432  22.000  0.00  0.00    +0.000 C 
ATOM     20  C   UNL     1      -0.388   8.163  21.202  0.00  0.00    +0.000 C 
BRANCH  18  26
ATOM     21  C   UNL     1       0.389  11.741  20.279  0.00  0.00    +0.000 A 
ATOM     22  C   UNL     1      -0.379  12.795  19.754  0.00  0.00    +0.000 A 
ATOM     23  C   UNL     1      -1.540  12.538  19.021  0.00  0.00    +0.000 A 
ATOM     24  C   UNL     1      -1.922  11.228  18.782  0.00  0.00    +0.000 A 
ATOM     25  C   UNL     1      -1.164  10.175  19.299  0.00  0.00    +0.000 A 
ATOM     26  C   UNL     1      -0.004  10.394  20.092  0.00  0.00    +0.000 A 
BRANCH  21  28
ATOM     27  C   UNL     1       2.195  13.223  20.808  0.00  0.00    +0.000 C 
ATOM     28  O   UNL     1       1.545  11.974  20.972  0.00  0.00    +0.000 OA
ENDBRANCH  21  28
ENDBRANCH  18  26
ENDBRANCH   1  18
TORSDOF 4
ENDMDL
MODEL 2
REMARK VINA RESULT:      -8.3      0.952      1.746
REMARK  Name = 
REMARK  8 active torsions:
REMARK  status: ('A' for Active; 'I' for Inactive)
REMARK    1  A    between atoms: C_1  and  O_2
REMARK    2  A    between atoms: O_2  and  C_3
REMARK    3  A    between atoms: C_8  and  C_9
REMARK    4  A    between atoms: C_9  and  C_10
REMARK    5  A    between atoms: C_9  and  C_11
REMARK    6  A    between atoms: C_9  and  C_12
REMARK    7  A    between atoms: C_15  and  C_16
REMARK    8  A    between atoms: C_25  and  C_26
REMARK                            x       y       z     vdW  Elec       q    Type
REMARK                         _______ _______ _______ _____ _____    ______ ____
ROOT
ATOM      1  C   UNL     1       1.643   8.735  19.717  0.00  0.00    +0.000 A 
ATOM      2  N   UNL     1       1.725   9.278  18.491  0.00  0.00    +0.000 NA
ATOM      3  O   UNL     1       2.247   8.240  17.706  0.00  0.00    +0.000 OA
ATOM      4  C   UNL     1       2.413   7.169  18.539  0.00  0.00    +0.000 A 
ATOM      5  N   UNL     1       2.107   7.439  19.786  0.00  0.00    +0.000 NA
ENDROOT
BRANCH   4   6
ATOM      6  C   UNL     1       2.948   5.870  18.001  0.00  0.00    +0.000 C 
ATOM      7  C   UNL     1       1.766   4.901  17.803  0.00  0.00    +0.000 C 
ATOM      8  C   UNL     1       1.775   4.208  19.134  0.00  0.00    +0.000 A 
ATOM      9  C   UNL     1       0.767   3.488  19.736  0.00  0.00    +0.000 A 
ATOM     10  C   UNL     1       1.037   2.903  20.967  0.00  0.00    +0.000 A 
ATOM     11  C   UNL     1       2.306   3.011  21.566  0.00  0.00    +0.000 A 
ATOM     12  C   UNL     1       3.329   3.717  20.934  0.00  0.00    +0.000 A 
ATOM     13  C   UNL     1       3.036   4.326  19.730  0.00  0.00    +0.000 A 
ATOM     14  N   UNL     1       3.855   5.165  18.948  0.00  0.00    +0.000 N 
ATOM     15  C   UNL     1       5.223   5.028  18.871  0.00  0.00    +0.000 C 
ATOM     16  C   UNL     1       5.972   6.003  18.003  0.00  0.00    +0.000 C 
ATOM     17  O   UNL     1       5.854   4.125  19.426  0.00  0.00    +0.000 OA
ENDBRANCH   4   6
BRANCH   1  18
ATOM     18  C   UNL     1       0.748   9.284  20.812  0.00  0.00    +0.000 C 
ATOM     19  C   UNL     1       1.579   9.135  22.113  0.00  0.00    +0.000 C 
ATOM     20  C   UNL     1      -0.543   8.463  21.051  0.00  0.00    +0.000 C 
BRANCH  18  26
ATOM     21  C   UNL     1      -0.642  11.017  19.410  0.00  0.00    +0.000 A 
ATOM     22  C   UNL     1      -0.843  12.337  18.969  0.00  0.00    +0.000 A 
ATOM     23  C   UNL     1      -0.073  13.386  19.476  0.00  0.00    +0.000 A 
ATOM     24  C   UNL     1       0.879  13.128  20.448  0.00  0.00    +0.000 A 
ATOM     25  C   UNL     1       1.085  11.819  20.894  0.00  0.00    +0.000 A 
ATOM     26  C   UNL     1       0.356  10.717  20.367  0.00  0.00    +0.000 A 
BRANCH  21  28
ATOM     27  C   UNL     1      -1.787   9.977  17.581  0.00  0.00    +0.000 C 
ATOM     28  O   UNL     1      -1.409   9.983  18.947  0.00  0.00    +0.000 OA
ENDBRANCH  21  28
ENDBRANCH  18  26
ENDBRANCH   1  18
TORSDOF 4
ENDMDL
MODEL 3
REMARK VINA RESULT:      -8.0      1.768      3.729
REMARK  Name = 
REMARK  8 active torsions:
REMARK  status: ('A' for Active; 'I' for Inactive)
REMARK    1  A    between atoms: C_1  and  O_2
REMARK    2  A    between atoms: O_2  and  C_3
REMARK    3  A    between atoms: C_8  and  C_9
REMARK    4  A    between atoms: C_9  and  C_10
REMARK    5  A    between atoms: C_9  and  C_11
REMARK    6  A    between atoms: C_9  and  C_12
REMARK    7  A    between atoms: C_15  and  C_16
REMARK    8  A    between atoms: C_25  and  C_26
REMARK                            x       y       z     vdW  Elec       q    Type
REMARK                         _______ _______ _______ _____ _____    ______ ____
ROOT
ATOM      1  C   UNL     1       1.732   8.961  18.789  0.00  0.00    +0.000 A 
ATOM      2  N   UNL     1       2.134   8.829  17.513  0.00  0.00    +0.000 NA
ATOM      3  O   UNL     1       2.734   7.562  17.486  0.00  0.00    +0.000 OA
ATOM      4  C   UNL     1       2.620   7.051  18.748  0.00  0.00    +0.000 A 
ATOM      5  N   UNL     1       2.063   7.889  19.591  0.00  0.00    +0.000 NA
ENDROOT
BRANCH   4   6
ATOM      6  C   UNL     1       3.155   5.680  19.059  0.00  0.00    +0.000 C 
ATOM      7  C   UNL     1       4.651   5.807  19.405  0.00  0.00    +0.000 C 
ATOM      8  C   UNL     1       5.250   5.594  18.045  0.00  0.00    +0.000 A 
ATOM      9  C   UNL     1       6.507   5.929  17.595  0.00  0.00    +0.000 A 
ATOM     10  C   UNL     1       6.840   5.587  16.291  0.00  0.00    +0.000 A 
ATOM     11  C   UNL     1       5.938   4.890  15.465  0.00  0.00    +0.000 A 
ATOM     12  C   UNL     1       4.678   4.528  15.939  0.00  0.00    +0.000 A 
ATOM     13  C   UNL     1       4.346   4.909  17.224  0.00  0.00    +0.000 A 
ATOM     14  N   UNL     1       3.117   4.751  17.897  0.00  0.00    +0.000 N 
ATOM     15  C   UNL     1       2.274   3.682  17.690  0.00  0.00    +0.000 C 
ATOM     16  C   UNL     1       0.988   3.649  18.472  0.00  0.00    +0.000 C 
ATOM     17  O   UNL     1       2.539   2.733  16.948  0.00  0.00    +0.000 OA
ENDBRANCH   4   6
BRANCH   1  18
ATOM     18  C   UNL     1       0.661   9.940  19.227  0.00  0.00    +0.000 C 
ATOM     19  C   UNL     1       0.044   9.306  20.502  0.00  0.00    +0.000 C 
ATOM     20  C   UNL     1      -0.515  10.087  18.230  0.00  0.00    +0.000 C 
BRANCH  18  26
ATOM     21  C   UNL     1       1.257  12.156  20.505  0.00  0.00    +0.000 A 
ATOM     22  C   UNL     1       1.826  13.443  20.501  0.00  0.00    +0.000 A 
ATOM     23  C   UNL     1       2.527  13.912  19.389  0.00  0.00    +0.000 A 
ATOM     24  C   UNL     1       2.691  13.089  18.287  0.00  0.00    +0.000 A 
ATOM     25  C   UNL     1       2.131  11.809  18.282  0.00  0.00    +0.000 A 
ATOM     26  C   UNL     1       1.368  11.312  19.374  0.00  0.00    +0.000 A 
BRANCH  21  28
ATOM     27  C   UNL     1      -0.479  12.426  22.133  0.00  0.00    +0.000 C 
ATOM     28  O   UNL     1       0.594  11.670  21.598  0.00  0.00    +0.000 OA
ENDBRANCH  21  28
ENDBRANCH  18  26
ENDBRANCH   1  18
TORSDOF 4
ENDMDL
MODEL 4
REMARK VINA RESULT:      -8.0      1.345      1.913
REMARK  Name = 
REMARK  8 active torsions:
REMARK  status: ('A' for Active; 'I' for Inactive)
REMARK    1  A    between atoms: C_1  and  O_2
REMARK    2  A    between atoms: O_2  and  C_3
REMARK    3  A    between atoms: C_8  and  C_9
REMARK    4  A    between atoms: C_9  and  C_10
REMARK    5  A    between atoms: C_9  and  C_11
REMARK    6  A    between atoms: C_9  and  C_12
REMARK    7  A    between atoms: C_15  and  C_16
REMARK    8  A    between atoms: C_25  and  C_26
REMARK                            x       y       z     vdW  Elec       q    Type
REMARK                         _______ _______ _______ _____ _____    ______ ____
ROOT
ATOM      1  C   UNL     1       1.318   9.073  19.142  0.00  0.00    +0.000 A 
ATOM      2  N   UNL     1       1.470   8.505  20.350  0.00  0.00    +0.000 NA
ATOM      3  O   UNL     1       2.060   7.267  20.060  0.00  0.00    +0.000 OA
ATOM      4  C   UNL     1       2.217   7.220  18.703  0.00  0.00    +0.000 A 
ATOM      5  N   UNL     1       1.733   8.276  18.095  0.00  0.00    +0.000 NA
ENDROOT
BRANCH   4   6
ATOM      6  C   UNL     1       2.846   6.015  18.057  0.00  0.00    +0.000 C 
ATOM      7  C   UNL     1       1.740   4.979  17.778  0.00  0.00    +0.000 C 
ATOM      8  C   UNL     1       1.811   4.178  19.046  0.00  0.00    +0.000 A 
ATOM      9  C   UNL     1       0.865   3.335  19.585  0.00  0.00    +0.000 A 
ATOM     10  C   UNL     1       1.187   2.670  20.762  0.00  0.00    +0.000 A 
ATOM     11  C   UNL     1       2.449   2.825  21.367  0.00  0.00    +0.000 A 
ATOM     12  C   UNL     1       3.410   3.658  20.796  0.00  0.00    +0.000 A 
ATOM     13  C   UNL     1       3.064   4.342  19.649  0.00  0.00    +0.000 A 
ATOM     14  N   UNL     1       3.810   5.304  18.940  0.00  0.00    +0.000 N 
ATOM     15  C   UNL     1       5.185   5.279  18.851  0.00  0.00    +0.000 C 
ATOM     16  C   UNL     1       5.851   6.379  18.069  0.00  0.00    +0.000 C 
ATOM     17  O   UNL     1       5.886   4.384  19.327  0.00  0.00    +0.000 OA
ENDBRANCH   4   6
BRANCH   1  18
ATOM     18  C   UNL     1       1.138  10.565  18.940  0.00  0.00    +0.000 C 
ATOM     19  C   UNL     1       2.270  10.971  17.959  0.00  0.00    +0.000 C 
ATOM     20  C   UNL     1       1.375  11.413  20.215  0.00  0.00    +0.000 C 
BRANCH  18  26
ATOM     21  C   UNL     1      -1.119  11.897  18.766  0.00  0.00    +0.000 A 
ATOM     22  C   UNL     1      -2.480  11.936  18.413  0.00  0.00    +0.000 A 
ATOM     23  C   UNL     1      -3.078  10.862  17.750  0.00  0.00    +0.000 A 
ATOM     24  C   UNL     1      -2.314   9.758  17.408  0.00  0.00    +0.000 A 
ATOM     25  C   UNL     1      -0.961   9.711  17.753  0.00  0.00    +0.000 A 
ATOM     26  C   UNL     1      -0.326  10.762  18.472  0.00  0.00    +0.000 A 
BRANCH  21  28
ATOM     27  C   UNL     1      -0.292  14.142  18.647  0.00  0.00    +0.000 C 
ATOM     28  O   UNL     1      -0.510  12.953  19.387  0.00  0.00    +0.000 OA
ENDBRANCH  21  28
ENDBRANCH  18  26
ENDBRANCH   1  18
TORSDOF 4
ENDMDL
MODEL 5
REMARK VINA RESULT:      -7.8      3.717      9.136
REMARK  Name = 
REMARK  8 active torsions:
REMARK  status: ('A' for Active; 'I' for Inactive)
REMARK    1  A    between atoms: C_1  and  O_2
REMARK    2  A    between atoms: O_2  and  C_3
REMARK    3  A    between atoms: C_8  and  C_9
REMARK    4  A    between atoms: C_9  and  C_10
REMARK    5  A    between atoms: C_9  and  C_11
REMARK    6  A    between atoms: C_9  and  C_12
REMARK    7  A    between atoms: C_15  and  C_16
REMARK    8  A    between atoms: C_25  and  C_26
REMARK                            x       y       z     vdW  Elec       q    Type
REMARK                         _______ _______ _______ _____ _____    ______ ____
ROOT
ATOM      1  C   UNL     1       0.328  12.317  18.982  0.00  0.00    +0.000 A 
ATOM      2  N   UNL     1       1.577  12.055  18.562  0.00  0.00    +0.000 NA
ATOM      3  O   UNL     1       2.291  13.209  18.914  0.00  0.00    +0.000 OA
ATOM      4  C   UNL     1       1.401  14.046  19.525  0.00  0.00    +0.000 A 
ATOM      5  N   UNL     1       0.179  13.568  19.544  0.00  0.00    +0.000 NA
ENDROOT
BRANCH   4   6
ATOM      6  C   UNL     1       1.855  15.382  20.045  0.00  0.00    +0.000 C 
ATOM      7  C   UNL     1       0.619  16.290  20.203  0.00  0.00    +0.000 C 
ATOM      8  C   UNL     1       0.615  16.957  18.858  0.00  0.00    +0.000 A 
ATOM      9  C   UNL     1      -0.418  17.609  18.224  0.00  0.00    +0.000 A 
ATOM     10  C   UNL     1      -0.157  18.184  16.986  0.00  0.00    +0.000 A 
ATOM     11  C   UNL     1       1.127  18.133  16.412  0.00  0.00    +0.000 A 
ATOM     12  C   UNL     1       2.175  17.495  17.077  0.00  0.00    +0.000 A 
ATOM     13  C   UNL     1       1.892  16.895  18.287  0.00  0.00    +0.000 A 
ATOM     14  N   UNL     1       2.740  16.117  19.101  0.00  0.00    +0.000 N 
ATOM     15  C   UNL     1       4.097  16.329  19.199  0.00  0.00    +0.000 C 
ATOM     16  C   UNL     1       4.881  15.413  20.100  0.00  0.00    +0.000 C 
ATOM     17  O   UNL     1       4.689  17.254  18.637  0.00  0.00    +0.000 OA
ENDBRANCH   4   6
BRANCH   1  18
ATOM     18  C   UNL     1      -0.708  11.239  19.234  0.00  0.00    +0.000 C 
ATOM     19  C   UNL     1      -0.573  10.272  18.028  0.00  0.00    +0.000 C 
ATOM     20  C   UNL     1      -2.173  11.741  19.197  0.00  0.00    +0.000 C 
BRANCH  18  26
ATOM     21  C   UNL     1       0.435   9.568  20.908  0.00  0.00    +0.000 A 
ATOM     22  C   UNL     1       0.550   9.041  22.207  0.00  0.00    +0.000 A 
ATOM     23  C   UNL     1      -0.152   9.607  23.273  0.00  0.00    +0.000 A 
ATOM     24  C   UNL     1      -0.947  10.721  23.055  0.00  0.00    +0.000 A 
ATOM     25  C   UNL     1      -1.066  11.252  21.768  0.00  0.00    +0.000 A 
ATOM     26  C   UNL     1      -0.407  10.675  20.647  0.00  0.00    +0.000 A 
BRANCH  21  28
ATOM     27  C   UNL     1       1.880   7.854  20.064  0.00  0.00    +0.000 C 
ATOM     28  O   UNL     1       1.140   9.045  19.858  0.00  0.00    +0.000 OA
ENDBRANCH  21  28
ENDBRANCH  18  26
ENDBRANCH   1  18
TORSDOF 4
ENDMDL
MODEL 6
REMARK VINA RESULT:      -7.7      1.458      3.222
REMARK  Name = 
REMARK  8 active torsions:
REMARK  status: ('A' for Active; 'I' for Inactive)
REMARK    1  A    between atoms: C_1  and  O_2
REMARK    2  A    between atoms: O_2  and  C_3
REMARK    3  A    between atoms: C_8  and  C_9
REMARK    4  A    between atoms: C_9  and  C_10
REMARK    5  A    between atoms: C_9  and  C_11
REMARK    6  A    between atoms: C_9  and  C_12
REMARK    7  A    between atoms: C_15  and  C_16
REMARK    8  A    between atoms: C_25  and  C_26
REMARK                            x       y       z     vdW  Elec       q    Type
REMARK                         _______ _______ _______ _____ _____    ______ ____
ROOT
ATOM      1  C   UNL     1       1.609   8.365  20.135  0.00  0.00    +0.000 A 
ATOM      2  N   UNL     1       1.838   8.559  18.825  0.00  0.00    +0.000 NA
ATOM      3  O   UNL     1       2.461   7.370  18.421  0.00  0.00    +0.000 OA
ATOM      4  C   UNL     1       2.532   6.572  19.528  0.00  0.00    +0.000 A 
ATOM      5  N   UNL     1       2.072   7.156  20.610  0.00  0.00    +0.000 NA
ENDROOT
BRANCH   4   6
ATOM      6  C   UNL     1       3.139   5.199  19.433  0.00  0.00    +0.000 C 
ATOM      7  C   UNL     1       4.645   5.310  19.740  0.00  0.00    +0.000 C 
ATOM      8  C   UNL     1       5.178   5.504  18.349  0.00  0.00    +0.000 A 
ATOM      9  C   UNL     1       6.394   6.016  17.958  0.00  0.00    +0.000 A 
ATOM     10  C   UNL     1       6.671   6.057  16.597  0.00  0.00    +0.000 A 
ATOM     11  C   UNL     1       5.756   5.560  15.650  0.00  0.00    +0.000 A 
ATOM     12  C   UNL     1       4.539   5.016  16.059  0.00  0.00    +0.000 A 
ATOM     13  C   UNL     1       4.261   5.017  17.411  0.00  0.00    +0.000 A 
ATOM     14  N   UNL     1       3.078   4.617  18.065  0.00  0.00    +0.000 N 
ATOM     15  C   UNL     1       2.270   3.599  17.610  0.00  0.00    +0.000 C 
ATOM     16  C   UNL     1       1.031   3.286  18.404  0.00  0.00    +0.000 C 
ATOM     17  O   UNL     1       2.534   2.901  16.628  0.00  0.00    +0.000 OA
ENDBRANCH   4   6
BRANCH   1  18
ATOM     18  C   UNL     1       0.581   9.153  20.925  0.00  0.00    +0.000 C 
ATOM     19  C   UNL     1       1.325   9.588  22.216  0.00  0.00    +0.000 C 
ATOM     20  C   UNL     1      -0.628   8.315  21.410  0.00  0.00    +0.000 C 
BRANCH  18  26
ATOM     21  C   UNL     1       0.499  11.616  20.018  0.00  0.00    +0.000 A 
ATOM     22  C   UNL     1      -0.111  12.589  19.207  0.00  0.00    +0.000 A 
ATOM     23  C   UNL     1      -1.143  12.247  18.330  0.00  0.00    +0.000 A 
ATOM     24  C   UNL     1      -1.549  10.925  18.235  0.00  0.00    +0.000 A 
ATOM     25  C   UNL     1      -0.947   9.951  19.035  0.00  0.00    +0.000 A 
ATOM     26  C   UNL     1       0.071  10.267  19.976  0.00  0.00    +0.000 A 
BRANCH  21  28
ATOM     27  C   UNL     1       2.209  13.160  20.672  0.00  0.00    +0.000 C 
ATOM     28  O   UNL     1       1.531  11.929  20.859  0.00  0.00    +0.000 OA
ENDBRANCH  21  28
ENDBRANCH  18  26
ENDBRANCH   1  18
TORSDOF 4
ENDMDL
MODEL 7
REMARK VINA RESULT:      -7.7      1.143      1.459
REMARK  Name = 
REMARK  8 active torsions:
REMARK  status: ('A' for Active; 'I' for Inactive)
REMARK    1  A    between atoms: C_1  and  O_2
REMARK    2  A    between atoms: O_2  and  C_3
REMARK    3  A    between atoms: C_8  and  C_9
REMARK    4  A    between atoms: C_9  and  C_10
REMARK    5  A    between atoms: C_9  and  C_11
REMARK    6  A    between atoms: C_9  and  C_12
REMARK    7  A    between atoms: C_15  and  C_16
REMARK    8  A    between atoms: C_25  and  C_26
REMARK                            x       y       z     vdW  Elec       q    Type
REMARK                         _______ _______ _______ _____ _____    ______ ____
ROOT
ATOM      1  C   UNL     1       1.620   8.749  19.595  0.00  0.00    +0.000 A 
ATOM      2  N   UNL     1       1.455   9.165  18.328  0.00  0.00    +0.000 NA
ATOM      3  O   UNL     1       1.965   8.106  17.564  0.00  0.00    +0.000 OA
ATOM      4  C   UNL     1       2.373   7.149  18.451  0.00  0.00    +0.000 A 
ATOM      5  N   UNL     1       2.232   7.518  19.702  0.00  0.00    +0.000 NA
ENDROOT
BRANCH   4   6
ATOM      6  C   UNL     1       2.962   5.858  17.951  0.00  0.00    +0.000 C 
ATOM      7  C   UNL     1       1.816   4.851  17.735  0.00  0.00    +0.000 C 
ATOM      8  C   UNL     1       1.806   4.180  19.078  0.00  0.00    +0.000 A 
ATOM      9  C   UNL     1       0.803   3.439  19.662  0.00  0.00    +0.000 A 
ATOM     10  C   UNL     1       1.053   2.883  20.910  0.00  0.00    +0.000 A 
ATOM     11  C   UNL     1       2.300   3.039  21.544  0.00  0.00    +0.000 A 
ATOM     12  C   UNL     1       3.320   3.766  20.930  0.00  0.00    +0.000 A 
ATOM     13  C   UNL     1       3.045   4.346  19.708  0.00  0.00    +0.000 A 
ATOM     14  N   UNL     1       3.861   5.196  18.935  0.00  0.00    +0.000 N 
ATOM     15  C   UNL     1       5.235   5.099  18.901  0.00  0.00    +0.000 C 
ATOM     16  C   UNL     1       5.980   6.083  18.039  0.00  0.00    +0.000 C 
ATOM     17  O   UNL     1       5.875   4.225  19.489  0.00  0.00    +0.000 OA
ENDBRANCH   4   6
BRANCH   1  18
ATOM     18  C   UNL     1       0.846   9.321  20.766  0.00  0.00    +0.000 C 
ATOM     19  C   UNL     1       1.592   8.803  22.024  0.00  0.00    +0.000 C 
ATOM     20  C   UNL     1      -0.602   8.786  20.896  0.00  0.00    +0.000 C 
BRANCH  18  26
ATOM     21  C   UNL     1       0.255  11.785  21.459  0.00  0.00    +0.000 A 
ATOM     22  C   UNL     1       0.130  13.144  21.118  0.00  0.00    +0.000 A 
ATOM     23  C   UNL     1       0.548  13.610  19.870  0.00  0.00    +0.000 A 
ATOM     24  C   UNL     1       1.123  12.729  18.968  0.00  0.00    +0.000 A 
ATOM     25  C   UNL     1       1.254  11.377  19.299  0.00  0.00    +0.000 A 
ATOM     26  C   UNL     1       0.795  10.854  20.540  0.00  0.00    +0.000 A 
BRANCH  21  28
ATOM     27  C   UNL     1      -1.489  11.385  23.050  0.00  0.00    +0.000 C 
ATOM     28  O   UNL     1      -0.121  11.318  22.689  0.00  0.00    +0.000 OA
ENDBRANCH  21  28
ENDBRANCH  18  26
ENDBRANCH   1  18
TORSDOF 4
ENDMDL
MODEL 8
REMARK VINA RESULT:      -7.7      4.938      9.106
REMARK  Name = 
REMARK  8 active torsions:
REMARK  status: ('A' for Active; 'I' for Inactive)
REMARK    1  A    between atoms: C_1  and  O_2
REMARK    2  A    between atoms: O_2  and  C_3
REMARK    3  A    between atoms: C_8  and  C_9
REMARK    4  A    between atoms: C_9  and  C_10
REMARK    5  A    between atoms: C_9  and  C_11
REMARK    6  A    between atoms: C_9  and  C_12
REMARK    7  A    between atoms: C_15  and  C_16
REMARK    8  A    between atoms: C_25  and  C_26
REMARK                            x       y       z     vdW  Elec       q    Type
REMARK                         _______ _______ _______ _____ _____    ______ ____
ROOT
ATOM      1  C   UNL     1       0.494  12.301  19.234  0.00  0.00    +0.000 A 
ATOM      2  N   UNL     1       1.614  12.210  18.497  0.00  0.00    +0.000 NA
ATOM      3  O   UNL     1       2.273  13.421  18.749  0.00  0.00    +0.000 OA
ATOM      4  C   UNL     1       1.489  14.115  19.626  0.00  0.00    +0.000 A 
ATOM      5  N   UNL     1       0.368  13.496  19.911  0.00  0.00    +0.000 NA
ENDROOT
BRANCH   4   6
ATOM      6  C   UNL     1       1.922  15.469  20.120  0.00  0.00    +0.000 C 
ATOM      7  C   UNL     1       0.673  16.360  20.260  0.00  0.00    +0.000 C 
ATOM      8  C   UNL     1       0.660  17.000  18.902  0.00  0.00    +0.000 A 
ATOM      9  C   UNL     1      -0.383  17.625  18.256  0.00  0.00    +0.000 A 
ATOM     10  C   UNL     1      -0.131  18.179  17.007  0.00  0.00    +0.000 A 
ATOM     11  C   UNL     1       1.154  18.135  16.434  0.00  0.00    +0.000 A 
ATOM     12  C   UNL     1       2.211  17.527  17.110  0.00  0.00    +0.000 A 
ATOM     13  C   UNL     1       1.938  16.947  18.332  0.00  0.00    +0.000 A 
ATOM     14  N   UNL     1       2.797  16.198  19.161  0.00  0.00    +0.000 N 
ATOM     15  C   UNL     1       4.151  16.432  19.255  0.00  0.00    +0.000 C 
ATOM     16  C   UNL     1       4.948  15.546  20.173  0.00  0.00    +0.000 C 
ATOM     17  O   UNL     1       4.728  17.354  18.674  0.00  0.00    +0.000 OA
ENDBRANCH   4   6
BRANCH   1  18
ATOM     18  C   UNL     1      -0.328  11.096  19.651  0.00  0.00    +0.000 C 
ATOM     19  C   UNL     1      -0.694  11.363  21.135  0.00  0.00    +0.000 C 
ATOM     20  C   UNL     1       0.456   9.760  19.654  0.00  0.00    +0.000 C 
BRANCH  18  26
ATOM     21  C   UNL     1      -2.721  11.682  18.741  0.00  0.00    +0.000 A 
ATOM     22  C   UNL     1      -3.770  11.431  17.838  0.00  0.00    +0.000 A 
ATOM     23  C   UNL     1      -3.616  10.509  16.801  0.00  0.00    +0.000 A 
ATOM     24  C   UNL     1      -2.404   9.857  16.639  0.00  0.00    +0.000 A 
ATOM     25  C   UNL     1      -1.356  10.101  17.530  0.00  0.00    +0.000 A 
ATOM     26  C   UNL     1      -1.489  10.995  18.629  0.00  0.00    +0.000 A 
BRANCH  21  28
ATOM     27  C   UNL     1      -4.108  12.766  20.364  0.00  0.00    +0.000 C 
ATOM     28  O   UNL     1      -2.844  12.604  19.743  0.00  0.00    +0.000 OA
ENDBRANCH  21  28
ENDBRANCH  18  26
ENDBRANCH   1  18
TORSDOF 4
ENDMDL
MODEL 9
REMARK VINA RESULT:      -7.4      4.954      9.098
REMARK  Name = 
REMARK  8 active torsions:
REMARK  status: ('A' for Active; 'I' for Inactive)
REMARK    1  A    between atoms: C_1  and  O_2
REMARK    2  A    between atoms: O_2  and  C_3
REMARK    3  A    between atoms: C_8  and  C_9
REMARK    4  A    between atoms: C_9  and  C_10
REMARK    5  A    between atoms: C_9  and  C_11
REMARK    6  A    between atoms: C_9  and  C_12
REMARK    7  A    between atoms: C_15  and  C_16
REMARK    8  A    between atoms: C_25  and  C_26
REMARK                            x       y       z     vdW  Elec       q    Type
REMARK                         _______ _______ _______ _____ _____    ______ ____
ROOT
ATOM      1  C   UNL     1       0.277  12.482  18.972  0.00  0.00    +0.000 A 
ATOM      2  N   UNL     1       1.530  12.070  18.717  0.00  0.00    +0.000 NA
ATOM      3  O   UNL     1       2.317  13.178  19.065  0.00  0.00    +0.000 OA
ATOM      4  C   UNL     1       1.456  14.141  19.509  0.00  0.00    +0.000 A 
ATOM      5  N   UNL     1       0.197  13.783  19.422  0.00  0.00    +0.000 NA
ENDROOT
BRANCH   4   6
ATOM      6  C   UNL     1       1.986  15.468  19.981  0.00  0.00    +0.000 C 
ATOM      7  C   UNL     1       0.797  16.429  20.170  0.00  0.00    +0.000 C 
ATOM      8  C   UNL     1       0.764  17.069  18.812  0.00  0.00    +0.000 A 
ATOM      9  C   UNL     1      -0.267  17.752  18.207  0.00  0.00    +0.000 A 
ATOM     10  C   UNL     1      -0.035  18.290  16.947  0.00  0.00    +0.000 A 
ATOM     11  C   UNL     1       1.220  18.173  16.323  0.00  0.00    +0.000 A 
ATOM     12  C   UNL     1       2.268  17.506  16.957  0.00  0.00    +0.000 A 
ATOM     13  C   UNL     1       2.012  16.942  18.191  0.00  0.00    +0.000 A 
ATOM     14  N   UNL     1       2.861  16.146  18.985  0.00  0.00    +0.000 N 
ATOM     15  C   UNL     1       4.229  16.303  19.023  0.00  0.00    +0.000 C 
ATOM     16  C   UNL     1       5.011  15.372  19.910  0.00  0.00    +0.000 C 
ATOM     17  O   UNL     1       4.833  17.190  18.417  0.00  0.00    +0.000 OA
ENDBRANCH   4   6
BRANCH   1  18
ATOM     18  C   UNL     1      -0.885  11.530  19.180  0.00  0.00    +0.000 C 
ATOM     19  C   UNL     1      -0.297  10.121  18.900  0.00  0.00    +0.000 C 
ATOM     20  C   UNL     1      -2.041  11.703  18.163  0.00  0.00    +0.000 C 
BRANCH  18  26
ATOM     21  C   UNL     1      -0.785  11.413  21.802  0.00  0.00    +0.000 A 
ATOM     22  C   UNL     1      -1.408  11.598  23.049  0.00  0.00    +0.000 A 
ATOM     23  C   UNL     1      -2.666  12.197  23.138  0.00  0.00    +0.000 A 
ATOM     24  C   UNL     1      -3.295  12.643  21.986  0.00  0.00    +0.000 A 
ATOM     25  C   UNL     1      -2.682  12.465  20.743  0.00  0.00    +0.000 A 
ATOM     26  C   UNL     1      -1.424  11.815  20.605  0.00  0.00    +0.000 A 
BRANCH  21  28
ATOM     27  C   UNL     1       0.699   9.607  22.325  0.00  0.00    +0.000 C 
ATOM     28  O   UNL     1       0.461  10.857  21.700  0.00  0.00    +0.000 OA
ENDBRANCH  21  28
ENDBRANCH  18  26
ENDBRANCH   1  18
TORSDOF 4
ENDMDL
