MODEL 1
REMARK VINA RESULT:      -8.9      0.000      0.000
REMARK  Name = 
REMARK  3 active torsions:
REMARK  status: ('A' for Active; 'I' for Inactive)
REMARK    1  A    between atoms: C_2  and  C_16
REMARK    2  A    between atoms: N_3  and  C_4
REMARK    3  A    between atoms: C_4  and  C_5
REMARK                            x       y       z     vdW  Elec       q    Type
REMARK                         _______ _______ _______ _____ _____    ______ ____
ROOT
ATOM      1  O   UNL     1       2.322   3.111  19.145  0.00  0.00    +0.000 OA
ATOM      2  C   UNL     1       3.069   4.080  18.958  0.00  0.00    +0.000 C 
ATOM      3  N   UNL     1       2.657   5.306  19.404  0.00  0.00    +0.000 N 
ATOM      4  H   UNL     1       1.750   5.283  19.859  0.00  0.00    +0.000 HD
ENDROOT
BRANCH   2   5
ATOM      5  C   UNL     1       4.339   3.935  18.156  0.00  0.00    +0.000 A 
ATOM      6  C   UNL     1       4.211   3.685  16.842  0.00  0.00    +0.000 A 
ATOM      7  C   UNL     1       5.378   3.836  15.968  0.00  0.00    +0.000 A 
ATOM      8  C   UNL     1       5.253   3.684  14.596  0.00  0.00    +0.000 A 
ATOM      9  C   UNL     1       6.114   4.390  13.760  0.00  0.00    +0.000 A 
ATOM     10  C   UNL     1       7.212   5.074  14.286  0.00  0.00    +0.000 A 
ATOM     11  C   UNL     1       7.493   4.995  15.653  0.00  0.00    +0.000 A 
ATOM     12  C   UNL     1       6.553   4.397  16.490  0.00  0.00    +0.000 A 
ATOM     13  C   UNL     1       6.723   4.396  17.959  0.00  0.00    +0.000 A 
ATOM     14  O   UNL     1       7.796   4.627  18.492  0.00  0.00    +0.000 OA
ATOM     15  N   UNL     1       5.591   4.132  18.694  0.00  0.00    +0.000 N 
ATOM     16  H   UNL     1       5.739   4.107  19.686  0.00  0.00    +0.000 HD
ENDBRANCH   2   5
BRANCH   3  17
ATOM     17  C   UNL     1       3.279   6.592  19.196  0.00  0.00    +0.000 C 
BRANCH  17  18
ATOM     18  C   UNL     1       2.314   7.729  19.070  0.00  0.00    +0.000 A 
ATOM     19  C   UNL     1       2.159   8.431  17.877  0.00  0.00    +0.000 A 
ATOM     20  C   UNL     1       1.335   9.555  17.879  0.00  0.00    +0.000 A 
ATOM     21  N   UNL     1       0.674   9.997  18.972  0.00  0.00    +0.000 NA
ATOM     22  C   UNL     1       0.831   9.299  20.125  0.00  0.00    +0.000 A 
ATOM     23  N   UNL     1       0.193   9.765  21.317  0.00  0.00    +0.000 N 
ATOM     24  C   UNL     1      -0.618  10.862  21.434  0.00  0.00    +0.000 A 
ATOM     25  C   UNL     1      -1.000  10.951  22.748  0.00  0.00    +0.000 A 
ATOM     26  C   UNL     1      -0.363   9.856  23.370  0.00  0.00    +0.000 A 
ATOM     27  N   UNL     1       0.356   9.127  22.515  0.00  0.00    +0.000 NA
ATOM     28  C   UNL     1       1.618   8.156  20.205  0.00  0.00    +0.000 A 
ENDBRANCH  17  18
ENDBRANCH   3  17
TORSDOF 3
ENDMDL
MODEL 2
REMARK VINA RESULT:      -8.8      1.143      1.285
REMARK  Name = 
REMARK  3 active torsions:
REMARK  status: ('A' for Active; 'I' for Inactive)
REMARK    1  A    between atoms: C_2  and  C_16
REMARK    2  A    between atoms: N_3  and  C_4
REMARK    3  A    between atoms: C_4  and  C_5
REMARK                            x       y       z     vdW  Elec       q    Type
REMARK                         _______ _______ _______ _____ _____    ______ ____
ROOT
ATOM      1  O   UNL     1       1.506   2.514  18.442  0.00  0.00    +0.000 OA
ATOM      2  C   UNL     1       2.222   3.339  19.023  0.00  0.00    +0.000 C 
ATOM      3  N   UNL     1       1.662   4.085  20.025  0.00  0.00    +0.000 N 
ATOM      4  H   UNL     1       0.684   3.869  20.187  0.00  0.00    +0.000 HD
ENDROOT
BRANCH   2   5
ATOM      5  C   UNL     1       3.635   3.599  18.563  0.00  0.00    +0.000 A 
ATOM      6  C   UNL     1       3.880   3.500  17.245  0.00  0.00    +0.000 A 
ATOM      7  C   UNL     1       5.138   4.030  16.710  0.00  0.00    +0.000 A 
ATOM      8  C   UNL     1       5.373   4.033  15.344  0.00  0.00    +0.000 A 
ATOM      9  C   UNL     1       6.192   5.023  14.805  0.00  0.00    +0.000 A 
ATOM     10  C   UNL     1       6.927   5.868  15.640  0.00  0.00    +0.000 A 
ATOM     11  C   UNL     1       6.897   5.679  17.025  0.00  0.00    +0.000 A 
ATOM     12  C   UNL     1       5.977   4.775  17.551  0.00  0.00    +0.000 A 
ATOM     13  C   UNL     1       5.801   4.622  19.012  0.00  0.00    +0.000 A 
ATOM     14  O   UNL     1       6.627   5.023  19.814  0.00  0.00    +0.000 OA
ATOM     15  N   UNL     1       4.637   4.009  19.414  0.00  0.00    +0.000 N 
ATOM     16  H   UNL     1       4.555   3.890  20.406  0.00  0.00    +0.000 HD
ENDBRANCH   2   5
BRANCH   3  17
ATOM     17  C   UNL     1       2.243   5.186  20.757  0.00  0.00    +0.000 C 
BRANCH  17  18
ATOM     18  C   UNL     1       1.906   6.536  20.207  0.00  0.00    +0.000 A 
ATOM     19  C   UNL     1       2.397   6.972  18.979  0.00  0.00    +0.000 A 
ATOM     20  C   UNL     1       2.140   8.288  18.599  0.00  0.00    +0.000 A 
ATOM     21  N   UNL     1       1.436   9.162  19.354  0.00  0.00    +0.000 NA
ATOM     22  C   UNL     1       0.961   8.720  20.545  0.00  0.00    +0.000 A 
ATOM     23  N   UNL     1       0.260   9.629  21.398  0.00  0.00    +0.000 N 
ATOM     24  C   UNL     1      -0.029  10.941  21.133  0.00  0.00    +0.000 A 
ATOM     25  C   UNL     1      -0.697  11.442  22.221  0.00  0.00    +0.000 A 
ATOM     26  C   UNL     1      -0.768  10.353  23.116  0.00  0.00    +0.000 A 
ATOM     27  N   UNL     1      -0.199   9.250  22.628  0.00  0.00    +0.000 NA
ATOM     28  C   UNL     1       1.154   7.418  20.990  0.00  0.00    +0.000 A 
ENDBRANCH  17  18
ENDBRANCH   3  17
TORSDOF 3
ENDMDL
MODEL 3
REMARK VINA RESULT:      -8.7      2.451      8.044
REMARK  Name = 
REMARK  3 active torsions:
REMARK  status: ('A' for Active; 'I' for Inactive)
REMARK    1  A    between atoms: C_2  and  C_16
REMARK    2  A    between atoms: N_3  and  C_4
REMARK    3  A    between atoms: C_4  and  C_5
REMARK                            x       y       z     vdW  Elec       q    Type
REMARK                         _______ _______ _______ _____ _____    ______ ____
ROOT
ATOM      1  O   UNL     1       1.370   4.007  17.710  0.00  0.00    +0.000 OA
ATOM      2  C   UNL     1       2.378   4.528  18.206  0.00  0.00    +0.000 C 
ATOM      3  N   UNL     1       3.532   3.793  18.239  0.00  0.00    +0.000 N 
ATOM      4  H   UNL     1       3.429   2.866  17.837  0.00  0.00    +0.000 HD
ENDROOT
BRANCH   2   5
ATOM      5  C   UNL     1       2.307   5.885  18.860  0.00  0.00    +0.000 A 
ATOM      6  C   UNL     1       2.555   6.955  18.084  0.00  0.00    +0.000 A 
ATOM      7  C   UNL     1       2.208   8.291  18.576  0.00  0.00    +0.000 A 
ATOM      8  C   UNL     1       2.358   9.401  17.759  0.00  0.00    +0.000 A 
ATOM      9  C   UNL     1       1.512  10.492  17.946  0.00  0.00    +0.000 A 
ATOM     10  C   UNL     1       0.670  10.555  19.059  0.00  0.00    +0.000 A 
ATOM     11  C   UNL     1       0.724   9.553  20.032  0.00  0.00    +0.000 A 
ATOM     12  C   UNL     1       1.476   8.411  19.766  0.00  0.00    +0.000 A 
ATOM     13  C   UNL     1       1.472   7.257  20.692  0.00  0.00    +0.000 A 
ATOM     14  O   UNL     1       1.082   7.346  21.844  0.00  0.00    +0.000 OA
ATOM     15  N   UNL     1       1.923   6.068  20.169  0.00  0.00    +0.000 N 
ATOM     16  H   UNL     1       1.939   5.308  20.824  0.00  0.00    +0.000 HD
ENDBRANCH   2   5
BRANCH   3  17
ATOM     17  C   UNL     1       4.788   4.122  18.871  0.00  0.00    +0.000 C 
BRANCH  17  18
ATOM     18  C   UNL     1       5.787   4.761  17.959  0.00  0.00    +0.000 A 
ATOM     19  C   UNL     1       6.564   5.843  18.365  0.00  0.00    +0.000 A 
ATOM     20  C   UNL     1       7.377   6.460  17.416  0.00  0.00    +0.000 A 
ATOM     21  N   UNL     1       7.458   6.062  16.126  0.00  0.00    +0.000 NA
ATOM     22  C   UNL     1       6.699   5.003  15.749  0.00  0.00    +0.000 A 
ATOM     23  N   UNL     1       6.713   4.586  14.381  0.00  0.00    +0.000 N 
ATOM     24  C   UNL     1       7.457   5.131  13.368  0.00  0.00    +0.000 A 
ATOM     25  C   UNL     1       7.156   4.441  12.222  0.00  0.00    +0.000 A 
ATOM     26  C   UNL     1       6.204   3.483  12.632  0.00  0.00    +0.000 A 
ATOM     27  N   UNL     1       5.932   3.556  13.936  0.00  0.00    +0.000 NA
ATOM     28  C   UNL     1       5.876   4.319  16.636  0.00  0.00    +0.000 A 
ENDBRANCH  17  18
ENDBRANCH   3  17
TORSDOF 3
ENDMDL
MODEL 4
REMARK VINA RESULT:      -8.5      1.165      1.336
REMARK  Name = 
REMARK  3 active torsions:
REMARK  status: ('A' for Active; 'I' for Inactive)
REMARK    1  A    between atoms: C_2  and  C_16
REMARK    2  A    between atoms: N_3  and  C_4
REMARK    3  A    between atoms: C_4  and  C_5
REMARK                            x       y       z     vdW  Elec       q    Type
REMARK                         _______ _______ _______ _____ _____    ______ ____
ROOT
ATOM      1  O   UNL     1       1.944   4.645  20.460  0.00  0.00    +0.000 OA
ATOM      2  C   UNL     1       2.570   5.413  19.718  0.00  0.00    +0.000 C 
ATOM      3  N   UNL     1       2.006   6.624  19.423  0.00  0.00    +0.000 N 
ATOM      4  H   UNL     1       1.102   6.764  19.864  0.00  0.00    +0.000 HD
ENDROOT
BRANCH   2   5
ATOM      5  C   UNL     1       3.858   4.980  19.064  0.00  0.00    +0.000 A 
ATOM      6  C   UNL     1       3.773   4.444  17.834  0.00  0.00    +0.000 A 
ATOM      7  C   UNL     1       4.992   4.289  17.035  0.00  0.00    +0.000 A 
ATOM      8  C   UNL     1       4.922   3.834  15.727  0.00  0.00    +0.000 A 
ATOM      9  C   UNL     1       5.890   4.252  14.817  0.00  0.00    +0.000 A 
ATOM     10  C   UNL     1       7.022   4.944  15.253  0.00  0.00    +0.000 A 
ATOM     11  C   UNL     1       7.224   5.161  16.619  0.00  0.00    +0.000 A 
ATOM     12  C   UNL     1       6.188   4.855  17.500  0.00  0.00    +0.000 A 
ATOM     13  C   UNL     1       6.283   5.179  18.940  0.00  0.00    +0.000 A 
ATOM     14  O   UNL     1       7.345   5.436  19.482  0.00  0.00    +0.000 OA
ATOM     15  N   UNL     1       5.095   5.189  19.631  0.00  0.00    +0.000 N 
ATOM     16  H   UNL     1       5.189   5.382  20.611  0.00  0.00    +0.000 HD
ENDBRANCH   2   5
BRANCH   3  17
ATOM     17  C   UNL     1       2.469   7.627  18.493  0.00  0.00    +0.000 C 
BRANCH  17  18
ATOM     18  C   UNL     1       1.892   8.990  18.719  0.00  0.00    +0.000 A 
ATOM     19  C   UNL     1       2.197  10.062  17.886  0.00  0.00    +0.000 A 
ATOM     20  C   UNL     1       1.721  11.324  18.239  0.00  0.00    +0.000 A 
ATOM     21  N   UNL     1       0.975  11.562  19.342  0.00  0.00    +0.000 NA
ATOM     22  C   UNL     1       0.683  10.504  20.140  0.00  0.00    +0.000 A 
ATOM     23  N   UNL     1      -0.057  10.721  21.345  0.00  0.00    +0.000 N 
ATOM     24  C   UNL     1      -0.554  11.916  21.794  0.00  0.00    +0.000 A 
ATOM     25  C   UNL     1      -1.180  11.675  22.990  0.00  0.00    +0.000 A 
ATOM     26  C   UNL     1      -1.010  10.290  23.199  0.00  0.00    +0.000 A 
ATOM     27  N   UNL     1      -0.339   9.701  22.208  0.00  0.00    +0.000 NA
ATOM     28  C   UNL     1       1.100   9.211  19.850  0.00  0.00    +0.000 A 
ENDBRANCH  17  18
ENDBRANCH   3  17
TORSDOF 3
ENDMDL
MODEL 5
REMARK VINA RESULT:      -8.2      2.614      4.017
REMARK  Name = 
REMARK  3 active torsions:
REMARK  status: ('A' for Active; 'I' for Inactive)
REMARK    1  A    between atoms: C_2  and  C_16
REMARK    2  A    between atoms: N_3  and  C_4
REMARK    3  A    between atoms: C_4  and  C_5
REMARK                            x       y       z     vdW  Elec       q    Type
REMARK                         _______ _______ _______ _____ _____    ______ ____
ROOT
ATOM      1  O   UNL     1       2.120   5.651  21.076  0.00  0.00    +0.000 OA
ATOM      2  C   UNL     1       2.271   6.386  20.091  0.00  0.00    +0.000 C 
ATOM      3  N   UNL     1       1.878   7.692  20.196  0.00  0.00    +0.000 N 
ATOM      4  H   UNL     1       1.492   7.923  21.106  0.00  0.00    +0.000 HD
ENDROOT
BRANCH   2   5
ATOM      5  C   UNL     1       2.764   5.830  18.778  0.00  0.00    +0.000 A 
ATOM      6  C   UNL     1       3.818   6.440  18.210  0.00  0.00    +0.000 A 
ATOM      7  C   UNL     1       4.523   5.774  17.110  0.00  0.00    +0.000 A 
ATOM      8  C   UNL     1       5.673   6.331  16.573  0.00  0.00    +0.000 A 
ATOM      9  C   UNL     1       6.636   5.487  16.026  0.00  0.00    +0.000 A 
ATOM     10  C   UNL     1       6.365   4.131  15.832  0.00  0.00    +0.000 A 
ATOM     11  C   UNL     1       5.094   3.626  16.124  0.00  0.00    +0.000 A 
ATOM     12  C   UNL     1       4.190   4.450  16.790  0.00  0.00    +0.000 A 
ATOM     13  C   UNL     1       2.878   3.940  17.245  0.00  0.00    +0.000 A 
ATOM     14  O   UNL     1       2.394   2.907  16.813  0.00  0.00    +0.000 OA
ATOM     15  N   UNL     1       2.239   4.696  18.200  0.00  0.00    +0.000 N 
ATOM     16  H   UNL     1       1.339   4.346  18.470  0.00  0.00    +0.000 HD
ENDBRANCH   2   5
BRANCH   3  17
ATOM     17  C   UNL     1       1.831   8.701  19.164  0.00  0.00    +0.000 C 
BRANCH  17  18
ATOM     18  C   UNL     1       0.732   9.703  19.333  0.00  0.00    +0.000 A 
ATOM     19  C   UNL     1       0.577  10.429  20.510  0.00  0.00    +0.000 A 
ATOM     20  C   UNL     1      -0.545  11.248  20.633  0.00  0.00    +0.000 A 
ATOM     21  N   UNL     1      -1.485  11.380  19.670  0.00  0.00    +0.000 NA
ATOM     22  C   UNL     1      -1.315  10.669  18.527  0.00  0.00    +0.000 A 
ATOM     23  N   UNL     1      -2.315  10.738  17.507  0.00  0.00    +0.000 N 
ATOM     24  C   UNL     1      -3.459  11.491  17.532  0.00  0.00    +0.000 A 
ATOM     25  C   UNL     1      -4.136  11.248  16.365  0.00  0.00    +0.000 A 
ATOM     26  C   UNL     1      -3.324  10.319  15.679  0.00  0.00    +0.000 A 
ATOM     27  N   UNL     1      -2.218  10.007  16.356  0.00  0.00    +0.000 NA
ATOM     28  C   UNL     1      -0.216   9.846  18.315  0.00  0.00    +0.000 A 
ENDBRANCH  17  18
ENDBRANCH   3  17
TORSDOF 3
ENDMDL
MODEL 6
REMARK VINA RESULT:      -8.1      4.355      6.822
REMARK  Name = 
REMARK  3 active torsions:
REMARK  status: ('A' for Active; 'I' for Inactive)
REMARK    1  A    between atoms: C_2  and  C_16
REMARK    2  A    between atoms: N_3  and  C_4
REMARK    3  A    between atoms: C_4  and  C_5
REMARK                            x       y       z     vdW  Elec       q    Type
REMARK                         _______ _______ _______ _____ _____    ______ ____
ROOT
ATOM      1  O   UNL     1       5.372   3.287  15.568  0.00  0.00    +0.000 OA
ATOM      2  C   UNL     1       5.150   4.268  16.289  0.00  0.00    +0.000 C 
ATOM      3  N   UNL     1       5.469   5.508  15.806  0.00  0.00    +0.000 N 
ATOM      4  H   UNL     1       5.866   5.484  14.872  0.00  0.00    +0.000 HD
ENDROOT
BRANCH   2   5
ATOM      5  C   UNL     1       4.654   4.093  17.703  0.00  0.00    +0.000 A 
ATOM      6  C   UNL     1       3.541   4.762  18.051  0.00  0.00    +0.000 A 
ATOM      7  C   UNL     1       2.849   4.402  19.292  0.00  0.00    +0.000 A 
ATOM      8  C   UNL     1       1.644   5.004  19.624  0.00  0.00    +0.000 A 
ATOM      9  C   UNL     1       0.725   4.290  20.390  0.00  0.00    +0.000 A 
ATOM     10  C   UNL     1       1.086   3.079  20.985  0.00  0.00    +0.000 A 
ATOM     11  C   UNL     1       2.398   2.610  20.872  0.00  0.00    +0.000 A 
ATOM     12  C   UNL     1       3.264   3.265  19.999  0.00  0.00    +0.000 A 
ATOM     13  C   UNL     1       4.623   2.745  19.733  0.00  0.00    +0.000 A 
ATOM     14  O   UNL     1       5.164   1.930  20.460  0.00  0.00    +0.000 OA
ATOM     15  N   UNL     1       5.238   3.229  18.602  0.00  0.00    +0.000 N 
ATOM     16  H   UNL     1       6.169   2.885  18.459  0.00  0.00    +0.000 HD
ENDBRANCH   2   5
BRANCH   3  17
ATOM     17  C   UNL     1       5.427   6.777  16.493  0.00  0.00    +0.000 C 
BRANCH  17  18
ATOM     18  C   UNL     1       6.631   7.060  17.336  0.00  0.00    +0.000 A 
ATOM     19  C   UNL     1       7.181   6.096  18.177  0.00  0.00    +0.000 A 
ATOM     20  C   UNL     1       8.221   6.479  19.022  0.00  0.00    +0.000 A 
ATOM     21  N   UNL     1       8.730   7.731  19.064  0.00  0.00    +0.000 NA
ATOM     22  C   UNL     1       8.186   8.656  18.235  0.00  0.00    +0.000 A 
ATOM     23  N   UNL     1       8.658  10.006  18.289  0.00  0.00    +0.000 N 
ATOM     24  C   UNL     1       9.657  10.491  19.090  0.00  0.00    +0.000 A 
ATOM     25  C   UNL     1       9.774  11.833  18.832  0.00  0.00    +0.000 A 
ATOM     26  C   UNL     1       8.791  12.085  17.852  0.00  0.00    +0.000 A 
ATOM     27  N   UNL     1       8.114  10.988  17.509  0.00  0.00    +0.000 NA
ATOM     28  C   UNL     1       7.161   8.354  17.347  0.00  0.00    +0.000 A 
ENDBRANCH  17  18
ENDBRANCH   3  17
TORSDOF 3
ENDMDL
MODEL 7
REMARK VINA RESULT:      -8.1      3.566      8.999
REMARK  Name = 
REMARK  3 active torsions:
REMARK  status: ('A' for Active; 'I' for Inactive)
REMARK    1  A    between atoms: C_2  and  C_16
REMARK    2  A    between atoms: N_3  and  C_4
REMARK    3  A    between atoms: C_4  and  C_5
REMARK                            x       y       z     vdW  Elec       q    Type
REMARK                         _______ _______ _______ _____ _____    ______ ____
ROOT
ATOM      1  O   UNL     1       2.498  12.064  18.062  0.00  0.00    +0.000 OA
ATOM      2  C   UNL     1       1.865  11.023  18.284  0.00  0.00    +0.000 C 
ATOM      3  N   UNL     1       2.387   9.843  17.828  0.00  0.00    +0.000 N 
ATOM      4  H   UNL     1       3.270   9.957  17.341  0.00  0.00    +0.000 HD
ENDROOT
BRANCH   2   5
ATOM      5  C   UNL     1       0.504  11.067  18.931  0.00  0.00    +0.000 A 
ATOM      6  C   UNL     1       0.460  11.014  20.274  0.00  0.00    +0.000 A 
ATOM      7  C   UNL     1      -0.788  11.355  20.963  0.00  0.00    +0.000 A 
ATOM      8  C   UNL     1      -0.835  11.408  22.348  0.00  0.00    +0.000 A 
ATOM      9  C   UNL     1      -1.738  12.276  22.957  0.00  0.00    +0.000 A 
ATOM     10  C   UNL     1      -2.717  12.925  22.203  0.00  0.00    +0.000 A 
ATOM     11  C   UNL     1      -2.841  12.653  20.838  0.00  0.00    +0.000 A 
ATOM     12  C   UNL     1      -1.853  11.888  20.222  0.00  0.00    +0.000 A 
ATOM     13  C   UNL     1      -1.851  11.671  18.758  0.00  0.00    +0.000 A 
ATOM     14  O   UNL     1      -2.835  11.871  18.068  0.00  0.00    +0.000 OA
ATOM     15  N   UNL     1      -0.661  11.241  18.218  0.00  0.00    +0.000 N 
ATOM     16  H   UNL     1      -0.694  11.073  17.230  0.00  0.00    +0.000 HD
ENDBRANCH   2   5
BRANCH   3  17
ATOM     17  C   UNL     1       1.787   8.530  17.846  0.00  0.00    +0.000 C 
BRANCH  17  18
ATOM     18  C   UNL     1       2.747   7.418  18.136  0.00  0.00    +0.000 A 
ATOM     19  C   UNL     1       3.945   7.284  17.440  0.00  0.00    +0.000 A 
ATOM     20  C   UNL     1       4.721   6.152  17.682  0.00  0.00    +0.000 A 
ATOM     21  N   UNL     1       4.378   5.181  18.558  0.00  0.00    +0.000 NA
ATOM     22  C   UNL     1       3.209   5.331  19.232  0.00  0.00    +0.000 A 
ATOM     23  N   UNL     1       2.782   4.300  20.127  0.00  0.00    +0.000 N 
ATOM     24  C   UNL     1       3.455   3.144  20.422  0.00  0.00    +0.000 A 
ATOM     25  C   UNL     1       2.684   2.437  21.309  0.00  0.00    +0.000 A 
ATOM     26  C   UNL     1       1.542   3.245  21.499  0.00  0.00    +0.000 A 
ATOM     27  N   UNL     1       1.592   4.376  20.794  0.00  0.00    +0.000 NA
ATOM     28  C   UNL     1       2.387   6.438  19.065  0.00  0.00    +0.000 A 
ENDBRANCH  17  18
ENDBRANCH   3  17
TORSDOF 3
ENDMDL
MODEL 8
REMARK VINA RESULT:      -8.0      1.683      2.645
REMARK  Name = 
REMARK  3 active torsions:
REMARK  status: ('A' for Active; 'I' for Inactive)
REMARK    1  A    between atoms: C_2  and  C_16
REMARK    2  A    between atoms: N_3  and  C_4
REMARK    3  A    between atoms: C_4  and  C_5
REMARK                            x       y       z     vdW  Elec       q    Type
REMARK                         _______ _______ _______ _____ _____    ______ ____
ROOT
ATOM      1  O   UNL     1       1.149   3.799  19.234  0.00  0.00    +0.000 OA
ATOM      2  C   UNL     1       1.988   4.700  19.366  0.00  0.00    +0.000 C 
ATOM      3  N   UNL     1       1.575   5.893  19.894  0.00  0.00    +0.000 N 
ATOM      4  H   UNL     1       0.588   5.906  20.130  0.00  0.00    +0.000 HD
ENDROOT
BRANCH   2   5
ATOM      5  C   UNL     1       3.396   4.529  18.850  0.00  0.00    +0.000 A 
ATOM      6  C   UNL     1       3.540   4.207  17.553  0.00  0.00    +0.000 A 
ATOM      7  C   UNL     1       4.861   4.325  16.930  0.00  0.00    +0.000 A 
ATOM      8  C   UNL     1       5.020   4.098  15.571  0.00  0.00    +0.000 A 
ATOM      9  C   UNL     1       6.033   4.770  14.891  0.00  0.00    +0.000 A 
ATOM     10  C   UNL     1       6.999   5.495  15.593  0.00  0.00    +0.000 A 
ATOM     11  C   UNL     1       6.993   5.493  16.990  0.00  0.00    +0.000 A 
ATOM     12  C   UNL     1       5.903   4.929  17.649  0.00  0.00    +0.000 A 
ATOM     13  C   UNL     1       5.769   5.009  19.120  0.00  0.00    +0.000 A 
ATOM     14  O   UNL     1       6.710   5.282  19.846  0.00  0.00    +0.000 OA
ATOM     15  N   UNL     1       4.511   4.770  19.621  0.00  0.00    +0.000 N 
ATOM     16  H   UNL     1       4.453   4.801  20.622  0.00  0.00    +0.000 HD
ENDBRANCH   2   5
BRANCH   3  17
ATOM     17  C   UNL     1       2.320   7.122  20.027  0.00  0.00    +0.000 C 
BRANCH  17  18
ATOM     18  C   UNL     1       1.508   8.287  20.499  0.00  0.00    +0.000 A 
ATOM     19  C   UNL     1       1.479   8.666  21.839  0.00  0.00    +0.000 A 
ATOM     20  C   UNL     1       0.600   9.679  22.215  0.00  0.00    +0.000 A 
ATOM     21  N   UNL     1      -0.221  10.319  21.351  0.00  0.00    +0.000 NA
ATOM     22  C   UNL     1      -0.176   9.940  20.049  0.00  0.00    +0.000 A 
ATOM     23  N   UNL     1      -1.067  10.553  19.113  0.00  0.00    +0.000 N 
ATOM     24  C   UNL     1      -1.979  11.540  19.378  0.00  0.00    +0.000 A 
ATOM     25  C   UNL     1      -2.631  11.822  18.204  0.00  0.00    +0.000 A 
ATOM     26  C   UNL     1      -2.048  10.945  17.264  0.00  0.00    +0.000 A 
ATOM     27  N   UNL     1      -1.098  10.178  17.799  0.00  0.00    +0.000 NA
ATOM     28  C   UNL     1       0.686   8.953  19.586  0.00  0.00    +0.000 A 
ENDBRANCH  17  18
ENDBRANCH   3  17
TORSDOF 3
ENDMDL
MODEL 9
REMARK VINA RESULT:      -8.0      2.873      4.731
REMARK  Name = 
REMARK  3 active torsions:
REMARK  status: ('A' for Active; 'I' for Inactive)
REMARK    1  A    between atoms: C_2  and  C_16
REMARK    2  A    between atoms: N_3  and  C_4
REMARK    3  A    between atoms: C_4  and  C_5
REMARK                            x       y       z     vdW  Elec       q    Type
REMARK                         _______ _______ _______ _____ _____    ______ ____
ROOT
ATOM      1  O   UNL     1       3.873   7.896  16.548  0.00  0.00    +0.000 OA
ATOM      2  C   UNL     1       3.226   7.677  17.580  0.00  0.00    +0.000 C 
ATOM      3  N   UNL     1       2.473   8.696  18.097  0.00  0.00    +0.000 N 
ATOM      4  H   UNL     1       2.530   9.552  17.553  0.00  0.00    +0.000 HD
ENDROOT
BRANCH   2   5
ATOM      5  C   UNL     1       3.355   6.364  18.312  0.00  0.00    +0.000 A 
ATOM      6  C   UNL     1       2.237   5.634  18.468  0.00  0.00    +0.000 A 
ATOM      7  C   UNL     1       2.349   4.236  18.892  0.00  0.00    +0.000 A 
ATOM      8  C   UNL     1       1.222   3.431  18.962  0.00  0.00    +0.000 A 
ATOM      9  C   UNL     1       1.361   2.061  18.752  0.00  0.00    +0.000 A 
ATOM     10  C   UNL     1       2.628   1.479  18.678  0.00  0.00    +0.000 A 
ATOM     11  C   UNL     1       3.768   2.261  18.885  0.00  0.00    +0.000 A 
ATOM     12  C   UNL     1       3.619   3.644  18.962  0.00  0.00    +0.000 A 
ATOM     13  C   UNL     1       4.793   4.540  19.048  0.00  0.00    +0.000 A 
ATOM     14  O   UNL     1       5.900   4.135  19.360  0.00  0.00    +0.000 OA
ATOM     15  N   UNL     1       4.563   5.860  18.740  0.00  0.00    +0.000 N 
ATOM     16  H   UNL     1       5.367   6.452  18.835  0.00  0.00    +0.000 HD
ENDBRANCH   2   5
BRANCH   3  17
ATOM     17  C   UNL     1       1.743   8.731  19.342  0.00  0.00    +0.000 C 
BRANCH  17  18
ATOM     18  C   UNL     1       0.663   9.767  19.393  0.00  0.00    +0.000 A 
ATOM     19  C   UNL     1       0.494  10.595  20.500  0.00  0.00    +0.000 A 
ATOM     20  C   UNL     1      -0.611  11.443  20.522  0.00  0.00    +0.000 A 
ATOM     21  N   UNL     1      -1.523  11.512  19.525  0.00  0.00    +0.000 NA
ATOM     22  C   UNL     1      -1.340  10.702  18.452  0.00  0.00    +0.000 A 
ATOM     23  N   UNL     1      -2.312  10.704  17.402  0.00  0.00    +0.000 N 
ATOM     24  C   UNL     1      -3.438  11.480  17.332  0.00  0.00    +0.000 A 
ATOM     25  C   UNL     1      -4.090  11.151  16.171  0.00  0.00    +0.000 A 
ATOM     26  C   UNL     1      -3.283  10.150  15.591  0.00  0.00    +0.000 A 
ATOM     27  N   UNL     1      -2.201   9.875  16.322  0.00  0.00    +0.000 NA
ATOM     28  C   UNL     1      -0.255   9.842  18.342  0.00  0.00    +0.000 A 
ENDBRANCH  17  18
ENDBRANCH   3  17
TORSDOF 3
ENDMDL
