MODEL 1
REMARK VINA RESULT:      -8.9      0.000      0.000
REMARK  Name = 
REMARK  6 active torsions:
REMARK  status: ('A' for Active; 'I' for Inactive)
REMARK    1  A    between atoms: C_2  and  C_3
REMARK    2  A    between atoms: C_3  and  N_4
REMARK    3  A    between atoms: N_4  and  C_5
REMARK    4  A    between atoms: C_5  and  C_6
REMARK    5  A    between atoms: C_5  and  C_12
REMARK    6  A    between atoms: N_18  and  C_19
REMARK                            x       y       z     vdW  Elec       q    Type
REMARK                         _______ _______ _______ _____ _____    ______ ____
ROOT
ATOM      1  N   UNL     1       4.146   6.154  18.543  0.00  0.00    +0.000 NA
ATOM      2  H   UNL     1       3.711   5.885  17.658  0.00  0.00    +0.000 HD
ENDROOT
BRANCH   1   3
ATOM      3  C   UNL     1       5.197   5.168  18.857  0.00  0.00    +0.000 C 
BRANCH   3   5
ATOM      4  O   UNL     1       7.158   4.284  17.793  0.00  0.00    +0.000 OA
ATOM      5  C   UNL     1       6.054   4.781  17.639  0.00  0.00    +0.000 C 
ATOM      6  N   UNL     1       5.457   5.096  16.424  0.00  0.00    +0.000 N 
ATOM      7  H   UNL     1       4.654   5.717  16.452  0.00  0.00    +0.000 HD
BRANCH   6   8
ATOM      8  C   UNL     1       5.949   4.766  15.137  0.00  0.00    +0.000 A 
ATOM      9  C   UNL     1       5.324   3.837  14.295  0.00  0.00    +0.000 A 
ATOM     10  C   UNL     1       5.863   3.526  13.040  0.00  0.00    +0.000 A 
ATOM     11  C   UNL     1       7.028   4.154  12.620  0.00  0.00    +0.000 A 
ATOM     12  F   UNL     1       7.550   3.843  11.426  0.00  0.00    +0.000 F 
ATOM     13  C   UNL     1       7.638   5.100  13.434  0.00  0.00    +0.000 A 
ATOM     14  F   UNL     1       8.756   5.719  13.023  0.00  0.00    +0.000 F 
ATOM     15  C   UNL     1       7.102   5.417  14.681  0.00  0.00    +0.000 A 
ENDBRANCH   6   8
ENDBRANCH   3   5
ENDBRANCH   1   3
BRANCH   1  16
ATOM     16  C   UNL     1       3.073   6.249  19.555  0.00  0.00    +0.000 C 
BRANCH  16  17
ATOM     17  C   UNL     1       2.238   7.537  19.391  0.00  0.00    +0.000 A 
ATOM     18  C   UNL     1       1.537   8.094  20.474  0.00  0.00    +0.000 A 
ATOM     19  C   UNL     1       0.826   9.292  20.338  0.00  0.00    +0.000 A 
ATOM     20  C   UNL     1       0.748   9.923  19.100  0.00  0.00    +0.000 A 
ATOM     21  C   UNL     1       1.383   9.352  17.998  0.00  0.00    +0.000 A 
ATOM     22  C   UNL     1       2.137   8.183  18.148  0.00  0.00    +0.000 A 
ENDBRANCH  16  17
BRANCH  16  23
ATOM     23  C   UNL     1       2.172   4.998  19.562  0.00  0.00    +0.000 A 
ATOM     24  C   UNL     1       1.789   4.408  18.342  0.00  0.00    +0.000 A 
ATOM     25  C   UNL     1       1.181   3.145  18.308  0.00  0.00    +0.000 A 
ATOM     26  C   UNL     1       0.892   2.475  19.491  0.00  0.00    +0.000 A 
ATOM     27  C   UNL     1       1.147   3.098  20.712  0.00  0.00    +0.000 A 
ATOM     28  C   UNL     1       1.784   4.344  20.746  0.00  0.00    +0.000 A 
ENDBRANCH  16  23
ENDBRANCH   1  16
TORSDOF 6
ENDMDL
MODEL 2
REMARK VINA RESULT:      -8.7      0.660      1.352
REMARK  Name = 
REMARK  6 active torsions:
REMARK  status: ('A' for Active; 'I' for Inactive)
REMARK    1  A    between atoms: C_2  and  C_3
REMARK    2  A    between atoms: C_3  and  N_4
REMARK    3  A    between atoms: N_4  and  C_5
REMARK    4  A    between atoms: C_5  and  C_6
REMARK    5  A    between atoms: C_5  and  C_12
REMARK    6  A    between atoms: N_18  and  C_19
REMARK                            x       y       z     vdW  Elec       q    Type
REMARK                         _______ _______ _______ _____ _____    ______ ____
ROOT
ATOM      1  N   UNL     1       4.148   5.894  18.230  0.00  0.00    +0.000 NA
ATOM      2  H   UNL     1       3.718   5.225  17.588  0.00  0.00    +0.000 HD
ENDROOT
BRANCH   1   3
ATOM      3  C   UNL     1       5.476   5.378  18.612  0.00  0.00    +0.000 C 
BRANCH   3   5
ATOM      4  O   UNL     1       7.401   4.382  17.581  0.00  0.00    +0.000 OA
ATOM      5  C   UNL     1       6.329   4.940  17.409  0.00  0.00    +0.000 C 
ATOM      6  N   UNL     1       5.771   5.286  16.184  0.00  0.00    +0.000 N 
ATOM      7  H   UNL     1       5.004   5.952  16.198  0.00  0.00    +0.000 HD
BRANCH   6   8
ATOM      8  C   UNL     1       6.264   4.926  14.905  0.00  0.00    +0.000 A 
ATOM      9  C   UNL     1       7.444   5.453  14.365  0.00  0.00    +0.000 A 
ATOM     10  C   UNL     1       7.877   5.082  13.085  0.00  0.00    +0.000 A 
ATOM     11  C   UNL     1       7.133   4.173  12.345  0.00  0.00    +0.000 A 
ATOM     12  F   UNL     1       7.542   3.833  11.115  0.00  0.00    +0.000 F 
ATOM     13  C   UNL     1       5.978   3.620  12.885  0.00  0.00    +0.000 A 
ATOM     14  F   UNL     1       5.266   2.730  12.177  0.00  0.00    +0.000 F 
ATOM     15  C   UNL     1       5.545   3.981  14.160  0.00  0.00    +0.000 A 
ENDBRANCH   6   8
ENDBRANCH   3   5
ENDBRANCH   1   3
BRANCH   1  16
ATOM     16  C   UNL     1       3.217   6.085  19.362  0.00  0.00    +0.000 C 
BRANCH  16  17
ATOM     17  C   UNL     1       2.412   7.395  19.232  0.00  0.00    +0.000 A 
ATOM     18  C   UNL     1       1.669   7.905  20.310  0.00  0.00    +0.000 A 
ATOM     19  C   UNL     1       0.985   9.122  20.208  0.00  0.00    +0.000 A 
ATOM     20  C   UNL     1       0.976   9.821  19.004  0.00  0.00    +0.000 A 
ATOM     21  C   UNL     1       1.653   9.299  17.903  0.00  0.00    +0.000 A 
ATOM     22  C   UNL     1       2.380   8.110  18.022  0.00  0.00    +0.000 A 
ENDBRANCH  16  17
BRANCH  16  23
ATOM     23  C   UNL     1       2.283   4.873  19.553  0.00  0.00    +0.000 A 
ATOM     24  C   UNL     1       1.722   4.241  18.427  0.00  0.00    +0.000 A 
ATOM     25  C   UNL     1       1.073   3.004  18.541  0.00  0.00    +0.000 A 
ATOM     26  C   UNL     1       0.920   2.404  19.785  0.00  0.00    +0.000 A 
ATOM     27  C   UNL     1       1.355   3.074  20.928  0.00  0.00    +0.000 A 
ATOM     28  C   UNL     1       2.033   4.294  20.812  0.00  0.00    +0.000 A 
ENDBRANCH  16  23
ENDBRANCH   1  16
TORSDOF 6
ENDMDL
MODEL 3
REMARK VINA RESULT:      -8.7      4.778      8.343
REMARK  Name = 
REMARK  6 active torsions:
REMARK  status: ('A' for Active; 'I' for Inactive)
REMARK    1  A    between atoms: C_2  and  C_3
REMARK    2  A    between atoms: C_3  and  N_4
REMARK    3  A    between atoms: N_4  and  C_5
REMARK    4  A    between atoms: C_5  and  C_6
REMARK    5  A    between atoms: C_5  and  C_12
REMARK    6  A    between atoms: N_18  and  C_19
REMARK                            x       y       z     vdW  Elec       q    Type
REMARK                         _______ _______ _______ _____ _____    ______ ____
ROOT
ATOM      1  N   UNL     1       3.216   7.034  18.384  0.00  0.00    +0.000 NA
ATOM      2  H   UNL     1       2.668   6.922  19.240  0.00  0.00    +0.000 HD
ENDROOT
BRANCH   1   3
ATOM      3  C   UNL     1       2.610   8.117  17.587  0.00  0.00    +0.000 C 
BRANCH   3   5
ATOM      4  O   UNL     1       1.868  10.349  18.066  0.00  0.00    +0.000 OA
ATOM      5  C   UNL     1       1.914   9.189  18.444  0.00  0.00    +0.000 C 
ATOM      6  N   UNL     1       1.421   8.697  19.647  0.00  0.00    +0.000 N 
ATOM      7  H   UNL     1       1.738   7.776  19.934  0.00  0.00    +0.000 HD
BRANCH   6   8
ATOM      8  C   UNL     1       0.642   9.413  20.590  0.00  0.00    +0.000 A 
ATOM      9  C   UNL     1      -0.208  10.468  20.235  0.00  0.00    +0.000 A 
ATOM     10  C   UNL     1      -0.939  11.161  21.208  0.00  0.00    +0.000 A 
ATOM     11  C   UNL     1      -0.828  10.792  22.542  0.00  0.00    +0.000 A 
ATOM     12  F   UNL     1      -1.515  11.468  23.473  0.00  0.00    +0.000 F 
ATOM     13  C   UNL     1      -0.011   9.728  22.901  0.00  0.00    +0.000 A 
ATOM     14  F   UNL     1       0.087   9.360  24.188  0.00  0.00    +0.000 F 
ATOM     15  C   UNL     1       0.714   9.030  21.936  0.00  0.00    +0.000 A 
ENDBRANCH   6   8
ENDBRANCH   3   5
ENDBRANCH   1   3
BRANCH   1  16
ATOM     16  C   UNL     1       3.256   5.722  17.705  0.00  0.00    +0.000 C 
BRANCH  16  17
ATOM     17  C   UNL     1       4.701   5.272  17.405  0.00  0.00    +0.000 A 
ATOM     18  C   UNL     1       5.066   4.790  16.136  0.00  0.00    +0.000 A 
ATOM     19  C   UNL     1       6.389   4.435  15.850  0.00  0.00    +0.000 A 
ATOM     20  C   UNL     1       7.361   4.491  16.845  0.00  0.00    +0.000 A 
ATOM     21  C   UNL     1       7.006   4.903  18.128  0.00  0.00    +0.000 A 
ATOM     22  C   UNL     1       5.694   5.309  18.399  0.00  0.00    +0.000 A 
ENDBRANCH  16  17
BRANCH  16  23
ATOM     23  C   UNL     1       2.486   4.641  18.491  0.00  0.00    +0.000 A 
ATOM     24  C   UNL     1       2.081   4.898  19.814  0.00  0.00    +0.000 A 
ATOM     25  C   UNL     1       1.179   4.049  20.472  0.00  0.00    +0.000 A 
ATOM     26  C   UNL     1       0.712   2.900  19.843  0.00  0.00    +0.000 A 
ATOM     27  C   UNL     1       1.201   2.562  18.583  0.00  0.00    +0.000 A 
ATOM     28  C   UNL     1       2.076   3.426  17.912  0.00  0.00    +0.000 A 
ENDBRANCH  16  23
ENDBRANCH   1  16
TORSDOF 6
ENDMDL
MODEL 4
REMARK VINA RESULT:      -8.7      0.311      1.367
REMARK  Name = 
REMARK  6 active torsions:
REMARK  status: ('A' for Active; 'I' for Inactive)
REMARK    1  A    between atoms: C_2  and  C_3
REMARK    2  A    between atoms: C_3  and  N_4
REMARK    3  A    between atoms: N_4  and  C_5
REMARK    4  A    between atoms: C_5  and  C_6
REMARK    5  A    between atoms: C_5  and  C_12
REMARK    6  A    between atoms: N_18  and  C_19
REMARK                            x       y       z     vdW  Elec       q    Type
REMARK                         _______ _______ _______ _____ _____    ______ ____
ROOT
ATOM      1  N   UNL     1       4.306   6.172  18.305  0.00  0.00    +0.000 NA
ATOM      2  H   UNL     1       3.879   5.675  17.521  0.00  0.00    +0.000 HD
ENDROOT
BRANCH   1   3
ATOM      3  C   UNL     1       5.566   5.488  18.654  0.00  0.00    +0.000 C 
BRANCH   3   5
ATOM      4  O   UNL     1       7.401   4.388  17.567  0.00  0.00    +0.000 OA
ATOM      5  C   UNL     1       6.341   4.976  17.427  0.00  0.00    +0.000 C 
ATOM      6  N   UNL     1       5.732   5.294  16.219  0.00  0.00    +0.000 N 
ATOM      7  H   UNL     1       4.988   5.986  16.245  0.00  0.00    +0.000 HD
BRANCH   6   8
ATOM      8  C   UNL     1       6.146   4.869  14.933  0.00  0.00    +0.000 A 
ATOM      9  C   UNL     1       5.478   3.877  14.203  0.00  0.00    +0.000 A 
ATOM     10  C   UNL     1       5.941   3.475  12.945  0.00  0.00    +0.000 A 
ATOM     11  C   UNL     1       7.073   4.072  12.407  0.00  0.00    +0.000 A 
ATOM     12  F   UNL     1       7.524   3.673  11.210  0.00  0.00    +0.000 F 
ATOM     13  C   UNL     1       7.726   5.078  13.108  0.00  0.00    +0.000 A 
ATOM     14  F   UNL     1       8.812   5.667  12.584  0.00  0.00    +0.000 F 
ATOM     15  C   UNL     1       7.265   5.487  14.359  0.00  0.00    +0.000 A 
ENDBRANCH   6   8
ENDBRANCH   3   5
ENDBRANCH   1   3
BRANCH   1  16
ATOM     16  C   UNL     1       3.312   6.217  19.398  0.00  0.00    +0.000 C 
BRANCH  16  17
ATOM     17  C   UNL     1       2.398   7.458  19.295  0.00  0.00    +0.000 A 
ATOM     18  C   UNL     1       2.251   8.156  18.084  0.00  0.00    +0.000 A 
ATOM     19  C   UNL     1       1.379   9.246  17.978  0.00  0.00    +0.000 A 
ATOM     20  C   UNL     1       0.687   9.701  19.097  0.00  0.00    +0.000 A 
ATOM     21  C   UNL     1       0.870   9.062  20.323  0.00  0.00    +0.000 A 
ATOM     22  C   UNL     1       1.701   7.940  20.415  0.00  0.00    +0.000 A 
ENDBRANCH  16  17
BRANCH  16  23
ATOM     23  C   UNL     1       2.483   4.919  19.480  0.00  0.00    +0.000 A 
ATOM     24  C   UNL     1       2.150   4.384  20.738  0.00  0.00    +0.000 A 
ATOM     25  C   UNL     1       1.205   3.356  20.860  0.00  0.00    +0.000 A 
ATOM     26  C   UNL     1       0.618   2.806  19.726  0.00  0.00    +0.000 A 
ATOM     27  C   UNL     1       1.029   3.235  18.464  0.00  0.00    +0.000 A 
ATOM     28  C   UNL     1       1.948   4.284  18.343  0.00  0.00    +0.000 A 
ENDBRANCH  16  23
ENDBRANCH   1  16
TORSDOF 6
ENDMDL
MODEL 5
REMARK VINA RESULT:      -8.6      4.798      8.323
REMARK  Name = 
REMARK  6 active torsions:
REMARK  status: ('A' for Active; 'I' for Inactive)
REMARK    1  A    between atoms: C_2  and  C_3
REMARK    2  A    between atoms: C_3  and  N_4
REMARK    3  A    between atoms: N_4  and  C_5
REMARK    4  A    between atoms: C_5  and  C_6
REMARK    5  A    between atoms: C_5  and  C_12
REMARK    6  A    between atoms: N_18  and  C_19
REMARK                            x       y       z     vdW  Elec       q    Type
REMARK                         _______ _______ _______ _____ _____    ______ ____
ROOT
ATOM      1  N   UNL     1       3.233   7.175  18.333  0.00  0.00    +0.000 NA
ATOM      2  H   UNL     1       2.771   7.083  19.241  0.00  0.00    +0.000 HD
ENDROOT
BRANCH   1   3
ATOM      3  C   UNL     1       2.494   8.174  17.539  0.00  0.00    +0.000 C 
BRANCH   3   5
ATOM      4  O   UNL     1       0.600   9.624  17.809  0.00  0.00    +0.000 OA
ATOM      5  C   UNL     1       1.472   8.975  18.365  0.00  0.00    +0.000 C 
ATOM      6  N   UNL     1       1.692   8.899  19.735  0.00  0.00    +0.000 N 
ATOM      7  H   UNL     1       2.586   8.524  20.039  0.00  0.00    +0.000 HD
BRANCH   6   8
ATOM      8  C   UNL     1       0.861   9.437  20.749  0.00  0.00    +0.000 A 
ATOM      9  C   UNL     1       0.207   8.644  21.701  0.00  0.00    +0.000 A 
ATOM     10  C   UNL     1      -0.624   9.222  22.670  0.00  0.00    +0.000 A 
ATOM     11  C   UNL     1      -0.795  10.600  22.694  0.00  0.00    +0.000 A 
ATOM     12  F   UNL     1      -1.603  11.148  23.611  0.00  0.00    +0.000 F 
ATOM     13  C   UNL     1      -0.127  11.397  21.773  0.00  0.00    +0.000 A 
ATOM     14  F   UNL     1      -0.279  12.730  21.804  0.00  0.00    +0.000 F 
ATOM     15  C   UNL     1       0.706  10.828  20.811  0.00  0.00    +0.000 A 
ENDBRANCH   6   8
ENDBRANCH   3   5
ENDBRANCH   1   3
BRANCH   1  16
ATOM     16  C   UNL     1       3.290   5.830  17.725  0.00  0.00    +0.000 C 
BRANCH  16  17
ATOM     17  C   UNL     1       4.743   5.367  17.483  0.00  0.00    +0.000 A 
ATOM     18  C   UNL     1       5.116   4.732  16.285  0.00  0.00    +0.000 A 
ATOM     19  C   UNL     1       6.444   4.364  16.045  0.00  0.00    +0.000 A 
ATOM     20  C   UNL     1       7.415   4.563  17.022  0.00  0.00    +0.000 A 
ATOM     21  C   UNL     1       7.052   5.132  18.242  0.00  0.00    +0.000 A 
ATOM     22  C   UNL     1       5.734   5.548  18.461  0.00  0.00    +0.000 A 
ENDBRANCH  16  17
BRANCH  16  23
ATOM     23  C   UNL     1       2.503   4.789  18.548  0.00  0.00    +0.000 A 
ATOM     24  C   UNL     1       2.216   5.045  19.902  0.00  0.00    +0.000 A 
ATOM     25  C   UNL     1       1.305   4.248  20.611  0.00  0.00    +0.000 A 
ATOM     26  C   UNL     1       0.711   3.150  20.000  0.00  0.00    +0.000 A 
ATOM     27  C   UNL     1       1.080   2.805  18.701  0.00  0.00    +0.000 A 
ATOM     28  C   UNL     1       1.964   3.619  17.981  0.00  0.00    +0.000 A 
ENDBRANCH  16  23
ENDBRANCH   1  16
TORSDOF 6
ENDMDL
MODEL 6
REMARK VINA RESULT:      -8.6      4.926      8.274
REMARK  Name = 
REMARK  6 active torsions:
REMARK  status: ('A' for Active; 'I' for Inactive)
REMARK    1  A    between atoms: C_2  and  C_3
REMARK    2  A    between atoms: C_3  and  N_4
REMARK    3  A    between atoms: N_4  and  C_5
REMARK    4  A    between atoms: C_5  and  C_6
REMARK    5  A    between atoms: C_5  and  C_12
REMARK    6  A    between atoms: N_18  and  C_19
REMARK                            x       y       z     vdW  Elec       q    Type
REMARK                         _______ _______ _______ _____ _____    ______ ____
ROOT
ATOM      1  N   UNL     1       3.195   7.375  18.556  0.00  0.00    +0.000 NA
ATOM      2  H   UNL     1       2.707   7.256  19.446  0.00  0.00    +0.000 HD
ENDROOT
BRANCH   1   3
ATOM      3  C   UNL     1       2.563   8.492  17.830  0.00  0.00    +0.000 C 
BRANCH   3   5
ATOM      4  O   UNL     1       1.197   8.912  19.758  0.00  0.00    +0.000 OA
ATOM      5  C   UNL     1       1.339   9.077  18.556  0.00  0.00    +0.000 C 
ATOM      6  N   UNL     1       0.457   9.733  17.706  0.00  0.00    +0.000 N 
ATOM      7  H   UNL     1       0.581   9.586  16.709  0.00  0.00    +0.000 HD
BRANCH   6   8
ATOM      8  C   UNL     1      -0.695  10.462  18.093  0.00  0.00    +0.000 A 
ATOM      9  C   UNL     1      -0.643  11.596  18.913  0.00  0.00    +0.000 A 
ATOM     10  C   UNL     1      -1.813  12.268  19.287  0.00  0.00    +0.000 A 
ATOM     11  C   UNL     1      -3.043  11.810  18.833  0.00  0.00    +0.000 A 
ATOM     12  F   UNL     1      -4.161  12.445  19.206  0.00  0.00    +0.000 F 
ATOM     13  C   UNL     1      -3.103  10.704  17.994  0.00  0.00    +0.000 A 
ATOM     14  F   UNL     1      -4.289  10.269  17.542  0.00  0.00    +0.000 F 
ATOM     15  C   UNL     1      -1.941  10.035  17.614  0.00  0.00    +0.000 A 
ENDBRANCH   6   8
ENDBRANCH   3   5
ENDBRANCH   1   3
BRANCH   1  16
ATOM     16  C   UNL     1       3.150   6.080  17.847  0.00  0.00    +0.000 C 
BRANCH  16  17
ATOM     17  C   UNL     1       4.563   5.510  17.594  0.00  0.00    +0.000 A 
ATOM     18  C   UNL     1       4.931   5.006  16.335  0.00  0.00    +0.000 A 
ATOM     19  C   UNL     1       6.229   4.542  16.093  0.00  0.00    +0.000 A 
ATOM     20  C   UNL     1       7.166   4.511  17.122  0.00  0.00    +0.000 A 
ATOM     21  C   UNL     1       6.800   4.946  18.395  0.00  0.00    +0.000 A 
ATOM     22  C   UNL     1       5.519   5.459  18.622  0.00  0.00    +0.000 A 
ENDBRANCH  16  17
BRANCH  16  23
ATOM     23  C   UNL     1       2.257   5.053  18.573  0.00  0.00    +0.000 A 
ATOM     24  C   UNL     1       1.759   3.941  17.868  0.00  0.00    +0.000 A 
ATOM     25  C   UNL     1       1.155   2.870  18.541  0.00  0.00    +0.000 A 
ATOM     26  C   UNL     1       0.984   2.916  19.920  0.00  0.00    +0.000 A 
ATOM     27  C   UNL     1       1.353   4.063  20.619  0.00  0.00    +0.000 A 
ATOM     28  C   UNL     1       1.988   5.119  19.953  0.00  0.00    +0.000 A 
ENDBRANCH  16  23
ENDBRANCH   1  16
TORSDOF 6
ENDMDL
MODEL 7
REMARK VINA RESULT:      -8.6      0.792      1.939
REMARK  Name = 
REMARK  6 active torsions:
REMARK  status: ('A' for Active; 'I' for Inactive)
REMARK    1  A    between atoms: C_2  and  C_3
REMARK    2  A    between atoms: C_3  and  N_4
REMARK    3  A    between atoms: N_4  and  C_5
REMARK    4  A    between atoms: C_5  and  C_6
REMARK    5  A    between atoms: C_5  and  C_12
REMARK    6  A    between atoms: N_18  and  C_19
REMARK                            x       y       z     vdW  Elec       q    Type
REMARK                         _______ _______ _______ _____ _____    ______ ____
ROOT
ATOM      1  N   UNL     1       4.307   5.900  18.130  0.00  0.00    +0.000 NA
ATOM      2  H   UNL     1       3.933   5.173  17.518  0.00  0.00    +0.000 HD
ENDROOT
BRANCH   1   3
ATOM      3  C   UNL     1       5.698   5.546  18.469  0.00  0.00    +0.000 C 
BRANCH   3   5
ATOM      4  O   UNL     1       7.714   4.836  17.377  0.00  0.00    +0.000 OA
ATOM      5  C   UNL     1       6.544   5.158  17.244  0.00  0.00    +0.000 C 
ATOM      6  N   UNL     1       5.853   5.262  16.043  0.00  0.00    +0.000 N 
ATOM      7  H   UNL     1       4.971   5.766  16.060  0.00  0.00    +0.000 HD
BRANCH   6   8
ATOM      8  C   UNL     1       6.327   4.873  14.765  0.00  0.00    +0.000 A 
ATOM      9  C   UNL     1       7.480   5.412  14.181  0.00  0.00    +0.000 A 
ATOM     10  C   UNL     1       7.895   5.011  12.905  0.00  0.00    +0.000 A 
ATOM     11  C   UNL     1       7.159   4.059  12.212  0.00  0.00    +0.000 A 
ATOM     12  F   UNL     1       7.549   3.690  10.984  0.00  0.00    +0.000 F 
ATOM     13  C   UNL     1       6.032   3.495  12.795  0.00  0.00    +0.000 A 
ATOM     14  F   UNL     1       5.327   2.564  12.133  0.00  0.00    +0.000 F 
ATOM     15  C   UNL     1       5.618   3.886  14.068  0.00  0.00    +0.000 A 
ENDBRANCH   6   8
ENDBRANCH   3   5
ENDBRANCH   1   3
BRANCH   1  16
ATOM     16  C   UNL     1       3.403   6.011  19.294  0.00  0.00    +0.000 C 
BRANCH  16  17
ATOM     17  C   UNL     1       2.529   7.282  19.226  0.00  0.00    +0.000 A 
ATOM     18  C   UNL     1       2.405   8.019  18.035  0.00  0.00    +0.000 A 
ATOM     19  C   UNL     1       1.569   9.139  17.960  0.00  0.00    +0.000 A 
ATOM     20  C   UNL     1       0.890   9.583  19.092  0.00  0.00    +0.000 A 
ATOM     21  C   UNL     1       1.051   8.905  20.299  0.00  0.00    +0.000 A 
ATOM     22  C   UNL     1       1.846   7.754  20.359  0.00  0.00    +0.000 A 
ENDBRANCH  16  17
BRANCH  16  23
ATOM     23  C   UNL     1       2.537   4.748  19.476  0.00  0.00    +0.000 A 
ATOM     24  C   UNL     1       2.335   4.223  20.766  0.00  0.00    +0.000 A 
ATOM     25  C   UNL     1       1.369   3.234  21.001  0.00  0.00    +0.000 A 
ATOM     26  C   UNL     1       0.629   2.712  19.946  0.00  0.00    +0.000 A 
ATOM     27  C   UNL     1       0.904   3.128  18.644  0.00  0.00    +0.000 A 
ATOM     28  C   UNL     1       1.845   4.139  18.413  0.00  0.00    +0.000 A 
ENDBRANCH  16  23
ENDBRANCH   1  16
TORSDOF 6
ENDMDL
MODEL 8
REMARK VINA RESULT:      -8.5      5.019      8.542
REMARK  Name = 
REMARK  6 active torsions:
REMARK  status: ('A' for Active; 'I' for Inactive)
REMARK    1  A    between atoms: C_2  and  C_3
REMARK    2  A    between atoms: C_3  and  N_4
REMARK    3  A    between atoms: N_4  and  C_5
REMARK    4  A    between atoms: C_5  and  C_6
REMARK    5  A    between atoms: C_5  and  C_12
REMARK    6  A    between atoms: N_18  and  C_19
REMARK                            x       y       z     vdW  Elec       q    Type
REMARK                         _______ _______ _______ _____ _____    ______ ____
ROOT
ATOM      1  N   UNL     1       2.448   7.355  17.631  0.00  0.00    +0.000 NA
ATOM      2  H   UNL     1       2.819   7.237  16.686  0.00  0.00    +0.000 HD
ENDROOT
BRANCH   1   3
ATOM      3  C   UNL     1       2.520   8.786  17.979  0.00  0.00    +0.000 C 
BRANCH   3   5
ATOM      4  O   UNL     1       1.084   9.119  19.874  0.00  0.00    +0.000 OA
ATOM      5  C   UNL     1       1.253   9.307  18.679  0.00  0.00    +0.000 C 
ATOM      6  N   UNL     1       0.367   9.939  17.814  0.00  0.00    +0.000 N 
ATOM      7  H   UNL     1       0.525   9.812  16.819  0.00  0.00    +0.000 HD
BRANCH   6   8
ATOM      8  C   UNL     1      -0.825  10.612  18.178  0.00  0.00    +0.000 A 
ATOM      9  C   UNL     1      -0.840  11.753  18.991  0.00  0.00    +0.000 A 
ATOM     10  C   UNL     1      -2.048  12.369  19.343  0.00  0.00    +0.000 A 
ATOM     11  C   UNL     1      -3.246  11.849  18.873  0.00  0.00    +0.000 A 
ATOM     12  F   UNL     1      -4.401  12.431  19.224  0.00  0.00    +0.000 F 
ATOM     13  C   UNL     1      -3.240  10.737  18.041  0.00  0.00    +0.000 A 
ATOM     14  F   UNL     1      -4.396  10.241  17.573  0.00  0.00    +0.000 F 
ATOM     15  C   UNL     1      -2.040  10.123  17.682  0.00  0.00    +0.000 A 
ENDBRANCH   6   8
ENDBRANCH   3   5
ENDBRANCH   1   3
BRANCH   1  16
ATOM     16  C   UNL     1       3.220   6.467  18.525  0.00  0.00    +0.000 C 
BRANCH  16  17
ATOM     17  C   UNL     1       2.398   5.236  18.966  0.00  0.00    +0.000 A 
ATOM     18  C   UNL     1       2.078   5.020  20.317  0.00  0.00    +0.000 A 
ATOM     19  C   UNL     1       1.286   3.934  20.709  0.00  0.00    +0.000 A 
ATOM     20  C   UNL     1       0.853   3.007  19.765  0.00  0.00    +0.000 A 
ATOM     21  C   UNL     1       1.215   3.168  18.429  0.00  0.00    +0.000 A 
ATOM     22  C   UNL     1       1.962   4.282  18.032  0.00  0.00    +0.000 A 
ENDBRANCH  16  17
BRANCH  16  23
ATOM     23  C   UNL     1       4.565   6.044  17.901  0.00  0.00    +0.000 A 
ATOM     24  C   UNL     1       5.524   5.384  18.692  0.00  0.00    +0.000 A 
ATOM     25  C   UNL     1       6.644   4.773  18.112  0.00  0.00    +0.000 A 
ATOM     26  C   UNL     1       6.858   4.859  16.741  0.00  0.00    +0.000 A 
ATOM     27  C   UNL     1       5.988   5.616  15.958  0.00  0.00    +0.000 A 
ATOM     28  C   UNL     1       4.852   6.199  16.532  0.00  0.00    +0.000 A 
ENDBRANCH  16  23
ENDBRANCH   1  16
TORSDOF 6
ENDMDL
MODEL 9
REMARK VINA RESULT:      -8.4      4.785      8.265
REMARK  Name = 
REMARK  6 active torsions:
REMARK  status: ('A' for Active; 'I' for Inactive)
REMARK    1  A    between atoms: C_2  and  C_3
REMARK    2  A    between atoms: C_3  and  N_4
REMARK    3  A    between atoms: N_4  and  C_5
REMARK    4  A    between atoms: C_5  and  C_6
REMARK    5  A    between atoms: C_5  and  C_12
REMARK    6  A    between atoms: N_18  and  C_19
REMARK                            x       y       z     vdW  Elec       q    Type
REMARK                         _______ _______ _______ _____ _____    ______ ____
ROOT
ATOM      1  N   UNL     1       3.126   6.797  18.480  0.00  0.00    +0.000 NA
ATOM      2  H   UNL     1       2.482   6.702  19.268  0.00  0.00    +0.000 HD
ENDROOT
BRANCH   1   3
ATOM      3  C   UNL     1       2.673   7.926  17.647  0.00  0.00    +0.000 C 
BRANCH   3   5
ATOM      4  O   UNL     1       1.657  10.081  17.938  0.00  0.00    +0.000 OA
ATOM      5  C   UNL     1       1.893   8.992  18.437  0.00  0.00    +0.000 C 
ATOM      6  N   UNL     1       1.558   8.587  19.724  0.00  0.00    +0.000 N 
ATOM      7  H   UNL     1       2.022   7.758  20.082  0.00  0.00    +0.000 HD
BRANCH   6   8
ATOM      8  C   UNL     1       0.752   9.302  20.645  0.00  0.00    +0.000 A 
ATOM      9  C   UNL     1      -0.126  10.323  20.260  0.00  0.00    +0.000 A 
ATOM     10  C   UNL     1      -0.884  11.016  21.212  0.00  0.00    +0.000 A 
ATOM     11  C   UNL     1      -0.771  10.682  22.555  0.00  0.00    +0.000 A 
ATOM     12  F   UNL     1      -1.485  11.358  23.465  0.00  0.00    +0.000 F 
ATOM     13  C   UNL     1       0.074   9.650  22.944  0.00  0.00    +0.000 A 
ATOM     14  F   UNL     1       0.173   9.316  24.240  0.00  0.00    +0.000 F 
ATOM     15  C   UNL     1       0.826   8.952  21.999  0.00  0.00    +0.000 A 
ENDBRANCH   6   8
ENDBRANCH   3   5
ENDBRANCH   1   3
BRANCH   1  16
ATOM     16  C   UNL     1       3.166   5.496  17.780  0.00  0.00    +0.000 C 
BRANCH  16  17
ATOM     17  C   UNL     1       4.581   5.163  17.261  0.00  0.00    +0.000 A 
ATOM     18  C   UNL     1       5.715   5.827  17.760  0.00  0.00    +0.000 A 
ATOM     19  C   UNL     1       7.002   5.485  17.330  0.00  0.00    +0.000 A 
ATOM     20  C   UNL     1       7.177   4.517  16.345  0.00  0.00    +0.000 A 
ATOM     21  C   UNL     1       6.061   3.893  15.790  0.00  0.00    +0.000 A 
ATOM     22  C   UNL     1       4.778   4.199  16.259  0.00  0.00    +0.000 A 
ENDBRANCH  16  17
BRANCH  16  23
ATOM     23  C   UNL     1       2.607   4.353  18.651  0.00  0.00    +0.000 A 
ATOM     24  C   UNL     1       3.299   3.960  19.812  0.00  0.00    +0.000 A 
ATOM     25  C   UNL     1       2.708   3.103  20.751  0.00  0.00    +0.000 A 
ATOM     26  C   UNL     1       1.442   2.578  20.521  0.00  0.00    +0.000 A 
ATOM     27  C   UNL     1       0.794   2.853  19.318  0.00  0.00    +0.000 A 
ATOM     28  C   UNL     1       1.369   3.735  18.395  0.00  0.00    +0.000 A 
ENDBRANCH  16  23
ENDBRANCH   1  16
TORSDOF 6
ENDMDL
