MODEL 1
REMARK VINA RESULT:      -9.3      0.000      0.000
REMARK  Name = 
REMARK  6 active torsions:
REMARK  status: ('A' for Active; 'I' for Inactive)
REMARK    1  A    between atoms: C_1  and  C_2
REMARK    2  A    between atoms: C_5  and  C_6
REMARK    3  A    between atoms: C_9  and  N_10
REMARK    4  A    between atoms: C_11  and  C_13
REMARK    5  A    between atoms: C_17  and  C_18
REMARK    6  A    between atoms: C_18  and  N_19
REMARK                            x       y       z     vdW  Elec       q    Type
REMARK                         _______ _______ _______ _____ _____    ______ ____
ROOT
ATOM      1  N   UNL     1       1.950   7.757  19.856  0.00  0.00    +0.000 N 
ATOM      2  C   UNL     1       2.208   7.795  18.499  0.00  0.00    +0.000 C 
ATOM      3  O   UNL     1       1.855   8.662  17.706  0.00  0.00    +0.000 OA
ATOM      4  H   UNL     1       2.322   6.991  20.405  0.00  0.00    +0.000 HD
ENDROOT
BRANCH   1   8
ATOM      5  C   UNL     1      -0.288  10.660  21.979  0.00  0.00    +0.000 A 
ATOM      6  C   UNL     1      -0.041  10.824  20.618  0.00  0.00    +0.000 A 
ATOM      7  C   UNL     1       0.676   9.866  19.915  0.00  0.00    +0.000 A 
ATOM      8  C   UNL     1       1.170   8.718  20.542  0.00  0.00    +0.000 A 
ATOM      9  C   UNL     1       0.887   8.526  21.898  0.00  0.00    +0.000 A 
ATOM     10  C   UNL     1       0.171   9.499  22.615  0.00  0.00    +0.000 A 
BRANCH   5  15
ATOM     11  C   UNL     1      -1.336  15.089  23.706  0.00  0.00    +0.000 C 
ATOM     12  C   UNL     1      -1.443  13.643  23.453  0.00  0.00    +0.000 A 
ATOM     13  N   UNL     1      -2.586  12.960  23.573  0.00  0.00    +0.000 NA
ATOM     14  N   UNL     1      -2.211  11.749  23.133  0.00  0.00    +0.000 N 
ATOM     15  C   UNL     1      -0.907  11.741  22.718  0.00  0.00    +0.000 A 
ATOM     16  N   UNL     1      -0.377  12.918  22.989  0.00  0.00    +0.000 NA
ATOM     17  H   UNL     1      -2.897  11.007  23.075  0.00  0.00    +0.000 HD
ENDBRANCH   5  15
ENDBRANCH   1   8
BRANCH   2  18
ATOM     18  C   UNL     1       2.972   6.678  17.913  0.00  0.00    +0.000 A 
ATOM     19  C   UNL     1       4.345   6.915  17.755  0.00  0.00    +0.000 A 
ATOM     20  C   UNL     1       5.195   5.876  17.408  0.00  0.00    +0.000 A 
ATOM     21  C   UNL     1       4.670   4.605  17.213  0.00  0.00    +0.000 A 
ATOM     22  C   UNL     1       3.289   4.346  17.327  0.00  0.00    +0.000 A 
ATOM     23  C   UNL     1       2.435   5.403  17.691  0.00  0.00    +0.000 A 
BRANCH  22  24
ATOM     24  C   UNL     1       2.799   2.920  17.172  0.00  0.00    +0.000 C 
BRANCH  24  25
ATOM     25  N   UNL     1       2.459   2.164  18.378  0.00  0.00    +0.000 NA
ATOM     26  C   UNL     1       1.111   2.241  18.925  0.00  0.00    +0.000 C 
ATOM     27  C   UNL     1       0.829   3.392  19.876  0.00  0.00    +0.000 C 
ATOM     28  S   UNL     1       2.118   3.652  21.072  0.00  0.00    +0.000 S 
ATOM     29  O   UNL     1       2.161   5.073  21.371  0.00  0.00    +0.000 OA
ATOM     30  O   UNL     1       1.931   2.686  22.140  0.00  0.00    +0.000 OA
ATOM     31  C   UNL     1       3.641   3.253  20.258  0.00  0.00    +0.000 C 
ATOM     32  C   UNL     1       3.489   2.027  19.395  0.00  0.00    +0.000 C 
ENDBRANCH  24  25
ENDBRANCH  22  24
ENDBRANCH   2  18
TORSDOF 5
ENDMDL
MODEL 2
REMARK VINA RESULT:      -9.1      0.606      1.060
REMARK  Name = 
REMARK  6 active torsions:
REMARK  status: ('A' for Active; 'I' for Inactive)
REMARK    1  A    between atoms: C_1  and  C_2
REMARK    2  A    between atoms: C_5  and  C_6
REMARK    3  A    between atoms: C_9  and  N_10
REMARK    4  A    between atoms: C_11  and  C_13
REMARK    5  A    between atoms: C_17  and  C_18
REMARK    6  A    between atoms: C_18  and  N_19
REMARK                            x       y       z     vdW  Elec       q    Type
REMARK                         _______ _______ _______ _____ _____    ______ ____
ROOT
ATOM      1  N   UNL     1       2.097   7.606  19.535  0.00  0.00    +0.000 N 
ATOM      2  C   UNL     1       2.629   7.689  18.263  0.00  0.00    +0.000 C 
ATOM      3  O   UNL     1       2.630   8.671  17.527  0.00  0.00    +0.000 OA
ATOM      4  H   UNL     1       2.185   6.736  20.047  0.00  0.00    +0.000 HD
ENDROOT
BRANCH   1   8
ATOM      5  C   UNL     1      -0.076  10.725  21.401  0.00  0.00    +0.000 A 
ATOM      6  C   UNL     1       0.528   9.736  22.171  0.00  0.00    +0.000 A 
ATOM      7  C   UNL     1       1.256   8.722  21.564  0.00  0.00    +0.000 A 
ATOM      8  C   UNL     1       1.406   8.661  20.176  0.00  0.00    +0.000 A 
ATOM      9  C   UNL     1       0.839   9.677  19.400  0.00  0.00    +0.000 A 
ATOM     10  C   UNL     1       0.091  10.698  20.010  0.00  0.00    +0.000 A 
BRANCH   5  15
ATOM     11  C   UNL     1      -1.703  14.408  24.138  0.00  0.00    +0.000 C 
ATOM     12  C   UNL     1      -1.703  13.303  23.166  0.00  0.00    +0.000 A 
ATOM     13  N   UNL     1      -2.619  13.179  22.199  0.00  0.00    +0.000 NA
ATOM     14  N   UNL     1      -2.137  12.124  21.523  0.00  0.00    +0.000 N 
ATOM     15  C   UNL     1      -0.952  11.683  22.045  0.00  0.00    +0.000 A 
ATOM     16  N   UNL     1      -0.699  12.371  23.142  0.00  0.00    +0.000 NA
ATOM     17  H   UNL     1      -2.617  11.806  20.690  0.00  0.00    +0.000 HD
ENDBRANCH   5  15
ENDBRANCH   1   8
BRANCH   2  18
ATOM     18  C   UNL     1       3.254   6.479  17.697  0.00  0.00    +0.000 A 
ATOM     19  C   UNL     1       4.621   6.594  17.408  0.00  0.00    +0.000 A 
ATOM     20  C   UNL     1       5.357   5.470  17.067  0.00  0.00    +0.000 A 
ATOM     21  C   UNL     1       4.725   4.235  17.010  0.00  0.00    +0.000 A 
ATOM     22  C   UNL     1       3.344   4.095  17.258  0.00  0.00    +0.000 A 
ATOM     23  C   UNL     1       2.606   5.239  17.614  0.00  0.00    +0.000 A 
BRANCH  22  24
ATOM     24  C   UNL     1       2.739   2.706  17.250  0.00  0.00    +0.000 C 
BRANCH  24  25
ATOM     25  N   UNL     1       2.457   2.059  18.532  0.00  0.00    +0.000 NA
ATOM     26  C   UNL     1       1.123   2.144  19.109  0.00  0.00    +0.000 C 
ATOM     27  C   UNL     1       0.826   3.372  19.954  0.00  0.00    +0.000 C 
ATOM     28  S   UNL     1       2.136   3.788  21.081  0.00  0.00    +0.000 S 
ATOM     29  O   UNL     1       2.137   5.232  21.241  0.00  0.00    +0.000 OA
ATOM     30  O   UNL     1       2.012   2.924  22.241  0.00  0.00    +0.000 OA
ATOM     31  C   UNL     1       3.650   3.362  20.264  0.00  0.00    +0.000 C 
ATOM     32  C   UNL     1       3.518   2.054  19.526  0.00  0.00    +0.000 C 
ENDBRANCH  24  25
ENDBRANCH  22  24
ENDBRANCH   2  18
TORSDOF 5
ENDMDL
MODEL 3
REMARK VINA RESULT:      -8.7      1.846      2.154
REMARK  Name = 
REMARK  6 active torsions:
REMARK  status: ('A' for Active; 'I' for Inactive)
REMARK    1  A    between atoms: C_1  and  C_2
REMARK    2  A    between atoms: C_5  and  C_6
REMARK    3  A    between atoms: C_9  and  N_10
REMARK    4  A    between atoms: C_11  and  C_13
REMARK    5  A    between atoms: C_17  and  C_18
REMARK    6  A    between atoms: C_18  and  N_19
REMARK                            x       y       z     vdW  Elec       q    Type
REMARK                         _______ _______ _______ _____ _____    ______ ____
ROOT
ATOM      1  N   UNL     1       1.628   8.737  17.732  0.00  0.00    +0.000 N 
ATOM      2  C   UNL     1       2.193   7.788  18.562  0.00  0.00    +0.000 C 
ATOM      3  O   UNL     1       2.181   7.783  19.789  0.00  0.00    +0.000 OA
ATOM      4  H   UNL     1       1.690   8.609  16.728  0.00  0.00    +0.000 HD
ENDROOT
BRANCH   1   8
ATOM      5  C   UNL     1      -0.368  12.173  19.195  0.00  0.00    +0.000 A 
ATOM      6  C   UNL     1       1.023  12.126  19.180  0.00  0.00    +0.000 A 
ATOM      7  C   UNL     1       1.681  11.009  18.684  0.00  0.00    +0.000 A 
ATOM      8  C   UNL     1       0.977   9.907  18.190  0.00  0.00    +0.000 A 
ATOM      9  C   UNL     1      -0.419   9.967  18.162  0.00  0.00    +0.000 A 
ATOM     10  C   UNL     1      -1.088  11.091  18.674  0.00  0.00    +0.000 A 
BRANCH   5  15
ATOM     11  C   UNL     1      -2.198  15.106  22.623  0.00  0.00    +0.000 C 
ATOM     12  C   UNL     1      -1.786  14.619  21.297  0.00  0.00    +0.000 A 
ATOM     13  N   UNL     1      -1.543  15.429  20.261  0.00  0.00    +0.000 NA
ATOM     14  N   UNL     1      -1.096  14.553  19.348  0.00  0.00    +0.000 N 
ATOM     15  C   UNL     1      -1.028  13.283  19.852  0.00  0.00    +0.000 A 
ATOM     16  N   UNL     1      -1.540  13.291  21.068  0.00  0.00    +0.000 NA
ATOM     17  H   UNL     1      -0.792  14.891  18.443  0.00  0.00    +0.000 HD
ENDBRANCH   5  15
ENDBRANCH   1   8
BRANCH   2  18
ATOM     18  C   UNL     1       2.907   6.661  17.934  0.00  0.00    +0.000 A 
ATOM     19  C   UNL     1       4.281   6.861  17.740  0.00  0.00    +0.000 A 
ATOM     20  C   UNL     1       5.089   5.804  17.350  0.00  0.00    +0.000 A 
ATOM     21  C   UNL     1       4.522   4.553  17.148  0.00  0.00    +0.000 A 
ATOM     22  C   UNL     1       3.137   4.332  17.298  0.00  0.00    +0.000 A 
ATOM     23  C   UNL     1       2.325   5.407  17.705  0.00  0.00    +0.000 A 
BRANCH  22  24
ATOM     24  C   UNL     1       2.601   2.924  17.133  0.00  0.00    +0.000 C 
BRANCH  24  25
ATOM     25  N   UNL     1       2.291   2.149  18.335  0.00  0.00    +0.000 NA
ATOM     26  C   UNL     1       0.981   2.272  18.959  0.00  0.00    +0.000 C 
ATOM     27  C   UNL     1       0.807   3.407  19.954  0.00  0.00    +0.000 C 
ATOM     28  S   UNL     1       2.170   3.571  21.083  0.00  0.00    +0.000 S 
ATOM     29  O   UNL     1       2.297   4.979  21.417  0.00  0.00    +0.000 OA
ATOM     30  O   UNL     1       1.996   2.584  22.133  0.00  0.00    +0.000 OA
ATOM     31  C   UNL     1       3.625   3.126  20.175  0.00  0.00    +0.000 C 
ATOM     32  C   UNL     1       3.368   1.935  19.288  0.00  0.00    +0.000 C 
ENDBRANCH  24  25
ENDBRANCH  22  24
ENDBRANCH   2  18
TORSDOF 5
ENDMDL
MODEL 4
REMARK VINA RESULT:      -8.5      4.475     10.534
REMARK  Name = 
REMARK  6 active torsions:
REMARK  status: ('A' for Active; 'I' for Inactive)
REMARK    1  A    between atoms: C_1  and  C_2
REMARK    2  A    between atoms: C_5  and  C_6
REMARK    3  A    between atoms: C_9  and  N_10
REMARK    4  A    between atoms: C_11  and  C_13
REMARK    5  A    between atoms: C_17  and  C_18
REMARK    6  A    between atoms: C_18  and  N_19
REMARK                            x       y       z     vdW  Elec       q    Type
REMARK                         _______ _______ _______ _____ _____    ______ ____
ROOT
ATOM      1  N   UNL     1       1.988   7.595  19.631  0.00  0.00    +0.000 N 
ATOM      2  C   UNL     1       1.271   8.766  19.474  0.00  0.00    +0.000 C 
ATOM      3  O   UNL     1       1.191   9.450  18.458  0.00  0.00    +0.000 OA
ATOM      4  H   UNL     1       1.950   7.114  20.522  0.00  0.00    +0.000 HD
ENDROOT
BRANCH   1   8
ATOM      5  C   UNL     1       4.525   5.922  16.682  0.00  0.00    +0.000 A 
ATOM      6  C   UNL     1       3.726   5.096  17.467  0.00  0.00    +0.000 A 
ATOM      7  C   UNL     1       2.880   5.642  18.423  0.00  0.00    +0.000 A 
ATOM      8  C   UNL     1       2.802   7.023  18.626  0.00  0.00    +0.000 A 
ATOM      9  C   UNL     1       3.569   7.860  17.809  0.00  0.00    +0.000 A 
ATOM     10  C   UNL     1       4.435   7.310  16.850  0.00  0.00    +0.000 A 
BRANCH   5  15
ATOM     11  C   UNL     1       6.586   3.693  12.875  0.00  0.00    +0.000 C 
ATOM     12  C   UNL     1       6.458   4.415  14.152  0.00  0.00    +0.000 A 
ATOM     13  N   UNL     1       7.443   5.148  14.681  0.00  0.00    +0.000 NA
ATOM     14  N   UNL     1       6.823   5.685  15.743  0.00  0.00    +0.000 N 
ATOM     15  C   UNL     1       5.505   5.322  15.800  0.00  0.00    +0.000 A 
ATOM     16  N   UNL     1       5.274   4.448  14.840  0.00  0.00    +0.000 NA
ATOM     17  H   UNL     1       7.325   6.335  16.336  0.00  0.00    +0.000 HD
ENDBRANCH   5  15
ENDBRANCH   1   8
BRANCH   2  18
ATOM     18  C   UNL     1       0.529   9.281  20.640  0.00  0.00    +0.000 A 
ATOM     19  C   UNL     1       0.859   8.685  21.866  0.00  0.00    +0.000 A 
ATOM     20  C   UNL     1       0.381   9.222  23.050  0.00  0.00    +0.000 A 
ATOM     21  C   UNL     1      -0.431  10.347  23.008  0.00  0.00    +0.000 A 
ATOM     22  C   UNL     1      -0.811  10.944  21.788  0.00  0.00    +0.000 A 
ATOM     23  C   UNL     1      -0.313  10.400  20.591  0.00  0.00    +0.000 A 
BRANCH  22  24
ATOM     24  C   UNL     1      -1.640  12.212  21.824  0.00  0.00    +0.000 C 
BRANCH  24  25
ATOM     25  N   UNL     1      -2.056  12.738  23.125  0.00  0.00    +0.000 NA
ATOM     26  C   UNL     1      -3.410  12.500  23.604  0.00  0.00    +0.000 C 
ATOM     27  C   UNL     1      -4.474  13.485  23.151  0.00  0.00    +0.000 C 
ATOM     28  S   UNL     1      -3.954  15.182  23.252  0.00  0.00    +0.000 S 
ATOM     29  O   UNL     1      -4.618  15.910  22.185  0.00  0.00    +0.000 OA
ATOM     30  O   UNL     1      -4.103  15.609  24.631  0.00  0.00    +0.000 OA
ATOM     31  C   UNL     1      -2.221  15.195  22.879  0.00  0.00    +0.000 C 
ATOM     32  C   UNL     1      -1.519  14.028  23.527  0.00  0.00    +0.000 C 
ENDBRANCH  24  25
ENDBRANCH  22  24
ENDBRANCH   2  18
TORSDOF 5
ENDMDL
MODEL 5
REMARK VINA RESULT:      -8.5      2.553      4.135
REMARK  Name = 
REMARK  6 active torsions:
REMARK  status: ('A' for Active; 'I' for Inactive)
REMARK    1  A    between atoms: C_1  and  C_2
REMARK    2  A    between atoms: C_5  and  C_6
REMARK    3  A    between atoms: C_9  and  N_10
REMARK    4  A    between atoms: C_11  and  C_13
REMARK    5  A    between atoms: C_17  and  C_18
REMARK    6  A    between atoms: C_18  and  N_19
REMARK                            x       y       z     vdW  Elec       q    Type
REMARK                         _______ _______ _______ _____ _____    ______ ____
ROOT
ATOM      1  N   UNL     1      -0.985  10.929  20.644  0.00  0.00    +0.000 N 
ATOM      2  C   UNL     1       0.377  10.709  20.713  0.00  0.00    +0.000 C 
ATOM      3  O   UNL     1       1.182  11.296  21.430  0.00  0.00    +0.000 OA
ATOM      4  H   UNL     1      -1.543  10.355  20.021  0.00  0.00    +0.000 HD
ENDROOT
BRANCH   1   8
ATOM      5  C   UNL     1      -3.128  13.887  22.786  0.00  0.00    +0.000 A 
ATOM      6  C   UNL     1      -2.400  12.917  23.471  0.00  0.00    +0.000 A 
ATOM      7  C   UNL     1      -1.682  11.957  22.772  0.00  0.00    +0.000 A 
ATOM      8  C   UNL     1      -1.665  11.932  21.374  0.00  0.00    +0.000 A 
ATOM      9  C   UNL     1      -2.358  12.930  20.682  0.00  0.00    +0.000 A 
ATOM     10  C   UNL     1      -3.095  13.896  21.386  0.00  0.00    +0.000 A 
BRANCH   5  15
ATOM     11  C   UNL     1      -4.731  17.693  25.364  0.00  0.00    +0.000 C 
ATOM     12  C   UNL     1      -4.748  16.434  24.602  0.00  0.00    +0.000 A 
ATOM     13  N   UNL     1      -5.842  15.957  23.998  0.00  0.00    +0.000 NA
ATOM     14  N   UNL     1      -5.338  14.892  23.357  0.00  0.00    +0.000 N 
ATOM     15  C   UNL     1      -3.986  14.783  23.535  0.00  0.00    +0.000 A 
ATOM     16  N   UNL     1      -3.604  15.710  24.392  0.00  0.00    +0.000 NA
ATOM     17  H   UNL     1      -5.944  14.333  22.768  0.00  0.00    +0.000 HD
ENDBRANCH   5  15
ENDBRANCH   1   8
BRANCH   2  18
ATOM     18  C   UNL     1       0.954   9.678  19.831  0.00  0.00    +0.000 A 
ATOM     19  C   UNL     1       1.242  10.104  18.527  0.00  0.00    +0.000 A 
ATOM     20  C   UNL     1       1.970   9.289  17.674  0.00  0.00    +0.000 A 
ATOM     21  C   UNL     1       2.402   8.047  18.123  0.00  0.00    +0.000 A 
ATOM     22  C   UNL     1       2.093   7.577  19.416  0.00  0.00    +0.000 A 
ATOM     23  C   UNL     1       1.364   8.415  20.279  0.00  0.00    +0.000 A 
BRANCH  22  24
ATOM     24  C   UNL     1       2.660   6.245  19.862  0.00  0.00    +0.000 C 
BRANCH  24  25
ATOM     25  N   UNL     1       2.229   5.033  19.162  0.00  0.00    +0.000 NA
ATOM     26  C   UNL     1       1.593   3.955  19.906  0.00  0.00    +0.000 C 
ATOM     27  C   UNL     1       2.518   2.942  20.558  0.00  0.00    +0.000 C 
ATOM     28  S   UNL     1       3.845   2.413  19.501  0.00  0.00    +0.000 S 
ATOM     29  O   UNL     1       4.990   2.120  20.344  0.00  0.00    +0.000 OA
ATOM     30  O   UNL     1       3.320   1.400  18.604  0.00  0.00    +0.000 OA
ATOM     31  C   UNL     1       4.283   3.818  18.512  0.00  0.00    +0.000 C 
ATOM     32  C   UNL     1       3.056   4.567  18.061  0.00  0.00    +0.000 C 
ENDBRANCH  24  25
ENDBRANCH  22  24
ENDBRANCH   2  18
TORSDOF 5
ENDMDL
MODEL 6
REMARK VINA RESULT:      -8.5      3.804      4.804
REMARK  Name = 
REMARK  6 active torsions:
REMARK  status: ('A' for Active; 'I' for Inactive)
REMARK    1  A    between atoms: C_1  and  C_2
REMARK    2  A    between atoms: C_5  and  C_6
REMARK    3  A    between atoms: C_9  and  N_10
REMARK    4  A    between atoms: C_11  and  C_13
REMARK    5  A    between atoms: C_17  and  C_18
REMARK    6  A    between atoms: C_18  and  N_19
REMARK                            x       y       z     vdW  Elec       q    Type
REMARK                         _______ _______ _______ _____ _____    ______ ____
ROOT
ATOM      1  N   UNL     1       1.187  10.433  20.103  0.00  0.00    +0.000 N 
ATOM      2  C   UNL     1       1.545   9.635  19.033  0.00  0.00    +0.000 C 
ATOM      3  O   UNL     1       1.601   9.967  17.853  0.00  0.00    +0.000 OA
ATOM      4  H   UNL     1       1.205  10.037  21.036  0.00  0.00    +0.000 HD
ENDROOT
BRANCH   1   8
ATOM      5  C   UNL     1      -0.053  14.454  19.625  0.00  0.00    +0.000 A 
ATOM      6  C   UNL     1      -0.924  13.513  20.167  0.00  0.00    +0.000 A 
ATOM      7  C   UNL     1      -0.515  12.198  20.342  0.00  0.00    +0.000 A 
ATOM      8  C   UNL     1       0.770  11.779  19.984  0.00  0.00    +0.000 A 
ATOM      9  C   UNL     1       1.663  12.729  19.480  0.00  0.00    +0.000 A 
ATOM     10  C   UNL     1       1.249  14.058  19.291  0.00  0.00    +0.000 A 
BRANCH   5  15
ATOM     11  C   UNL     1      -0.988  18.628  17.302  0.00  0.00    +0.000 C 
ATOM     12  C   UNL     1      -1.036  17.580  18.333  0.00  0.00    +0.000 A 
ATOM     13  N   UNL     1      -2.053  17.442  19.191  0.00  0.00    +0.000 NA
ATOM     14  N   UNL     1      -1.704  16.312  19.825  0.00  0.00    +0.000 N 
ATOM     15  C   UNL     1      -0.551  15.779  19.316  0.00  0.00    +0.000 A 
ATOM     16  N   UNL     1      -0.068  16.615  18.418  0.00  0.00    +0.000 NA
ATOM     17  H   UNL     1      -2.319  15.928  20.532  0.00  0.00    +0.000 HD
ENDBRANCH   5  15
ENDBRANCH   1   8
BRANCH   2  18
ATOM     18  C   UNL     1       1.882   8.226  19.308  0.00  0.00    +0.000 A 
ATOM     19  C   UNL     1       1.365   7.712  20.505  0.00  0.00    +0.000 A 
ATOM     20  C   UNL     1       1.443   6.354  20.770  0.00  0.00    +0.000 A 
ATOM     21  C   UNL     1       2.043   5.513  19.842  0.00  0.00    +0.000 A 
ATOM     22  C   UNL     1       2.607   6.007  18.648  0.00  0.00    +0.000 A 
ATOM     23  C   UNL     1       2.514   7.386  18.381  0.00  0.00    +0.000 A 
BRANCH  22  24
ATOM     24  C   UNL     1       3.180   5.021  17.650  0.00  0.00    +0.000 C 
BRANCH  24  25
ATOM     25  N   UNL     1       4.376   4.266  18.023  0.00  0.00    +0.000 NA
ATOM     26  C   UNL     1       5.298   4.809  19.011  0.00  0.00    +0.000 C 
ATOM     27  C   UNL     1       6.367   5.756  18.493  0.00  0.00    +0.000 C 
ATOM     28  S   UNL     1       7.150   5.191  17.001  0.00  0.00    +0.000 S 
ATOM     29  O   UNL     1       7.521   6.362  16.227  0.00  0.00    +0.000 OA
ATOM     30  O   UNL     1       8.155   4.211  17.373  0.00  0.00    +0.000 OA
ATOM     31  C   UNL     1       5.900   4.340  16.075  0.00  0.00    +0.000 C 
ATOM     32  C   UNL     1       5.035   3.498  16.978  0.00  0.00    +0.000 C 
ENDBRANCH  24  25
ENDBRANCH  22  24
ENDBRANCH   2  18
TORSDOF 5
ENDMDL
MODEL 7
REMARK VINA RESULT:      -8.4      3.520      4.599
REMARK  Name = 
REMARK  6 active torsions:
REMARK  status: ('A' for Active; 'I' for Inactive)
REMARK    1  A    between atoms: C_1  and  C_2
REMARK    2  A    between atoms: C_5  and  C_6
REMARK    3  A    between atoms: C_9  and  N_10
REMARK    4  A    between atoms: C_11  and  C_13
REMARK    5  A    between atoms: C_17  and  C_18
REMARK    6  A    between atoms: C_18  and  N_19
REMARK                            x       y       z     vdW  Elec       q    Type
REMARK                         _______ _______ _______ _____ _____    ______ ____
ROOT
ATOM      1  N   UNL     1       1.436   8.885  18.693  0.00  0.00    +0.000 N 
ATOM      2  C   UNL     1       1.576   8.169  19.865  0.00  0.00    +0.000 C 
ATOM      3  O   UNL     1       1.472   8.601  21.009  0.00  0.00    +0.000 OA
ATOM      4  H   UNL     1       1.525   8.399  17.808  0.00  0.00    +0.000 HD
ENDROOT
BRANCH   1   8
ATOM      5  C   UNL     1       0.694  13.054  18.648  0.00  0.00    +0.000 A 
ATOM      6  C   UNL     1       1.960  12.566  18.335  0.00  0.00    +0.000 A 
ATOM      7  C   UNL     1       2.202  11.199  18.331  0.00  0.00    +0.000 A 
ATOM      8  C   UNL     1       1.196  10.278  18.637  0.00  0.00    +0.000 A 
ATOM      9  C   UNL     1      -0.088  10.761  18.909  0.00  0.00    +0.000 A 
ATOM     10  C   UNL     1      -0.334  12.144  18.925  0.00  0.00    +0.000 A 
BRANCH   5  15
ATOM     11  C   UNL     1       1.505  17.855  18.683  0.00  0.00    +0.000 C 
ATOM     12  C   UNL     1       0.785  16.574  18.765  0.00  0.00    +0.000 A 
ATOM     13  N   UNL     1      -0.534  16.461  18.575  0.00  0.00    +0.000 NA
ATOM     14  N   UNL     1      -0.689  15.129  18.629  0.00  0.00    +0.000 N 
ATOM     15  C   UNL     1       0.507  14.484  18.790  0.00  0.00    +0.000 A 
ATOM     16  N   UNL     1       1.449  15.391  18.960  0.00  0.00    +0.000 NA
ATOM     17  H   UNL     1      -1.608  14.729  18.480  0.00  0.00    +0.000 HD
ENDBRANCH   5  15
ENDBRANCH   1   8
BRANCH   2  18
ATOM     18  C   UNL     1       1.903   6.734  19.761  0.00  0.00    +0.000 A 
ATOM     19  C   UNL     1       1.458   5.944  20.830  0.00  0.00    +0.000 A 
ATOM     20  C   UNL     1       1.526   4.562  20.748  0.00  0.00    +0.000 A 
ATOM     21  C   UNL     1       2.044   3.973  19.602  0.00  0.00    +0.000 A 
ATOM     22  C   UNL     1       2.534   4.744  18.528  0.00  0.00    +0.000 A 
ATOM     23  C   UNL     1       2.452   6.146  18.614  0.00  0.00    +0.000 A 
BRANCH  22  24
ATOM     24  C   UNL     1       3.016   4.032  17.280  0.00  0.00    +0.000 C 
BRANCH  24  25
ATOM     25  N   UNL     1       4.436   3.691  17.175  0.00  0.00    +0.000 NA
ATOM     26  C   UNL     1       5.332   3.970  18.288  0.00  0.00    +0.000 C 
ATOM     27  C   UNL     1       5.934   5.364  18.342  0.00  0.00    +0.000 C 
ATOM     28  S   UNL     1       6.525   5.939  16.768  0.00  0.00    +0.000 S 
ATOM     29  O   UNL     1       6.356   7.381  16.734  0.00  0.00    +0.000 OA
ATOM     30  O   UNL     1       7.834   5.351  16.545  0.00  0.00    +0.000 OA
ATOM     31  C   UNL     1       5.429   5.267  15.548  0.00  0.00    +0.000 C 
ATOM     32  C   UNL     1       5.066   3.840  15.873  0.00  0.00    +0.000 C 
ENDBRANCH  24  25
ENDBRANCH  22  24
ENDBRANCH   2  18
TORSDOF 5
ENDMDL
MODEL 8
REMARK VINA RESULT:      -8.3      4.482     10.472
REMARK  Name = 
REMARK  6 active torsions:
REMARK  status: ('A' for Active; 'I' for Inactive)
REMARK    1  A    between atoms: C_1  and  C_2
REMARK    2  A    between atoms: C_5  and  C_6
REMARK    3  A    between atoms: C_9  and  N_10
REMARK    4  A    between atoms: C_11  and  C_13
REMARK    5  A    between atoms: C_17  and  C_18
REMARK    6  A    between atoms: C_18  and  N_19
REMARK                            x       y       z     vdW  Elec       q    Type
REMARK                         _______ _______ _______ _____ _____    ______ ____
ROOT
ATOM      1  N   UNL     1       2.416   7.379  19.203  0.00  0.00    +0.000 N 
ATOM      2  C   UNL     1       1.741   8.561  18.967  0.00  0.00    +0.000 C 
ATOM      3  O   UNL     1       1.776   9.236  17.942  0.00  0.00    +0.000 OA
ATOM      4  H   UNL     1       2.281   6.907  20.090  0.00  0.00    +0.000 HD
ENDROOT
BRANCH   1   8
ATOM      5  C   UNL     1       5.013   5.573  16.388  0.00  0.00    +0.000 A 
ATOM      6  C   UNL     1       5.180   6.911  16.736  0.00  0.00    +0.000 A 
ATOM      7  C   UNL     1       4.342   7.501  17.671  0.00  0.00    +0.000 A 
ATOM      8  C   UNL     1       3.315   6.781  18.288  0.00  0.00    +0.000 A 
ATOM      9  C   UNL     1       3.171   5.426  17.976  0.00  0.00    +0.000 A 
ATOM     10  C   UNL     1       4.010   4.829  17.021  0.00  0.00    +0.000 A 
BRANCH   5  15
ATOM     11  C   UNL     1       6.289   3.378  12.234  0.00  0.00    +0.000 C 
ATOM     12  C   UNL     1       6.408   4.136  13.489  0.00  0.00    +0.000 A 
ATOM     13  N   UNL     1       7.420   4.970  13.749  0.00  0.00    +0.000 NA
ATOM     14  N   UNL     1       7.028   5.495  14.920  0.00  0.00    +0.000 N 
ATOM     15  C   UNL     1       5.802   5.024  15.304  0.00  0.00    +0.000 A 
ATOM     16  N   UNL     1       5.427   4.096  14.445  0.00  0.00    +0.000 NA
ATOM     17  H   UNL     1       7.597   6.208  15.362  0.00  0.00    +0.000 HD
ENDBRANCH   5  15
ENDBRANCH   1   8
BRANCH   2  18
ATOM     18  C   UNL     1       0.898   9.101  20.049  0.00  0.00    +0.000 A 
ATOM     19  C   UNL     1       0.978   8.410  21.267  0.00  0.00    +0.000 A 
ATOM     20  C   UNL     1       0.393   8.940  22.406  0.00  0.00    +0.000 A 
ATOM     21  C   UNL     1      -0.277  10.154  22.326  0.00  0.00    +0.000 A 
ATOM     22  C   UNL     1      -0.407  10.851  21.106  0.00  0.00    +0.000 A 
ATOM     23  C   UNL     1       0.199  10.312  19.957  0.00  0.00    +0.000 A 
BRANCH  22  24
ATOM     24  C   UNL     1      -1.088  12.205  21.110  0.00  0.00    +0.000 C 
BRANCH  24  25
ATOM     25  N   UNL     1      -2.492  12.279  21.514  0.00  0.00    +0.000 NA
ATOM     26  C   UNL     1      -3.449  12.995  20.682  0.00  0.00    +0.000 C 
ATOM     27  C   UNL     1      -3.568  14.491  20.918  0.00  0.00    +0.000 C 
ATOM     28  S   UNL     1      -3.624  14.933  22.639  0.00  0.00    +0.000 S 
ATOM     29  O   UNL     1      -2.995  16.235  22.779  0.00  0.00    +0.000 OA
ATOM     30  O   UNL     1      -4.982  14.722  23.105  0.00  0.00    +0.000 OA
ATOM     31  C   UNL     1      -2.588  13.770  23.485  0.00  0.00    +0.000 C 
ATOM     32  C   UNL     1      -2.774  12.379  22.937  0.00  0.00    +0.000 C 
ENDBRANCH  24  25
ENDBRANCH  22  24
ENDBRANCH   2  18
TORSDOF 5
ENDMDL
MODEL 9
REMARK VINA RESULT:      -8.3      4.448     10.513
REMARK  Name = 
REMARK  6 active torsions:
REMARK  status: ('A' for Active; 'I' for Inactive)
REMARK    1  A    between atoms: C_1  and  C_2
REMARK    2  A    between atoms: C_5  and  C_6
REMARK    3  A    between atoms: C_9  and  N_10
REMARK    4  A    between atoms: C_11  and  C_13
REMARK    5  A    between atoms: C_17  and  C_18
REMARK    6  A    between atoms: C_18  and  N_19
REMARK                            x       y       z     vdW  Elec       q    Type
REMARK                         _______ _______ _______ _____ _____    ______ ____
ROOT
ATOM      1  N   UNL     1       2.267   7.413  19.306  0.00  0.00    +0.000 N 
ATOM      2  C   UNL     1       1.737   8.680  19.161  0.00  0.00    +0.000 C 
ATOM      3  O   UNL     1       1.949   9.466  18.243  0.00  0.00    +0.000 OA
ATOM      4  H   UNL     1       1.990   6.854  20.105  0.00  0.00    +0.000 HD
ENDROOT
BRANCH   1   8
ATOM      5  C   UNL     1       4.980   5.648  16.575  0.00  0.00    +0.000 A 
ATOM      6  C   UNL     1       4.932   7.032  16.717  0.00  0.00    +0.000 A 
ATOM      7  C   UNL     1       4.056   7.613  17.624  0.00  0.00    +0.000 A 
ATOM      8  C   UNL     1       3.205   6.838  18.416  0.00  0.00    +0.000 A 
ATOM      9  C   UNL     1       3.281   5.446  18.310  0.00  0.00    +0.000 A 
ATOM     10  C   UNL     1       4.157   4.855  17.385  0.00  0.00    +0.000 A 
BRANCH   5  15
ATOM     11  C   UNL     1       6.346   3.521  12.414  0.00  0.00    +0.000 C 
ATOM     12  C   UNL     1       6.442   4.214  13.709  0.00  0.00    +0.000 A 
ATOM     13  N   UNL     1       7.502   4.944  14.072  0.00  0.00    +0.000 NA
ATOM     14  N   UNL     1       7.077   5.453  15.239  0.00  0.00    +0.000 N 
ATOM     15  C   UNL     1       5.792   5.076  15.519  0.00  0.00    +0.000 A 
ATOM     16  N   UNL     1       5.398   4.221  14.596  0.00  0.00    +0.000 NA
ATOM     17  H   UNL     1       7.673   6.094  15.748  0.00  0.00    +0.000 HD
ENDBRANCH   5  15
ENDBRANCH   1   8
BRANCH   2  18
ATOM     18  C   UNL     1       0.829   9.171  20.214  0.00  0.00    +0.000 A 
ATOM     19  C   UNL     1       1.012   8.588  21.476  0.00  0.00    +0.000 A 
ATOM     20  C   UNL     1       0.362   9.111  22.584  0.00  0.00    +0.000 A 
ATOM     21  C   UNL     1      -0.473  10.209  22.428  0.00  0.00    +0.000 A 
ATOM     22  C   UNL     1      -0.705  10.792  21.164  0.00  0.00    +0.000 A 
ATOM     23  C   UNL     1      -0.033  10.263  20.047  0.00  0.00    +0.000 A 
BRANCH  22  24
ATOM     24  C   UNL     1      -1.570  12.033  21.082  0.00  0.00    +0.000 C 
BRANCH  24  25
ATOM     25  N   UNL     1      -1.977  12.684  22.328  0.00  0.00    +0.000 NA
ATOM     26  C   UNL     1      -3.287  12.404  22.899  0.00  0.00    +0.000 C 
ATOM     27  C   UNL     1      -4.446  13.240  22.382  0.00  0.00    +0.000 C 
ATOM     28  S   UNL     1      -4.064  14.971  22.250  0.00  0.00    +0.000 S 
ATOM     29  O   UNL     1      -4.828  15.505  21.136  0.00  0.00    +0.000 OA
ATOM     30  O   UNL     1      -4.194  15.555  23.572  0.00  0.00    +0.000 OA
ATOM     31  C   UNL     1      -2.355  15.070  21.794  0.00  0.00    +0.000 C 
ATOM     32  C   UNL     1      -1.533  14.052  22.543  0.00  0.00    +0.000 C 
ENDBRANCH  24  25
ENDBRANCH  22  24
ENDBRANCH   2  18
TORSDOF 5
ENDMDL
