MODEL 1
REMARK VINA RESULT:      -8.2      0.000      0.000
REMARK  Name = 
REMARK  4 active torsions:
REMARK  status: ('A' for Active; 'I' for Inactive)
REMARK    1  A    between atoms: C_1  and  C_2
REMARK    2  A    between atoms: C_3  and  N_4
REMARK    3  A    between atoms: C_5  and  C_7
REMARK    4  A    between atoms: N_20  and  C_21
REMARK                            x       y       z     vdW  Elec       q    Type
REMARK                         _______ _______ _______ _____ _____    ______ ____
ROOT
ATOM      1  N   UNL     1       2.368   6.999  20.522  0.00  0.00    +0.000 N 
ATOM      2  C   UNL     1       1.806   5.743  20.452  0.00  0.00    +0.000 C 
ATOM      3  O   UNL     1       0.606   5.514  20.574  0.00  0.00    +0.000 OA
ATOM      4  H   UNL     1       3.370   7.061  20.660  0.00  0.00    +0.000 HD
ENDROOT
BRANCH   2   5
ATOM      5  C   UNL     1       2.762   4.600  20.294  0.00  0.00    +0.000 A 
ATOM      6  C   UNL     1       2.449   3.409  20.971  0.00  0.00    +0.000 A 
ATOM      7  C   UNL     1       3.257   2.278  20.848  0.00  0.00    +0.000 A 
ATOM      8  C   UNL     1       4.390   2.321  20.040  0.00  0.00    +0.000 A 
ATOM      9  C   UNL     1       4.717   3.498  19.367  0.00  0.00    +0.000 A 
ATOM     10  C   UNL     1       3.917   4.648  19.491  0.00  0.00    +0.000 A 
ATOM     11  O   UNL     1       4.274   5.825  18.899  0.00  0.00    +0.000 OA
ATOM     12  C   UNL     1       5.153   5.711  17.790  0.00  0.00    +0.000 C 
ATOM     13  C   UNL     1       6.194   4.599  17.806  0.00  0.00    +0.000 C 
ATOM     14  O   UNL     1       7.216   4.616  17.125  0.00  0.00    +0.000 OA
ATOM     15  N   UNL     1       5.870   3.524  18.581  0.00  0.00    +0.000 N 
ATOM     16  H   UNL     1       6.500   2.731  18.547  0.00  0.00    +0.000 HD
ENDBRANCH   2   5
BRANCH   1  19
ATOM     17  C   UNL     1       1.949   9.069  18.299  0.00  0.00    +0.000 C 
ATOM     18  C   UNL     1       1.360   9.034  19.665  0.00  0.00    +0.000 A 
ATOM     19  C   UNL     1       1.638   8.154  20.686  0.00  0.00    +0.000 A 
ATOM     20  C   UNL     1       1.117   8.750  21.846  0.00  0.00    +0.000 A 
ATOM     21  N   UNL     1       0.520   9.913  21.591  0.00  0.00    +0.000 NA
ATOM     22  N   UNL     1       0.624  10.072  20.242  0.00  0.00    +0.000 N 
BRANCH  22  23
ATOM     23  C   UNL     1       0.111  11.252  19.645  0.00  0.00    +0.000 A 
ATOM     24  C   UNL     1       0.693  12.488  19.972  0.00  0.00    +0.000 A 
ATOM     25  C   UNL     1       0.268  13.656  19.331  0.00  0.00    +0.000 A 
ATOM     26  C   UNL     1      -0.754  13.604  18.382  0.00  0.00    +0.000 A 
ATOM     27  C   UNL     1      -1.374  12.389  18.102  0.00  0.00    +0.000 A 
ATOM     28  C   UNL     1      -0.948  11.225  18.741  0.00  0.00    +0.000 A 
ATOM     29  F   UNL     1      -1.653  10.111  18.513  0.00  0.00    +0.000 F 
ENDBRANCH  22  23
ENDBRANCH   1  19
TORSDOF 3
ENDMDL
MODEL 2
REMARK VINA RESULT:      -8.1      1.259      1.323
REMARK  Name = 
REMARK  4 active torsions:
REMARK  status: ('A' for Active; 'I' for Inactive)
REMARK    1  A    between atoms: C_1  and  C_2
REMARK    2  A    between atoms: C_3  and  N_4
REMARK    3  A    between atoms: C_5  and  C_7
REMARK    4  A    between atoms: N_20  and  C_21
REMARK                            x       y       z     vdW  Elec       q    Type
REMARK                         _______ _______ _______ _____ _____    ______ ____
ROOT
ATOM      1  N   UNL     1       2.208   6.920  19.325  0.00  0.00    +0.000 N 
ATOM      2  C   UNL     1       2.005   5.632  19.769  0.00  0.00    +0.000 C 
ATOM      3  O   UNL     1       1.392   5.340  20.792  0.00  0.00    +0.000 OA
ATOM      4  H   UNL     1       2.924   7.071  18.625  0.00  0.00    +0.000 HD
ENDROOT
BRANCH   2   5
ATOM      5  C   UNL     1       2.656   4.547  18.967  0.00  0.00    +0.000 A 
ATOM      6  C   UNL     1       1.884   3.404  18.694  0.00  0.00    +0.000 A 
ATOM      7  C   UNL     1       2.392   2.362  17.917  0.00  0.00    +0.000 A 
ATOM      8  C   UNL     1       3.680   2.450  17.396  0.00  0.00    +0.000 A 
ATOM      9  C   UNL     1       4.460   3.575  17.663  0.00  0.00    +0.000 A 
ATOM     10  C   UNL     1       3.965   4.627  18.454  0.00  0.00    +0.000 A 
ATOM     11  O   UNL     1       4.750   5.693  18.785  0.00  0.00    +0.000 OA
ATOM     12  C   UNL     1       5.849   5.937  17.919  0.00  0.00    +0.000 C 
ATOM     13  C   UNL     1       6.538   4.742  17.274  0.00  0.00    +0.000 C 
ATOM     14  O   UNL     1       7.681   4.778  16.827  0.00  0.00    +0.000 OA
ATOM     15  N   UNL     1       5.756   3.630  17.150  0.00  0.00    +0.000 N 
ATOM     16  H   UNL     1       6.157   2.845  16.649  0.00  0.00    +0.000 HD
ENDBRANCH   2   5
BRANCH   1  19
ATOM     17  C   UNL     1       1.735   9.598  17.909  0.00  0.00    +0.000 C 
ATOM     18  C   UNL     1       1.387   9.205  19.302  0.00  0.00    +0.000 A 
ATOM     19  C   UNL     1       1.699   8.033  19.954  0.00  0.00    +0.000 A 
ATOM     20  C   UNL     1       1.478   8.294  21.316  0.00  0.00    +0.000 A 
ATOM     21  N   UNL     1       1.029   9.530  21.528  0.00  0.00    +0.000 NA
ATOM     22  N   UNL     1       0.925  10.081  20.286  0.00  0.00    +0.000 N 
BRANCH  22  23
ATOM     23  C   UNL     1       0.502  11.430  20.164  0.00  0.00    +0.000 A 
ATOM     24  C   UNL     1       1.371  12.455  20.572  0.00  0.00    +0.000 A 
ATOM     25  C   UNL     1       1.017  13.794  20.379  0.00  0.00    +0.000 A 
ATOM     26  C   UNL     1      -0.212  14.119  19.805  0.00  0.00    +0.000 A 
ATOM     27  C   UNL     1      -1.101  13.106  19.456  0.00  0.00    +0.000 A 
ATOM     28  C   UNL     1      -0.745  11.771  19.647  0.00  0.00    +0.000 A 
ATOM     29  F   UNL     1      -1.682  10.849  19.397  0.00  0.00    +0.000 F 
ENDBRANCH  22  23
ENDBRANCH   1  19
TORSDOF 3
ENDMDL
MODEL 3
REMARK VINA RESULT:      -8.0      0.926      1.275
REMARK  Name = 
REMARK  4 active torsions:
REMARK  status: ('A' for Active; 'I' for Inactive)
REMARK    1  A    between atoms: C_1  and  C_2
REMARK    2  A    between atoms: C_3  and  N_4
REMARK    3  A    between atoms: C_5  and  C_7
REMARK    4  A    between atoms: N_20  and  C_21
REMARK                            x       y       z     vdW  Elec       q    Type
REMARK                         _______ _______ _______ _____ _____    ______ ____
ROOT
ATOM      1  N   UNL     1       2.341   7.002  20.572  0.00  0.00    +0.000 N 
ATOM      2  C   UNL     1       1.785   5.746  20.458  0.00  0.00    +0.000 C 
ATOM      3  O   UNL     1       0.586   5.507  20.562  0.00  0.00    +0.000 OA
ATOM      4  H   UNL     1       3.341   7.065  20.720  0.00  0.00    +0.000 HD
ENDROOT
BRANCH   2   5
ATOM      5  C   UNL     1       2.749   4.614  20.273  0.00  0.00    +0.000 A 
ATOM      6  C   UNL     1       2.458   3.414  20.946  0.00  0.00    +0.000 A 
ATOM      7  C   UNL     1       3.274   2.291  20.798  0.00  0.00    +0.000 A 
ATOM      8  C   UNL     1       4.393   2.351  19.971  0.00  0.00    +0.000 A 
ATOM      9  C   UNL     1       4.697   3.536  19.303  0.00  0.00    +0.000 A 
ATOM     10  C   UNL     1       3.889   4.678  19.451  0.00  0.00    +0.000 A 
ATOM     11  O   UNL     1       4.226   5.864  18.864  0.00  0.00    +0.000 OA
ATOM     12  C   UNL     1       5.087   5.767  17.738  0.00  0.00    +0.000 C 
ATOM     13  C   UNL     1       6.137   4.665  17.727  0.00  0.00    +0.000 C 
ATOM     14  O   UNL     1       7.147   4.697  17.028  0.00  0.00    +0.000 OA
ATOM     15  N   UNL     1       5.836   3.580  18.498  0.00  0.00    +0.000 N 
ATOM     16  H   UNL     1       6.473   2.793  18.446  0.00  0.00    +0.000 HD
ENDBRANCH   2   5
BRANCH   1  19
ATOM     17  C   UNL     1       1.808   9.065  18.367  0.00  0.00    +0.000 C 
ATOM     18  C   UNL     1       1.274   9.024  19.755  0.00  0.00    +0.000 A 
ATOM     19  C   UNL     1       1.603   8.148  20.765  0.00  0.00    +0.000 A 
ATOM     20  C   UNL     1       1.121   8.738  21.944  0.00  0.00    +0.000 A 
ATOM     21  N   UNL     1       0.500   9.893  21.714  0.00  0.00    +0.000 NA
ATOM     22  N   UNL     1       0.549  10.052  20.361  0.00  0.00    +0.000 N 
BRANCH  22  23
ATOM     23  C   UNL     1      -0.002  11.226  19.786  0.00  0.00    +0.000 A 
ATOM     24  C   UNL     1      -1.351  11.224  19.392  0.00  0.00    +0.000 A 
ATOM     25  C   UNL     1      -1.943  12.394  18.907  0.00  0.00    +0.000 A 
ATOM     26  C   UNL     1      -1.192  13.563  18.787  0.00  0.00    +0.000 A 
ATOM     27  C   UNL     1       0.160  13.552  19.120  0.00  0.00    +0.000 A 
ATOM     28  C   UNL     1       0.749  12.385  19.605  0.00  0.00    +0.000 A 
ATOM     29  F   UNL     1       2.073  12.406  19.802  0.00  0.00    +0.000 F 
ENDBRANCH  22  23
ENDBRANCH   1  19
TORSDOF 3
ENDMDL
MODEL 4
REMARK VINA RESULT:      -7.9      1.611      1.841
REMARK  Name = 
REMARK  4 active torsions:
REMARK  status: ('A' for Active; 'I' for Inactive)
REMARK    1  A    between atoms: C_1  and  C_2
REMARK    2  A    between atoms: C_3  and  N_4
REMARK    3  A    between atoms: C_5  and  C_7
REMARK    4  A    between atoms: N_20  and  C_21
REMARK                            x       y       z     vdW  Elec       q    Type
REMARK                         _______ _______ _______ _____ _____    ______ ____
ROOT
ATOM      1  N   UNL     1       2.167   7.044  19.350  0.00  0.00    +0.000 N 
ATOM      2  C   UNL     1       1.978   5.751  19.786  0.00  0.00    +0.000 C 
ATOM      3  O   UNL     1       1.371   5.447  20.808  0.00  0.00    +0.000 OA
ATOM      4  H   UNL     1       2.879   7.208  18.649  0.00  0.00    +0.000 HD
ENDROOT
BRANCH   2   5
ATOM      5  C   UNL     1       2.638   4.679  18.973  0.00  0.00    +0.000 A 
ATOM      6  C   UNL     1       1.837   3.593  18.581  0.00  0.00    +0.000 A 
ATOM      7  C   UNL     1       2.353   2.569  17.785  0.00  0.00    +0.000 A 
ATOM      8  C   UNL     1       3.680   2.619  17.366  0.00  0.00    +0.000 A 
ATOM      9  C   UNL     1       4.488   3.687  17.753  0.00  0.00    +0.000 A 
ATOM     10  C   UNL     1       3.984   4.720  18.563  0.00  0.00    +0.000 A 
ATOM     11  O   UNL     1       4.790   5.726  19.011  0.00  0.00    +0.000 OA
ATOM     12  C   UNL     1       5.962   5.960  18.243  0.00  0.00    +0.000 C 
ATOM     13  C   UNL     1       6.642   4.767  17.584  0.00  0.00    +0.000 C 
ATOM     14  O   UNL     1       7.816   4.769  17.225  0.00  0.00    +0.000 OA
ATOM     15  N   UNL     1       5.821   3.704  17.341  0.00  0.00    +0.000 N 
ATOM     16  H   UNL     1       6.222   2.928  16.827  0.00  0.00    +0.000 HD
ENDBRANCH   2   5
BRANCH   1  19
ATOM     17  C   UNL     1       1.287   9.591  17.886  0.00  0.00    +0.000 C 
ATOM     18  C   UNL     1       1.156   9.252  19.329  0.00  0.00    +0.000 A 
ATOM     19  C   UNL     1       1.648   8.149  19.989  0.00  0.00    +0.000 A 
ATOM     20  C   UNL     1       1.583   8.468  21.354  0.00  0.00    +0.000 A 
ATOM     21  N   UNL     1       1.059   9.675  21.565  0.00  0.00    +0.000 NA
ATOM     22  N   UNL     1       0.750  10.144  20.324  0.00  0.00    +0.000 N 
BRANCH  22  23
ATOM     23  C   UNL     1       0.200  11.446  20.197  0.00  0.00    +0.000 A 
ATOM     24  C   UNL     1      -1.196  11.597  20.185  0.00  0.00    +0.000 A 
ATOM     25  C   UNL     1      -1.764  12.875  20.153  0.00  0.00    +0.000 A 
ATOM     26  C   UNL     1      -0.947  14.005  20.107  0.00  0.00    +0.000 A 
ATOM     27  C   UNL     1       0.437  13.855  20.056  0.00  0.00    +0.000 A 
ATOM     28  C   UNL     1       1.001  12.581  20.090  0.00  0.00    +0.000 A 
ATOM     29  F   UNL     1       2.327  12.496  19.927  0.00  0.00    +0.000 F 
ENDBRANCH  22  23
ENDBRANCH   1  19
TORSDOF 3
ENDMDL
MODEL 5
REMARK VINA RESULT:      -7.9      2.025      2.524
REMARK  Name = 
REMARK  4 active torsions:
REMARK  status: ('A' for Active; 'I' for Inactive)
REMARK    1  A    between atoms: C_1  and  C_2
REMARK    2  A    between atoms: C_3  and  N_4
REMARK    3  A    between atoms: C_5  and  C_7
REMARK    4  A    between atoms: N_20  and  C_21
REMARK                            x       y       z     vdW  Elec       q    Type
REMARK                         _______ _______ _______ _____ _____    ______ ____
ROOT
ATOM      1  N   UNL     1       2.064   7.853  19.906  0.00  0.00    +0.000 N 
ATOM      2  C   UNL     1       2.375   7.067  18.818  0.00  0.00    +0.000 C 
ATOM      3  O   UNL     1       2.045   7.321  17.664  0.00  0.00    +0.000 OA
ATOM      4  H   UNL     1       2.158   7.444  20.827  0.00  0.00    +0.000 HD
ENDROOT
BRANCH   2   5
ATOM      5  C   UNL     1       3.097   5.788  19.114  0.00  0.00    +0.000 A 
ATOM      6  C   UNL     1       2.428   4.851  19.920  0.00  0.00    +0.000 A 
ATOM      7  C   UNL     1       3.002   3.613  20.213  0.00  0.00    +0.000 A 
ATOM      8  C   UNL     1       4.256   3.293  19.698  0.00  0.00    +0.000 A 
ATOM      9  C   UNL     1       4.934   4.215  18.902  0.00  0.00    +0.000 A 
ATOM     10  C   UNL     1       4.371   5.470  18.608  0.00  0.00    +0.000 A 
ATOM     11  O   UNL     1       5.063   6.407  17.897  0.00  0.00    +0.000 OA
ATOM     12  C   UNL     1       6.100   5.903  17.068  0.00  0.00    +0.000 C 
ATOM     13  C   UNL     1       6.875   4.682  17.543  0.00  0.00    +0.000 C 
ATOM     14  O   UNL     1       7.992   4.384  17.129  0.00  0.00    +0.000 OA
ATOM     15  N   UNL     1       6.199   3.881  18.417  0.00  0.00    +0.000 N 
ATOM     16  H   UNL     1       6.654   3.016  18.687  0.00  0.00    +0.000 HD
ENDBRANCH   2   5
BRANCH   1  19
ATOM     17  C   UNL     1      -0.462   8.496  21.520  0.00  0.00    +0.000 C 
ATOM     18  C   UNL     1       0.315   9.383  20.612  0.00  0.00    +0.000 A 
ATOM     19  C   UNL     1       1.387   9.049  19.816  0.00  0.00    +0.000 A 
ATOM     20  C   UNL     1       1.521  10.109  18.905  0.00  0.00    +0.000 A 
ATOM     21  N   UNL     1       0.624  11.071  19.115  0.00  0.00    +0.000 NA
ATOM     22  N   UNL     1      -0.092  10.652  20.196  0.00  0.00    +0.000 N 
BRANCH  22  23
ATOM     23  C   UNL     1      -1.170  11.449  20.659  0.00  0.00    +0.000 A 
ATOM     24  C   UNL     1      -2.106  11.935  19.731  0.00  0.00    +0.000 A 
ATOM     25  C   UNL     1      -3.227  12.646  20.170  0.00  0.00    +0.000 A 
ATOM     26  C   UNL     1      -3.409  12.899  21.530  0.00  0.00    +0.000 A 
ATOM     27  C   UNL     1      -2.451  12.471  22.446  0.00  0.00    +0.000 A 
ATOM     28  C   UNL     1      -1.335  11.761  22.007  0.00  0.00    +0.000 A 
ATOM     29  F   UNL     1      -0.397  11.474  22.917  0.00  0.00    +0.000 F 
ENDBRANCH  22  23
ENDBRANCH   1  19
TORSDOF 3
ENDMDL
MODEL 6
REMARK VINA RESULT:      -7.8      3.303      8.190
REMARK  Name = 
REMARK  4 active torsions:
REMARK  status: ('A' for Active; 'I' for Inactive)
REMARK    1  A    between atoms: C_1  and  C_2
REMARK    2  A    between atoms: C_3  and  N_4
REMARK    3  A    between atoms: C_5  and  C_7
REMARK    4  A    between atoms: N_20  and  C_21
REMARK                            x       y       z     vdW  Elec       q    Type
REMARK                         _______ _______ _______ _____ _____    ______ ____
ROOT
ATOM      1  N   UNL     1       1.080   8.107  20.475  0.00  0.00    +0.000 N 
ATOM      2  C   UNL     1       1.239   8.897  21.592  0.00  0.00    +0.000 C 
ATOM      3  O   UNL     1       2.077   8.699  22.466  0.00  0.00    +0.000 OA
ATOM      4  H   UNL     1       0.219   8.197  19.950  0.00  0.00    +0.000 HD
ENDROOT
BRANCH   2   5
ATOM      5  C   UNL     1       0.255  10.015  21.753  0.00  0.00    +0.000 A 
ATOM      6  C   UNL     1      -0.526  10.013  22.923  0.00  0.00    +0.000 A 
ATOM      7  C   UNL     1      -1.437  11.038  23.181  0.00  0.00    +0.000 A 
ATOM      8  C   UNL     1      -1.578  12.084  22.273  0.00  0.00    +0.000 A 
ATOM      9  C   UNL     1      -0.815  12.096  21.106  0.00  0.00    +0.000 A 
ATOM     10  C   UNL     1       0.099  11.065  20.828  0.00  0.00    +0.000 A 
ATOM     11  O   UNL     1       0.790  11.029  19.652  0.00  0.00    +0.000 OA
ATOM     12  C   UNL     1       0.933  12.276  18.988  0.00  0.00    +0.000 C 
ATOM     13  C   UNL     1      -0.204  13.284  19.094  0.00  0.00    +0.000 C 
ATOM     14  O   UNL     1      -0.372  14.203  18.298  0.00  0.00    +0.000 OA
ATOM     15  N   UNL     1      -0.991  13.143  20.200  0.00  0.00    +0.000 N 
ATOM     16  H   UNL     1      -1.703  13.849  20.345  0.00  0.00    +0.000 HD
ENDBRANCH   2   5
BRANCH   1  19
ATOM     17  C   UNL     1       2.886   7.956  18.001  0.00  0.00    +0.000 C 
ATOM     18  C   UNL     1       2.772   6.996  19.132  0.00  0.00    +0.000 A 
ATOM     19  C   UNL     1       1.883   7.027  20.183  0.00  0.00    +0.000 A 
ATOM     20  C   UNL     1       1.935   5.745  20.755  0.00  0.00    +0.000 A 
ATOM     21  N   UNL     1       2.814   4.954  20.140  0.00  0.00    +0.000 NA
ATOM     22  N   UNL     1       3.367   5.734  19.170  0.00  0.00    +0.000 N 
BRANCH  22  23
ATOM     23  C   UNL     1       4.331   5.166  18.296  0.00  0.00    +0.000 A 
ATOM     24  C   UNL     1       3.895   4.528  17.124  0.00  0.00    +0.000 A 
ATOM     25  C   UNL     1       4.826   4.040  16.202  0.00  0.00    +0.000 A 
ATOM     26  C   UNL     1       6.193   4.163  16.454  0.00  0.00    +0.000 A 
ATOM     27  C   UNL     1       6.627   4.741  17.644  0.00  0.00    +0.000 A 
ATOM     28  C   UNL     1       5.697   5.228  18.561  0.00  0.00    +0.000 A 
ATOM     29  F   UNL     1       6.170   5.670  19.733  0.00  0.00    +0.000 F 
ENDBRANCH  22  23
ENDBRANCH   1  19
TORSDOF 3
ENDMDL
MODEL 7
REMARK VINA RESULT:      -7.8      2.119      2.672
REMARK  Name = 
REMARK  4 active torsions:
REMARK  status: ('A' for Active; 'I' for Inactive)
REMARK    1  A    between atoms: C_1  and  C_2
REMARK    2  A    between atoms: C_3  and  N_4
REMARK    3  A    between atoms: C_5  and  C_7
REMARK    4  A    between atoms: N_20  and  C_21
REMARK                            x       y       z     vdW  Elec       q    Type
REMARK                         _______ _______ _______ _____ _____    ______ ____
ROOT
ATOM      1  N   UNL     1       1.796   7.920  19.216  0.00  0.00    +0.000 N 
ATOM      2  C   UNL     1       2.505   7.538  18.099  0.00  0.00    +0.000 C 
ATOM      3  O   UNL     1       2.712   8.262  17.129  0.00  0.00    +0.000 OA
ATOM      4  H   UNL     1       1.468   7.193  19.839  0.00  0.00    +0.000 HD
ENDROOT
BRANCH   2   5
ATOM      5  C   UNL     1       2.971   6.115  18.069  0.00  0.00    +0.000 A 
ATOM      6  C   UNL     1       2.003   5.122  18.299  0.00  0.00    +0.000 A 
ATOM      7  C   UNL     1       2.335   3.768  18.247  0.00  0.00    +0.000 A 
ATOM      8  C   UNL     1       3.642   3.385  17.959  0.00  0.00    +0.000 A 
ATOM      9  C   UNL     1       4.615   4.359  17.735  0.00  0.00    +0.000 A 
ATOM     10  C   UNL     1       4.297   5.727  17.795  0.00  0.00    +0.000 A 
ATOM     11  O   UNL     1       5.259   6.685  17.656  0.00  0.00    +0.000 OA
ATOM     12  C   UNL     1       6.432   6.278  16.967  0.00  0.00    +0.000 C 
ATOM     13  C   UNL     1       6.904   4.839  17.133  0.00  0.00    +0.000 C 
ATOM     14  O   UNL     1       8.055   4.473  16.912  0.00  0.00    +0.000 OA
ATOM     15  N   UNL     1       5.924   3.952  17.471  0.00  0.00    +0.000 N 
ATOM     16  H   UNL     1       6.187   2.974  17.506  0.00  0.00    +0.000 HD
ENDBRANCH   2   5
BRANCH   1  19
ATOM     17  C   UNL     1      -0.322   8.597  21.328  0.00  0.00    +0.000 C 
ATOM     18  C   UNL     1       0.406   9.514  20.409  0.00  0.00    +0.000 A 
ATOM     19  C   UNL     1       1.278   9.183  19.397  0.00  0.00    +0.000 A 
ATOM     20  C   UNL     1       1.400  10.342  18.614  0.00  0.00    +0.000 A 
ATOM     21  N   UNL     1       0.686  11.357  19.099  0.00  0.00    +0.000 NA
ATOM     22  N   UNL     1       0.109  10.867  20.232  0.00  0.00    +0.000 N 
BRANCH  22  23
ATOM     23  C   UNL     1      -0.763  11.703  20.977  0.00  0.00    +0.000 A 
ATOM     24  C   UNL     1      -0.403  12.068  22.285  0.00  0.00    +0.000 A 
ATOM     25  C   UNL     1      -1.198  12.963  23.008  0.00  0.00    +0.000 A 
ATOM     26  C   UNL     1      -2.366  13.478  22.444  0.00  0.00    +0.000 A 
ATOM     27  C   UNL     1      -2.756  13.070  21.171  0.00  0.00    +0.000 A 
ATOM     28  C   UNL     1      -1.962  12.179  20.451  0.00  0.00    +0.000 A 
ATOM     29  F   UNL     1      -2.444  11.738  19.283  0.00  0.00    +0.000 F 
ENDBRANCH  22  23
ENDBRANCH   1  19
TORSDOF 3
ENDMDL
MODEL 8
REMARK VINA RESULT:      -7.8      2.085      2.715
REMARK  Name = 
REMARK  4 active torsions:
REMARK  status: ('A' for Active; 'I' for Inactive)
REMARK    1  A    between atoms: C_1  and  C_2
REMARK    2  A    between atoms: C_3  and  N_4
REMARK    3  A    between atoms: C_5  and  C_7
REMARK    4  A    between atoms: N_20  and  C_21
REMARK                            x       y       z     vdW  Elec       q    Type
REMARK                         _______ _______ _______ _____ _____    ______ ____
ROOT
ATOM      1  N   UNL     1       1.948   7.761  20.188  0.00  0.00    +0.000 N 
ATOM      2  C   UNL     1       2.472   7.166  19.062  0.00  0.00    +0.000 C 
ATOM      3  O   UNL     1       2.358   7.614  17.925  0.00  0.00    +0.000 OA
ATOM      4  H   UNL     1       1.876   7.201  21.029  0.00  0.00    +0.000 HD
ENDROOT
BRANCH   2   5
ATOM      5  C   UNL     1       3.151   5.846  19.269  0.00  0.00    +0.000 A 
ATOM      6  C   UNL     1       2.461   4.888  20.033  0.00  0.00    +0.000 A 
ATOM      7  C   UNL     1       2.995   3.615  20.242  0.00  0.00    +0.000 A 
ATOM      8  C   UNL     1       4.226   3.280  19.685  0.00  0.00    +0.000 A 
ATOM      9  C   UNL     1       4.925   4.223  18.931  0.00  0.00    +0.000 A 
ATOM     10  C   UNL     1       4.404   5.512  18.721  0.00  0.00    +0.000 A 
ATOM     11  O   UNL     1       5.117   6.464  18.053  0.00  0.00    +0.000 OA
ATOM     12  C   UNL     1       6.120   5.972  17.175  0.00  0.00    +0.000 C 
ATOM     13  C   UNL     1       6.858   4.698  17.564  0.00  0.00    +0.000 C 
ATOM     14  O   UNL     1       7.956   4.384  17.112  0.00  0.00    +0.000 OA
ATOM     15  N   UNL     1       6.168   3.872  18.403  0.00  0.00    +0.000 N 
ATOM     16  H   UNL     1       6.594   2.977  18.613  0.00  0.00    +0.000 HD
ENDBRANCH   2   5
BRANCH   1  19
ATOM     17  C   UNL     1       1.007   9.206  22.724  0.00  0.00    +0.000 C 
ATOM     18  C   UNL     1       0.944   9.666  21.310  0.00  0.00    +0.000 A 
ATOM     19  C   UNL     1       1.277   8.963  20.174  0.00  0.00    +0.000 A 
ATOM     20  C   UNL     1       0.708   9.680  19.110  0.00  0.00    +0.000 A 
ATOM     21  N   UNL     1       0.080  10.781  19.521  0.00  0.00    +0.000 NA
ATOM     22  N   UNL     1       0.263  10.803  20.871  0.00  0.00    +0.000 N 
BRANCH  22  23
ATOM     23  C   UNL     1      -0.327  11.848  21.629  0.00  0.00    +0.000 A 
ATOM     24  C   UNL     1      -1.485  11.578  22.377  0.00  0.00    +0.000 A 
ATOM     25  C   UNL     1      -2.033  12.564  23.202  0.00  0.00    +0.000 A 
ATOM     26  C   UNL     1      -1.449  13.829  23.268  0.00  0.00    +0.000 A 
ATOM     27  C   UNL     1      -0.338  14.118  22.481  0.00  0.00    +0.000 A 
ATOM     28  C   UNL     1       0.209  13.134  21.660  0.00  0.00    +0.000 A 
ATOM     29  F   UNL     1       1.206  13.502  20.846  0.00  0.00    +0.000 F 
ENDBRANCH  22  23
ENDBRANCH   1  19
TORSDOF 3
ENDMDL
MODEL 9
REMARK VINA RESULT:      -7.7      2.214      2.826
REMARK  Name = 
REMARK  4 active torsions:
REMARK  status: ('A' for Active; 'I' for Inactive)
REMARK    1  A    between atoms: C_1  and  C_2
REMARK    2  A    between atoms: C_3  and  N_4
REMARK    3  A    between atoms: C_5  and  C_7
REMARK    4  A    between atoms: N_20  and  C_21
REMARK                            x       y       z     vdW  Elec       q    Type
REMARK                         _______ _______ _______ _____ _____    ______ ____
ROOT
ATOM      1  N   UNL     1       1.663   7.917  19.159  0.00  0.00    +0.000 N 
ATOM      2  C   UNL     1       2.508   7.583  18.124  0.00  0.00    +0.000 C 
ATOM      3  O   UNL     1       2.848   8.355  17.232  0.00  0.00    +0.000 OA
ATOM      4  H   UNL     1       1.248   7.162  19.693  0.00  0.00    +0.000 HD
ENDROOT
BRANCH   2   5
ATOM      5  C   UNL     1       2.958   6.155  18.074  0.00  0.00    +0.000 A 
ATOM      6  C   UNL     1       1.977   5.170  18.285  0.00  0.00    +0.000 A 
ATOM      7  C   UNL     1       2.294   3.813  18.214  0.00  0.00    +0.000 A 
ATOM      8  C   UNL     1       3.598   3.420  17.926  0.00  0.00    +0.000 A 
ATOM      9  C   UNL     1       4.583   4.386  17.721  0.00  0.00    +0.000 A 
ATOM     10  C   UNL     1       4.280   5.757  17.800  0.00  0.00    +0.000 A 
ATOM     11  O   UNL     1       5.254   6.705  17.680  0.00  0.00    +0.000 OA
ATOM     12  C   UNL     1       6.425   6.295  16.990  0.00  0.00    +0.000 C 
ATOM     13  C   UNL     1       6.880   4.849  17.135  0.00  0.00    +0.000 C 
ATOM     14  O   UNL     1       8.027   4.473  16.914  0.00  0.00    +0.000 OA
ATOM     15  N   UNL     1       5.888   3.968  17.457  0.00  0.00    +0.000 N 
ATOM     16  H   UNL     1       6.140   2.987  17.478  0.00  0.00    +0.000 HD
ENDBRANCH   2   5
BRANCH   1  19
ATOM     17  C   UNL     1       1.286   9.211  21.913  0.00  0.00    +0.000 C 
ATOM     18  C   UNL     1       1.065   9.804  20.566  0.00  0.00    +0.000 A 
ATOM     19  C   UNL     1       1.140   9.177  19.343  0.00  0.00    +0.000 A 
ATOM     20  C   UNL     1       0.504  10.044  18.439  0.00  0.00    +0.000 A 
ATOM     21  N   UNL     1       0.077  11.161  19.027  0.00  0.00    +0.000 NA
ATOM     22  N   UNL     1       0.462  11.040  20.328  0.00  0.00    +0.000 N 
BRANCH  22  23
ATOM     23  C   UNL     1       0.118  12.066  21.246  0.00  0.00    +0.000 A 
ATOM     24  C   UNL     1       0.811  13.287  21.194  0.00  0.00    +0.000 A 
ATOM     25  C   UNL     1       0.431  14.345  22.025  0.00  0.00    +0.000 A 
ATOM     26  C   UNL     1      -0.621  14.187  22.927  0.00  0.00    +0.000 A 
ATOM     27  C   UNL     1      -1.270  12.959  23.023  0.00  0.00    +0.000 A 
ATOM     28  C   UNL     1      -0.891  11.904  22.193  0.00  0.00    +0.000 A 
ATOM     29  F   UNL     1      -1.474  10.719  22.408  0.00  0.00    +0.000 F 
ENDBRANCH  22  23
ENDBRANCH   1  19
TORSDOF 3
ENDMDL
