MODEL 1
REMARK VINA RESULT:      -8.1      0.000      0.000
REMARK  Name = 
REMARK  7 active torsions:
REMARK  status: ('A' for Active; 'I' for Inactive)
REMARK    1  A    between atoms: C_1  and  C_2
REMARK    2  A    between atoms: C_2  and  C_3
REMARK    3  A    between atoms: N_7  and  C_8
REMARK    4  A    between atoms: C_12  and  C_13
REMARK    5  A    between atoms: C_13  and  C_14
REMARK    6  A    between atoms: C_14  and  C_15
REMARK    7  A    between atoms: N_19  and  C_20
REMARK                            x       y       z     vdW  Elec       q    Type
REMARK                         _______ _______ _______ _____ _____    ______ ____
ROOT
ATOM      1  C   UNL     1       2.091   7.786  19.192  0.00  0.00    +0.000 A 
ATOM      2  C   UNL     1       2.713   8.410  18.118  0.00  0.00    +0.000 A 
ATOM      3  C   UNL     1       3.452   7.660  17.202  0.00  0.00    +0.000 A 
ATOM      4  C   UNL     1       3.567   6.279  17.373  0.00  0.00    +0.000 A 
ATOM      5  C   UNL     1       2.965   5.611  18.456  0.00  0.00    +0.000 A 
ATOM      6  C   UNL     1       2.189   6.396  19.318  0.00  0.00    +0.000 A 
ENDROOT
BRANCH   1  11
ATOM      7  C   UNL     1      -0.721  11.002  21.575  0.00  0.00    +0.000 C 
ATOM      8  C   UNL     1       0.226  10.071  21.388  0.00  0.00    +0.000 C 
ATOM      9  C   UNL     1       0.951   9.258  22.406  0.00  0.00    +0.000 C 
ATOM     10  C   UNL     1       1.515   8.117  21.595  0.00  0.00    +0.000 C 
ATOM     11  N   UNL     1       1.426   8.515  20.207  0.00  0.00    +0.000 N 
ATOM     12  C   UNL     1       0.667   9.663  20.025  0.00  0.00    +0.000 C 
ATOM     13  O   UNL     1       0.362  10.253  19.003  0.00  0.00    +0.000 OA
BRANCH   7  15
ATOM     14  C   UNL     1      -2.537  12.215  22.771  0.00  0.00    +0.000 C 
ATOM     15  C   UNL     1      -1.237  11.444  22.910  0.00  0.00    +0.000 C 
ENDBRANCH   7  15
ENDBRANCH   1  11
BRANCH   5  16
ATOM     16  C   UNL     1       3.228   4.071  18.751  0.00  0.00    +0.000 C 
ATOM     17  C   UNL     1       2.034   3.132  18.422  0.00  0.00    +0.000 C 
ATOM     18  O   UNL     1       2.308   2.334  19.603  0.00  0.00    +0.000 OA
ATOM     19  C   UNL     1       3.014   3.474  20.178  0.00  0.00    +0.000 C 
BRANCH  16  20
ATOM     20  C   UNL     1       4.566   3.630  18.114  0.00  0.00    +0.000 C 
BRANCH  20  21
ATOM     21  C   UNL     1       5.764   4.418  18.559  0.00  0.00    +0.000 A 
ATOM     22  N   UNL     1       6.017   4.815  19.797  0.00  0.00    +0.000 NA
ATOM     23  N   UNL     1       7.236   5.457  19.803  0.00  0.00    +0.000 NA
ATOM     24  C   UNL     1       7.704   5.436  18.575  0.00  0.00    +0.000 A 
ATOM     25  N   UNL     1       6.810   4.813  17.760  0.00  0.00    +0.000 N 
ATOM     26  C   UNL     1       6.984   4.626  16.346  0.00  0.00    +0.000 C 
ENDBRANCH  20  21
ENDBRANCH  16  20
ENDBRANCH   5  16
TORSDOF 5
ENDMDL
MODEL 2
REMARK VINA RESULT:      -8.0      2.634      3.983
REMARK  Name = 
REMARK  7 active torsions:
REMARK  status: ('A' for Active; 'I' for Inactive)
REMARK    1  A    between atoms: C_1  and  C_2
REMARK    2  A    between atoms: C_2  and  C_3
REMARK    3  A    between atoms: N_7  and  C_8
REMARK    4  A    between atoms: C_12  and  C_13
REMARK    5  A    between atoms: C_13  and  C_14
REMARK    6  A    between atoms: C_14  and  C_15
REMARK    7  A    between atoms: N_19  and  C_20
REMARK                            x       y       z     vdW  Elec       q    Type
REMARK                         _______ _______ _______ _____ _____    ______ ____
ROOT
ATOM      1  C   UNL     1       2.600   5.794  18.490  0.00  0.00    +0.000 A 
ATOM      2  C   UNL     1       1.794   4.721  18.129  0.00  0.00    +0.000 A 
ATOM      3  C   UNL     1       2.334   3.645  17.423  0.00  0.00    +0.000 A 
ATOM      4  C   UNL     1       3.687   3.654  17.077  0.00  0.00    +0.000 A 
ATOM      5  C   UNL     1       4.531   4.730  17.409  0.00  0.00    +0.000 A 
ATOM      6  C   UNL     1       3.960   5.761  18.165  0.00  0.00    +0.000 A 
ENDROOT
BRANCH   1  11
ATOM      7  C   UNL     1       0.967  10.332  19.310  0.00  0.00    +0.000 C 
ATOM      8  C   UNL     1       1.415   9.099  19.586  0.00  0.00    +0.000 C 
ATOM      9  C   UNL     1       1.394   8.366  20.885  0.00  0.00    +0.000 C 
ATOM     10  C   UNL     1       1.594   6.928  20.470  0.00  0.00    +0.000 C 
ATOM     11  N   UNL     1       2.076   6.956  19.106  0.00  0.00    +0.000 N 
ATOM     12  C   UNL     1       1.986   8.216  18.530  0.00  0.00    +0.000 C 
ATOM     13  O   UNL     1       2.267   8.590  17.405  0.00  0.00    +0.000 OA
BRANCH   7  15
ATOM     14  C   UNL     1      -1.129  11.453  20.050  0.00  0.00    +0.000 C 
ATOM     15  C   UNL     1       0.355  11.265  20.308  0.00  0.00    +0.000 C 
ENDBRANCH   7  15
ENDBRANCH   1  11
BRANCH   5  16
ATOM     16  C   UNL     1       6.026   4.826  16.876  0.00  0.00    +0.000 C 
ATOM     17  C   UNL     1       7.119   4.660  17.968  0.00  0.00    +0.000 C 
ATOM     18  O   UNL     1       7.933   5.685  17.341  0.00  0.00    +0.000 OA
ATOM     19  C   UNL     1       6.732   6.207  16.696  0.00  0.00    +0.000 C 
BRANCH  16  20
ATOM     20  C   UNL     1       6.215   3.896  15.655  0.00  0.00    +0.000 C 
BRANCH  20  21
ATOM     21  C   UNL     1       6.885   4.537  14.475  0.00  0.00    +0.000 A 
ATOM     22  N   UNL     1       7.837   5.456  14.525  0.00  0.00    +0.000 NA
ATOM     23  N   UNL     1       8.229   5.743  13.236  0.00  0.00    +0.000 NA
ATOM     24  C   UNL     1       7.515   4.994  12.426  0.00  0.00    +0.000 A 
ATOM     25  N   UNL     1       6.649   4.237  13.154  0.00  0.00    +0.000 N 
ATOM     26  C   UNL     1       5.701   3.314  12.595  0.00  0.00    +0.000 C 
ENDBRANCH  20  21
ENDBRANCH  16  20
ENDBRANCH   5  16
TORSDOF 5
ENDMDL
MODEL 3
REMARK VINA RESULT:      -7.9      2.177      3.625
REMARK  Name = 
REMARK  7 active torsions:
REMARK  status: ('A' for Active; 'I' for Inactive)
REMARK    1  A    between atoms: C_1  and  C_2
REMARK    2  A    between atoms: C_2  and  C_3
REMARK    3  A    between atoms: N_7  and  C_8
REMARK    4  A    between atoms: C_12  and  C_13
REMARK    5  A    between atoms: C_13  and  C_14
REMARK    6  A    between atoms: C_14  and  C_15
REMARK    7  A    between atoms: N_19  and  C_20
REMARK                            x       y       z     vdW  Elec       q    Type
REMARK                         _______ _______ _______ _____ _____    ______ ____
ROOT
ATOM      1  C   UNL     1       2.718   5.282  18.589  0.00  0.00    +0.000 A 
ATOM      2  C   UNL     1       2.009   4.087  18.600  0.00  0.00    +0.000 A 
ATOM      3  C   UNL     1       2.492   2.978  17.905  0.00  0.00    +0.000 A 
ATOM      4  C   UNL     1       3.690   3.076  17.193  0.00  0.00    +0.000 A 
ATOM      5  C   UNL     1       4.428   4.274  17.143  0.00  0.00    +0.000 A 
ATOM      6  C   UNL     1       3.934   5.343  17.900  0.00  0.00    +0.000 A 
ENDROOT
BRANCH   1  11
ATOM      7  C   UNL     1       1.154   9.859  19.323  0.00  0.00    +0.000 C 
ATOM      8  C   UNL     1       1.585   8.625  19.622  0.00  0.00    +0.000 C 
ATOM      9  C   UNL     1       1.559   7.919  20.935  0.00  0.00    +0.000 C 
ATOM     10  C   UNL     1       1.737   6.471  20.549  0.00  0.00    +0.000 C 
ATOM     11  N   UNL     1       2.214   6.465  19.183  0.00  0.00    +0.000 N 
ATOM     12  C   UNL     1       2.139   7.713  18.582  0.00  0.00    +0.000 C 
ATOM     13  O   UNL     1       2.420   8.061  17.448  0.00  0.00    +0.000 OA
BRANCH   7  15
ATOM     14  C   UNL     1      -0.897  11.108  19.983  0.00  0.00    +0.000 C 
ATOM     15  C   UNL     1       0.559  10.821  20.304  0.00  0.00    +0.000 C 
ENDBRANCH   7  15
ENDBRANCH   1  11
BRANCH   5  16
ATOM     16  C   UNL     1       5.700   4.443  16.203  0.00  0.00    +0.000 C 
ATOM     17  C   UNL     1       5.586   5.583  15.154  0.00  0.00    +0.000 C 
ATOM     18  O   UNL     1       6.258   4.766  14.161  0.00  0.00    +0.000 OA
ATOM     19  C   UNL     1       5.873   3.578  14.915  0.00  0.00    +0.000 C 
BRANCH  16  20
ATOM     20  C   UNL     1       6.986   4.506  17.058  0.00  0.00    +0.000 C 
BRANCH  20  21
ATOM     21  C   UNL     1       7.445   5.893  17.403  0.00  0.00    +0.000 A 
ATOM     22  N   UNL     1       7.526   6.915  16.567  0.00  0.00    +0.000 NA
ATOM     23  N   UNL     1       7.933   8.024  17.277  0.00  0.00    +0.000 NA
ATOM     24  C   UNL     1       8.088   7.659  18.530  0.00  0.00    +0.000 A 
ATOM     25  N   UNL     1       7.812   6.332  18.653  0.00  0.00    +0.000 N 
ATOM     26  C   UNL     1       7.897   5.589  19.880  0.00  0.00    +0.000 C 
ENDBRANCH  20  21
ENDBRANCH  16  20
ENDBRANCH   5  16
TORSDOF 5
ENDMDL
MODEL 4
REMARK VINA RESULT:      -7.9      2.116      3.401
REMARK  Name = 
REMARK  7 active torsions:
REMARK  status: ('A' for Active; 'I' for Inactive)
REMARK    1  A    between atoms: C_1  and  C_2
REMARK    2  A    between atoms: C_2  and  C_3
REMARK    3  A    between atoms: N_7  and  C_8
REMARK    4  A    between atoms: C_12  and  C_13
REMARK    5  A    between atoms: C_13  and  C_14
REMARK    6  A    between atoms: C_14  and  C_15
REMARK    7  A    between atoms: N_19  and  C_20
REMARK                            x       y       z     vdW  Elec       q    Type
REMARK                         _______ _______ _______ _____ _____    ______ ____
ROOT
ATOM      1  C   UNL     1       2.642   6.098  18.190  0.00  0.00    +0.000 A 
ATOM      2  C   UNL     1       1.887   4.948  18.388  0.00  0.00    +0.000 A 
ATOM      3  C   UNL     1       2.308   3.731  17.850  0.00  0.00    +0.000 A 
ATOM      4  C   UNL     1       3.491   3.675  17.109  0.00  0.00    +0.000 A 
ATOM      5  C   UNL     1       4.274   4.821  16.873  0.00  0.00    +0.000 A 
ATOM      6  C   UNL     1       3.841   6.007  17.477  0.00  0.00    +0.000 A 
ENDROOT
BRANCH   1  11
ATOM      7  C   UNL     1       1.028   9.829  20.912  0.00  0.00    +0.000 C 
ATOM      8  C   UNL     1       1.329   9.128  19.809  0.00  0.00    +0.000 C 
ATOM      9  C   UNL     1       1.421   9.601  18.398  0.00  0.00    +0.000 C 
ATOM     10  C   UNL     1       2.218   8.510  17.723  0.00  0.00    +0.000 C 
ATOM     11  N   UNL     1       2.199   7.374  18.617  0.00  0.00    +0.000 N 
ATOM     12  C   UNL     1       1.690   7.684  19.871  0.00  0.00    +0.000 C 
ATOM     13  O   UNL     1       1.560   6.989  20.863  0.00  0.00    +0.000 OA
BRANCH   7  15
ATOM     14  C   UNL     1      -0.808  11.498  21.121  0.00  0.00    +0.000 C 
ATOM     15  C   UNL     1       0.684  11.286  20.934  0.00  0.00    +0.000 C 
ENDBRANCH   7  15
ENDBRANCH   1  11
BRANCH   5  16
ATOM     16  C   UNL     1       5.527   4.800  15.894  0.00  0.00    +0.000 C 
ATOM     17  C   UNL     1       5.174   4.675  14.386  0.00  0.00    +0.000 C 
ATOM     18  O   UNL     1       6.307   3.795  14.170  0.00  0.00    +0.000 OA
ATOM     19  C   UNL     1       6.296   3.475  15.593  0.00  0.00    +0.000 C 
BRANCH  16  20
ATOM     20  C   UNL     1       6.474   5.978  16.220  0.00  0.00    +0.000 C 
BRANCH  20  21
ATOM     21  C   UNL     1       7.143   5.893  17.561  0.00  0.00    +0.000 A 
ATOM     22  N   UNL     1       7.267   4.802  18.301  0.00  0.00    +0.000 NA
ATOM     23  N   UNL     1       7.991   5.125  19.429  0.00  0.00    +0.000 NA
ATOM     24  C   UNL     1       8.297   6.401  19.354  0.00  0.00    +0.000 A 
ATOM     25  N   UNL     1       7.773   6.927  18.213  0.00  0.00    +0.000 N 
ATOM     26  C   UNL     1       7.895   8.302  17.815  0.00  0.00    +0.000 C 
ENDBRANCH  20  21
ENDBRANCH  16  20
ENDBRANCH   5  16
TORSDOF 5
ENDMDL
MODEL 5
REMARK VINA RESULT:      -7.9      2.707      4.083
REMARK  Name = 
REMARK  7 active torsions:
REMARK  status: ('A' for Active; 'I' for Inactive)
REMARK    1  A    between atoms: C_1  and  C_2
REMARK    2  A    between atoms: C_2  and  C_3
REMARK    3  A    between atoms: N_7  and  C_8
REMARK    4  A    between atoms: C_12  and  C_13
REMARK    5  A    between atoms: C_13  and  C_14
REMARK    6  A    between atoms: C_14  and  C_15
REMARK    7  A    between atoms: N_19  and  C_20
REMARK                            x       y       z     vdW  Elec       q    Type
REMARK                         _______ _______ _______ _____ _____    ______ ____
ROOT
ATOM      1  C   UNL     1       2.666   5.906  18.391  0.00  0.00    +0.000 A 
ATOM      2  C   UNL     1       1.833   4.850  18.044  0.00  0.00    +0.000 A 
ATOM      3  C   UNL     1       2.346   3.746  17.362  0.00  0.00    +0.000 A 
ATOM      4  C   UNL     1       3.701   3.710  17.026  0.00  0.00    +0.000 A 
ATOM      5  C   UNL     1       4.574   4.767  17.345  0.00  0.00    +0.000 A 
ATOM      6  C   UNL     1       4.027   5.828  18.076  0.00  0.00    +0.000 A 
ENDROOT
BRANCH   1  11
ATOM      7  C   UNL     1       0.886   9.171  21.570  0.00  0.00    +0.000 C 
ATOM      8  C   UNL     1       1.224   8.638  20.387  0.00  0.00    +0.000 C 
ATOM      9  C   UNL     1       1.314   9.303  19.055  0.00  0.00    +0.000 C 
ATOM     10  C   UNL     1       2.158   8.344  18.250  0.00  0.00    +0.000 C 
ATOM     11  N   UNL     1       2.172   7.095  18.981  0.00  0.00    +0.000 N 
ATOM     12  C   UNL     1       1.639   7.213  20.257  0.00  0.00    +0.000 C 
ATOM     13  O   UNL     1       1.523   6.385  21.143  0.00  0.00    +0.000 OA
BRANCH   7  15
ATOM     14  C   UNL     1      -0.726  10.702  22.691  0.00  0.00    +0.000 C 
ATOM     15  C   UNL     1       0.488  10.598  21.785  0.00  0.00    +0.000 C 
ENDBRANCH   7  15
ENDBRANCH   1  11
BRANCH   5  16
ATOM     16  C   UNL     1       6.075   4.810  16.821  0.00  0.00    +0.000 C 
ATOM     17  C   UNL     1       7.153   4.567  17.914  0.00  0.00    +0.000 C 
ATOM     18  O   UNL     1       8.015   5.570  17.318  0.00  0.00    +0.000 OA
ATOM     19  C   UNL     1       6.843   6.162  16.681  0.00  0.00    +0.000 C 
BRANCH  16  20
ATOM     20  C   UNL     1       6.228   3.905  15.577  0.00  0.00    +0.000 C 
BRANCH  20  21
ATOM     21  C   UNL     1       6.909   4.554  14.408  0.00  0.00    +0.000 A 
ATOM     22  N   UNL     1       7.864   5.469  14.474  0.00  0.00    +0.000 NA
ATOM     23  N   UNL     1       8.266   5.768  13.190  0.00  0.00    +0.000 NA
ATOM     24  C   UNL     1       7.554   5.030  12.368  0.00  0.00    +0.000 A 
ATOM     25  N   UNL     1       6.681   4.269  13.083  0.00  0.00    +0.000 N 
ATOM     26  C   UNL     1       5.732   3.355  12.508  0.00  0.00    +0.000 C 
ENDBRANCH  20  21
ENDBRANCH  16  20
ENDBRANCH   5  16
TORSDOF 5
ENDMDL
MODEL 6
REMARK VINA RESULT:      -7.9      2.149      3.512
REMARK  Name = 
REMARK  7 active torsions:
REMARK  status: ('A' for Active; 'I' for Inactive)
REMARK    1  A    between atoms: C_1  and  C_2
REMARK    2  A    between atoms: C_2  and  C_3
REMARK    3  A    between atoms: N_7  and  C_8
REMARK    4  A    between atoms: C_12  and  C_13
REMARK    5  A    between atoms: C_13  and  C_14
REMARK    6  A    between atoms: C_14  and  C_15
REMARK    7  A    between atoms: N_19  and  C_20
REMARK                            x       y       z     vdW  Elec       q    Type
REMARK                         _______ _______ _______ _____ _____    ______ ____
ROOT
ATOM      1  C   UNL     1       3.066   6.246  18.828  0.00  0.00    +0.000 A 
ATOM      2  C   UNL     1       2.689   5.187  19.644  0.00  0.00    +0.000 A 
ATOM      3  C   UNL     1       3.292   3.937  19.496  0.00  0.00    +0.000 A 
ATOM      4  C   UNL     1       4.274   3.755  18.520  0.00  0.00    +0.000 A 
ATOM      5  C   UNL     1       4.671   4.798  17.662  0.00  0.00    +0.000 A 
ATOM      6  C   UNL     1       4.078   6.047  17.883  0.00  0.00    +0.000 A 
ENDROOT
BRANCH   1  11
ATOM      7  C   UNL     1       0.599  10.202  20.308  0.00  0.00    +0.000 C 
ATOM      8  C   UNL     1       1.149   9.320  19.462  0.00  0.00    +0.000 C 
ATOM      9  C   UNL     1       1.392   9.457  17.997  0.00  0.00    +0.000 C 
ATOM     10  C   UNL     1       2.413   8.381  17.717  0.00  0.00    +0.000 C 
ATOM     11  N   UNL     1       2.405   7.498  18.863  0.00  0.00    +0.000 N 
ATOM     12  C   UNL     1       1.678   8.008  19.929  0.00  0.00    +0.000 C 
ATOM     13  O   UNL     1       1.489   7.554  21.044  0.00  0.00    +0.000 OA
BRANCH   7  15
ATOM     14  C   UNL     1      -0.003  12.479  21.118  0.00  0.00    +0.000 C 
ATOM     15  C   UNL     1       0.072  11.550  19.920  0.00  0.00    +0.000 C 
ENDBRANCH   7  15
ENDBRANCH   1  11
BRANCH   5  16
ATOM     16  C   UNL     1       5.663   4.558  16.442  0.00  0.00    +0.000 C 
ATOM     17  C   UNL     1       5.351   5.400  15.174  0.00  0.00    +0.000 C 
ATOM     18  O   UNL     1       5.690   4.278  14.319  0.00  0.00    +0.000 OA
ATOM     19  C   UNL     1       5.442   3.380  15.442  0.00  0.00    +0.000 C 
BRANCH  16  20
ATOM     20  C   UNL     1       7.129   4.667  16.922  0.00  0.00    +0.000 C 
BRANCH  20  21
ATOM     21  C   UNL     1       7.550   6.043  17.348  0.00  0.00    +0.000 A 
ATOM     22  N   UNL     1       7.619   7.111  16.569  0.00  0.00    +0.000 NA
ATOM     23  N   UNL     1       7.989   8.188  17.344  0.00  0.00    +0.000 NA
ATOM     24  C   UNL     1       8.135   7.760  18.578  0.00  0.00    +0.000 A 
ATOM     25  N   UNL     1       7.889   6.422  18.625  0.00  0.00    +0.000 N 
ATOM     26  C   UNL     1       7.974   5.615  19.812  0.00  0.00    +0.000 C 
ENDBRANCH  20  21
ENDBRANCH  16  20
ENDBRANCH   5  16
TORSDOF 5
ENDMDL
MODEL 7
REMARK VINA RESULT:      -7.8      2.367      8.284
REMARK  Name = 
REMARK  7 active torsions:
REMARK  status: ('A' for Active; 'I' for Inactive)
REMARK    1  A    between atoms: C_1  and  C_2
REMARK    2  A    between atoms: C_2  and  C_3
REMARK    3  A    between atoms: N_7  and  C_8
REMARK    4  A    between atoms: C_12  and  C_13
REMARK    5  A    between atoms: C_13  and  C_14
REMARK    6  A    between atoms: C_14  and  C_15
REMARK    7  A    between atoms: N_19  and  C_20
REMARK                            x       y       z     vdW  Elec       q    Type
REMARK                         _______ _______ _______ _____ _____    ______ ____
ROOT
ATOM      1  C   UNL     1       3.043   5.785  18.783  0.00  0.00    +0.000 A 
ATOM      2  C   UNL     1       2.841   4.738  19.673  0.00  0.00    +0.000 A 
ATOM      3  C   UNL     1       2.050   4.924  20.808  0.00  0.00    +0.000 A 
ATOM      4  C   UNL     1       1.465   6.170  21.046  0.00  0.00    +0.000 A 
ATOM      5  C   UNL     1       1.659   7.260  20.177  0.00  0.00    +0.000 A 
ATOM      6  C   UNL     1       2.415   7.012  19.024  0.00  0.00    +0.000 A 
ENDROOT
BRANCH   1  11
ATOM      7  C   UNL     1       5.624   4.079  14.993  0.00  0.00    +0.000 C 
ATOM      8  C   UNL     1       5.254   4.913  15.976  0.00  0.00    +0.000 C 
ATOM      9  C   UNL     1       5.657   6.331  16.200  0.00  0.00    +0.000 C 
ATOM     10  C   UNL     1       4.597   6.843  17.145  0.00  0.00    +0.000 C 
ATOM     11  N   UNL     1       3.926   5.679  17.681  0.00  0.00    +0.000 N 
ATOM     12  C   UNL     1       4.271   4.508  17.020  0.00  0.00    +0.000 C 
ATOM     13  O   UNL     1       3.879   3.366  17.184  0.00  0.00    +0.000 OA
BRANCH   7  15
ATOM     14  C   UNL     1       6.295   3.613  12.641  0.00  0.00    +0.000 C 
ATOM     15  C   UNL     1       6.581   4.422  13.894  0.00  0.00    +0.000 C 
ENDBRANCH   7  15
ENDBRANCH   1  11
BRANCH   5  16
ATOM     16  C   UNL     1       1.138   8.722  20.525  0.00  0.00    +0.000 C 
ATOM     17  C   UNL     1       1.592   9.262  21.909  0.00  0.00    +0.000 C 
ATOM     18  O   UNL     1       0.295   9.878  22.118  0.00  0.00    +0.000 OA
ATOM     19  C   UNL     1      -0.275   8.948  21.150  0.00  0.00    +0.000 C 
BRANCH  16  20
ATOM     20  C   UNL     1       1.432   9.682  19.350  0.00  0.00    +0.000 C 
BRANCH  20  21
ATOM     21  C   UNL     1       0.215  10.304  18.727  0.00  0.00    +0.000 A 
ATOM     22  N   UNL     1      -0.590   9.726  17.849  0.00  0.00    +0.000 NA
ATOM     23  N   UNL     1      -1.618  10.598  17.565  0.00  0.00    +0.000 NA
ATOM     24  C   UNL     1      -1.424  11.687  18.276  0.00  0.00    +0.000 A 
ATOM     25  N   UNL     1      -0.280  11.555  19.003  0.00  0.00    +0.000 N 
ATOM     26  C   UNL     1       0.251  12.562  19.880  0.00  0.00    +0.000 C 
ENDBRANCH  20  21
ENDBRANCH  16  20
ENDBRANCH   5  16
TORSDOF 5
ENDMDL
MODEL 8
REMARK VINA RESULT:      -7.8      2.877      4.296
REMARK  Name = 
REMARK  7 active torsions:
REMARK  status: ('A' for Active; 'I' for Inactive)
REMARK    1  A    between atoms: C_1  and  C_2
REMARK    2  A    between atoms: C_2  and  C_3
REMARK    3  A    between atoms: N_7  and  C_8
REMARK    4  A    between atoms: C_12  and  C_13
REMARK    5  A    between atoms: C_13  and  C_14
REMARK    6  A    between atoms: C_14  and  C_15
REMARK    7  A    between atoms: N_19  and  C_20
REMARK                            x       y       z     vdW  Elec       q    Type
REMARK                         _______ _______ _______ _____ _____    ______ ____
ROOT
ATOM      1  C   UNL     1       2.655   5.867  18.393  0.00  0.00    +0.000 A 
ATOM      2  C   UNL     1       1.874   4.737  18.183  0.00  0.00    +0.000 A 
ATOM      3  C   UNL     1       2.369   3.673  17.427  0.00  0.00    +0.000 A 
ATOM      4  C   UNL     1       3.651   3.753  16.878  0.00  0.00    +0.000 A 
ATOM      5  C   UNL     1       4.465   4.887  17.054  0.00  0.00    +0.000 A 
ATOM      6  C   UNL     1       3.949   5.905  17.865  0.00  0.00    +0.000 A 
ENDROOT
BRANCH   1  11
ATOM      7  C   UNL     1       0.874   8.925  21.771  0.00  0.00    +0.000 C 
ATOM      8  C   UNL     1       1.208   8.466  20.556  0.00  0.00    +0.000 C 
ATOM      9  C   UNL     1       1.284   9.208  19.265  0.00  0.00    +0.000 C 
ATOM     10  C   UNL     1       2.129   8.305  18.400  0.00  0.00    +0.000 C 
ATOM     11  N   UNL     1       2.157   7.016  19.056  0.00  0.00    +0.000 N 
ATOM     12  C   UNL     1       1.631   7.054  20.339  0.00  0.00    +0.000 C 
ATOM     13  O   UNL     1       1.527   6.174  21.176  0.00  0.00    +0.000 OA
BRANCH   7  15
ATOM     14  C   UNL     1      -0.765  10.376  22.958  0.00  0.00    +0.000 C 
ATOM     15  C   UNL     1       0.468  10.335  22.073  0.00  0.00    +0.000 C 
ENDBRANCH   7  15
ENDBRANCH   1  11
BRANCH   5  16
ATOM     16  C   UNL     1       5.854   5.056  16.297  0.00  0.00    +0.000 C 
ATOM     17  C   UNL     1       6.774   3.804  16.338  0.00  0.00    +0.000 C 
ATOM     18  O   UNL     1       7.946   4.644  16.497  0.00  0.00    +0.000 OA
ATOM     19  C   UNL     1       7.084   5.707  17.003  0.00  0.00    +0.000 C 
BRANCH  16  20
ATOM     20  C   UNL     1       5.617   5.613  14.875  0.00  0.00    +0.000 C 
BRANCH  20  21
ATOM     21  C   UNL     1       5.901   4.644  13.764  0.00  0.00    +0.000 A 
ATOM     22  N   UNL     1       5.093   3.682  13.346  0.00  0.00    +0.000 NA
ATOM     23  N   UNL     1       5.689   3.052  12.276  0.00  0.00    +0.000 NA
ATOM     24  C   UNL     1       6.842   3.642  12.058  0.00  0.00    +0.000 A 
ATOM     25  N   UNL     1       7.026   4.631  12.975  0.00  0.00    +0.000 N 
ATOM     26  C   UNL     1       8.189   5.471  13.049  0.00  0.00    +0.000 C 
ENDBRANCH  20  21
ENDBRANCH  16  20
ENDBRANCH   5  16
TORSDOF 5
ENDMDL
MODEL 9
REMARK VINA RESULT:      -7.7      2.316      3.512
REMARK  Name = 
REMARK  7 active torsions:
REMARK  status: ('A' for Active; 'I' for Inactive)
REMARK    1  A    between atoms: C_1  and  C_2
REMARK    2  A    between atoms: C_2  and  C_3
REMARK    3  A    between atoms: N_7  and  C_8
REMARK    4  A    between atoms: C_12  and  C_13
REMARK    5  A    between atoms: C_13  and  C_14
REMARK    6  A    between atoms: C_14  and  C_15
REMARK    7  A    between atoms: N_19  and  C_20
REMARK                            x       y       z     vdW  Elec       q    Type
REMARK                         _______ _______ _______ _____ _____    ______ ____
ROOT
ATOM      1  C   UNL     1       2.952   5.972  19.224  0.00  0.00    +0.000 A 
ATOM      2  C   UNL     1       2.632   4.825  19.940  0.00  0.00    +0.000 A 
ATOM      3  C   UNL     1       3.269   3.617  19.651  0.00  0.00    +0.000 A 
ATOM      4  C   UNL     1       4.227   3.566  18.636  0.00  0.00    +0.000 A 
ATOM      5  C   UNL     1       4.567   4.702  17.878  0.00  0.00    +0.000 A 
ATOM      6  C   UNL     1       3.942   5.902  18.239  0.00  0.00    +0.000 A 
ENDROOT
BRANCH   1  11
ATOM      7  C   UNL     1       0.852  10.324  18.462  0.00  0.00    +0.000 C 
ATOM      8  C   UNL     1       1.358   9.285  19.142  0.00  0.00    +0.000 C 
ATOM      9  C   UNL     1       1.221   8.961  20.591  0.00  0.00    +0.000 C 
ATOM     10  C   UNL     1       1.594   7.500  20.652  0.00  0.00    +0.000 C 
ATOM     11  N   UNL     1       2.254   7.191  19.403  0.00  0.00    +0.000 N 
ATOM     12  C   UNL     1       2.140   8.211  18.468  0.00  0.00    +0.000 C 
ATOM     13  O   UNL     1       2.540   8.276  17.319  0.00  0.00    +0.000 OA
BRANCH   7  15
ATOM     14  C   UNL     1       0.888  12.641  19.371  0.00  0.00    +0.000 C 
ATOM     15  C   UNL     1       0.034  11.425  19.062  0.00  0.00    +0.000 C 
ENDBRANCH   7  15
ENDBRANCH   1  11
BRANCH   5  16
ATOM     16  C   UNL     1       5.529   4.618  16.615  0.00  0.00    +0.000 C 
ATOM     17  C   UNL     1       5.188   5.610  15.469  0.00  0.00    +0.000 C 
ATOM     18  O   UNL     1       5.507   4.605  14.473  0.00  0.00    +0.000 OA
ATOM     19  C   UNL     1       5.284   3.574  15.481  0.00  0.00    +0.000 C 
BRANCH  16  20
ATOM     20  C   UNL     1       7.006   4.670  17.069  0.00  0.00    +0.000 C 
BRANCH  20  21
ATOM     21  C   UNL     1       7.498   6.035  17.453  0.00  0.00    +0.000 A 
ATOM     22  N   UNL     1       7.575   7.087  16.653  0.00  0.00    +0.000 NA
ATOM     23  N   UNL     1       8.019   8.161  17.394  0.00  0.00    +0.000 NA
ATOM     24  C   UNL     1       8.200   7.747  18.627  0.00  0.00    +0.000 A 
ATOM     25  N   UNL     1       7.905   6.421  18.708  0.00  0.00    +0.000 N 
ATOM     26  C   UNL     1       8.009   5.631  19.904  0.00  0.00    +0.000 C 
ENDBRANCH  20  21
ENDBRANCH  16  20
ENDBRANCH   5  16
TORSDOF 5
ENDMDL
