MODEL 1
REMARK VINA RESULT:      -8.9      0.000      0.000
REMARK  Name = 
REMARK  4 active torsions:
REMARK  status: ('A' for Active; 'I' for Inactive)
REMARK    1  A    between atoms: C_2  and  C_3
REMARK    2  A    between atoms: C_3  and  C_4
REMARK    3  A    between atoms: C_4  and  C_5
REMARK    4  A    between atoms: N_14  and  C_15
REMARK                            x       y       z     vdW  Elec       q    Type
REMARK                         _______ _______ _______ _____ _____    ______ ____
ROOT
ATOM      1  O   UNL     1       1.023   4.477  19.561  0.00  0.00    +0.000 OA
ATOM      2  C   UNL     1       2.152   4.656  20.014  0.00  0.00    +0.000 C 
ATOM      3  N   UNL     1       2.815   5.867  20.110  0.00  0.00    +0.000 N 
ATOM      4  H   UNL     1       3.832   5.817  20.201  0.00  0.00    +0.000 HD
ENDROOT
BRANCH   3   5
ATOM      5  C   UNL     1       2.247   7.151  19.932  0.00  0.00    +0.000 A 
ATOM      6  C   UNL     1       2.196   7.774  18.681  0.00  0.00    +0.000 A 
ATOM      7  C   UNL     1       1.596   9.023  18.495  0.00  0.00    +0.000 A 
ATOM      8  C   UNL     1       1.031   9.633  19.615  0.00  0.00    +0.000 A 
ATOM      9  C   UNL     1       1.060   9.049  20.877  0.00  0.00    +0.000 A 
ATOM     10  C   UNL     1       1.673   7.790  21.045  0.00  0.00    +0.000 A 
ATOM     11  N   UNL     1       0.429   9.855  21.798  0.00  0.00    +0.000 NA
ATOM     12  C   UNL     1      -0.001  10.904  21.124  0.00  0.00    +0.000 A 
ATOM     13  N   UNL     1       0.350  10.811  19.798  0.00  0.00    +0.000 N 
ATOM     14  C   UNL     1      -0.000  11.771  18.772  0.00  0.00    +0.000 C 
ATOM     15  C   UNL     1      -1.508  11.894  18.569  0.00  0.00    +0.000 C 
ATOM     16  C   UNL     1      -2.199  12.743  19.637  0.00  0.00    +0.000 C 
ATOM     17  C   UNL     1      -2.184  12.144  21.048  0.00  0.00    +0.000 C 
ATOM     18  C   UNL     1      -0.792  12.045  21.673  0.00  0.00    +0.000 C 
ENDBRANCH   3   5
BRANCH   2  19
ATOM     19  C   UNL     1       2.963   3.466  20.487  0.00  0.00    +0.000 C 
BRANCH  19  20
ATOM     20  C   UNL     1       3.309   2.541  19.328  0.00  0.00    +0.000 C 
BRANCH  20  21
ATOM     21  C   UNL     1       4.226   3.195  18.354  0.00  0.00    +0.000 A 
ATOM     22  N   UNL     1       3.985   3.398  17.073  0.00  0.00    +0.000 NA
ATOM     23  C   UNL     1       5.119   3.989  16.574  0.00  0.00    +0.000 A 
ATOM     24  C   UNL     1       5.404   4.412  15.279  0.00  0.00    +0.000 A 
ATOM     25  C   UNL     1       6.661   4.963  15.095  0.00  0.00    +0.000 A 
ATOM     26  N   UNL     1       7.596   5.112  16.066  0.00  0.00    +0.000 NA
ATOM     27  C   UNL     1       7.316   4.697  17.324  0.00  0.00    +0.000 A 
ATOM     28  C   UNL     1       6.075   4.138  17.570  0.00  0.00    +0.000 A 
ATOM     29  N   UNL     1       5.484   3.628  18.695  0.00  0.00    +0.000 N 
ATOM     30  H   UNL     1       5.904   3.562  19.612  0.00  0.00    +0.000 HD
ENDBRANCH  20  21
ENDBRANCH  19  20
ENDBRANCH   2  19
TORSDOF 4
ENDMDL
MODEL 2
REMARK VINA RESULT:      -8.8      1.002      1.529
REMARK  Name = 
REMARK  4 active torsions:
REMARK  status: ('A' for Active; 'I' for Inactive)
REMARK    1  A    between atoms: C_2  and  C_3
REMARK    2  A    between atoms: C_3  and  C_4
REMARK    3  A    between atoms: C_4  and  C_5
REMARK    4  A    between atoms: N_14  and  C_15
REMARK                            x       y       z     vdW  Elec       q    Type
REMARK                         _______ _______ _______ _____ _____    ______ ____
ROOT
ATOM      1  O   UNL     1       1.332   4.274  17.920  0.00  0.00    +0.000 OA
ATOM      2  C   UNL     1       2.051   4.151  18.909  0.00  0.00    +0.000 C 
ATOM      3  N   UNL     1       2.584   5.177  19.671  0.00  0.00    +0.000 N 
ATOM      4  H   UNL     1       3.395   4.937  20.244  0.00  0.00    +0.000 HD
ENDROOT
BRANCH   3   5
ATOM      5  C   UNL     1       2.219   6.543  19.609  0.00  0.00    +0.000 A 
ATOM      6  C   UNL     1       2.379   7.302  18.445  0.00  0.00    +0.000 A 
ATOM      7  C   UNL     1       1.980   8.640  18.368  0.00  0.00    +0.000 A 
ATOM      8  C   UNL     1       1.397   9.199  19.505  0.00  0.00    +0.000 A 
ATOM      9  C   UNL     1       1.220   8.480  20.683  0.00  0.00    +0.000 A 
ATOM     10  C   UNL     1       1.633   7.133  20.742  0.00  0.00    +0.000 A 
ATOM     11  N   UNL     1       0.619   9.263  21.642  0.00  0.00    +0.000 NA
ATOM     12  C   UNL     1       0.407  10.434  21.072  0.00  0.00    +0.000 A 
ATOM     13  N   UNL     1       0.871  10.438  19.778  0.00  0.00    +0.000 N 
ATOM     14  C   UNL     1       0.761  11.547  18.854  0.00  0.00    +0.000 C 
ATOM     15  C   UNL     1      -0.687  11.916  18.546  0.00  0.00    +0.000 C 
ATOM     16  C   UNL     1      -1.356  12.735  19.652  0.00  0.00    +0.000 C 
ATOM     17  C   UNL     1      -1.564  11.987  20.973  0.00  0.00    +0.000 C 
ATOM     18  C   UNL     1      -0.267  11.612  21.692  0.00  0.00    +0.000 C 
ENDBRANCH   3   5
BRANCH   2  19
ATOM     19  C   UNL     1       2.465   2.765  19.362  0.00  0.00    +0.000 C 
BRANCH  19  20
ATOM     20  C   UNL     1       3.619   2.234  18.521  0.00  0.00    +0.000 C 
BRANCH  20  21
ATOM     21  C   UNL     1       4.653   3.279  18.280  0.00  0.00    +0.000 A 
ATOM     22  N   UNL     1       5.358   3.904  19.203  0.00  0.00    +0.000 NA
ATOM     23  C   UNL     1       6.146   4.799  18.522  0.00  0.00    +0.000 A 
ATOM     24  C   UNL     1       7.078   5.711  19.009  0.00  0.00    +0.000 A 
ATOM     25  C   UNL     1       7.704   6.490  18.051  0.00  0.00    +0.000 A 
ATOM     26  N   UNL     1       7.474   6.419  16.716  0.00  0.00    +0.000 NA
ATOM     27  C   UNL     1       6.565   5.531  16.247  0.00  0.00    +0.000 A 
ATOM     28  C   UNL     1       5.907   4.724  17.157  0.00  0.00    +0.000 A 
ATOM     29  N   UNL     1       4.954   3.749  17.025  0.00  0.00    +0.000 N 
ATOM     30  H   UNL     1       4.532   3.440  16.161  0.00  0.00    +0.000 HD
ENDBRANCH  20  21
ENDBRANCH  19  20
ENDBRANCH   2  19
TORSDOF 4
ENDMDL
MODEL 3
REMARK VINA RESULT:      -8.7      6.074      9.010
REMARK  Name = 
REMARK  4 active torsions:
REMARK  status: ('A' for Active; 'I' for Inactive)
REMARK    1  A    between atoms: C_2  and  C_3
REMARK    2  A    between atoms: C_3  and  C_4
REMARK    3  A    between atoms: C_4  and  C_5
REMARK    4  A    between atoms: N_14  and  C_15
REMARK                            x       y       z     vdW  Elec       q    Type
REMARK                         _______ _______ _______ _____ _____    ______ ____
ROOT
ATOM      1  O   UNL     1       8.462   7.541  18.710  0.00  0.00    +0.000 OA
ATOM      2  C   UNL     1       7.912   8.289  17.905  0.00  0.00    +0.000 C 
ATOM      3  N   UNL     1       6.845   7.968  17.083  0.00  0.00    +0.000 N 
ATOM      4  H   UNL     1       6.711   8.568  16.266  0.00  0.00    +0.000 HD
ENDROOT
BRANCH   3   5
ATOM      5  C   UNL     1       6.035   6.812  17.173  0.00  0.00    +0.000 A 
ATOM      6  C   UNL     1       6.554   5.526  16.992  0.00  0.00    +0.000 A 
ATOM      7  C   UNL     1       5.765   4.379  17.124  0.00  0.00    +0.000 A 
ATOM      8  C   UNL     1       4.423   4.562  17.457  0.00  0.00    +0.000 A 
ATOM      9  C   UNL     1       3.866   5.824  17.645  0.00  0.00    +0.000 A 
ATOM     10  C   UNL     1       4.678   6.968  17.504  0.00  0.00    +0.000 A 
ATOM     11  N   UNL     1       2.533   5.720  17.970  0.00  0.00    +0.000 NA
ATOM     12  C   UNL     1       2.269   4.427  18.006  0.00  0.00    +0.000 A 
ATOM     13  N   UNL     1       3.387   3.692  17.693  0.00  0.00    +0.000 N 
ATOM     14  C   UNL     1       3.460   2.246  17.680  0.00  0.00    +0.000 C 
ATOM     15  C   UNL     1       3.195   1.630  19.051  0.00  0.00    +0.000 C 
ATOM     16  C   UNL     1       1.711   1.580  19.420  0.00  0.00    +0.000 C 
ATOM     17  C   UNL     1       1.051   2.947  19.628  0.00  0.00    +0.000 C 
ATOM     18  C   UNL     1       0.962   3.800  18.362  0.00  0.00    +0.000 C 
ENDBRANCH   3   5
BRANCH   2  19
ATOM     19  C   UNL     1       8.436   9.699  17.719  0.00  0.00    +0.000 C 
BRANCH  19  20
ATOM     20  C   UNL     1       9.234  10.153  18.933  0.00  0.00    +0.000 C 
BRANCH  20  21
ATOM     21  C   UNL     1       9.898  11.466  18.699  0.00  0.00    +0.000 A 
ATOM     22  N   UNL     1       9.558  12.618  19.244  0.00  0.00    +0.000 NA
ATOM     23  C   UNL     1      10.416  13.546  18.709  0.00  0.00    +0.000 A 
ATOM     24  C   UNL     1      10.498  14.917  18.937  0.00  0.00    +0.000 A 
ATOM     25  C   UNL     1      11.477  15.583  18.220  0.00  0.00    +0.000 A 
ATOM     26  N   UNL     1      12.332  15.001  17.343  0.00  0.00    +0.000 NA
ATOM     27  C   UNL     1      12.248  13.668  17.122  0.00  0.00    +0.000 A 
ATOM     28  C   UNL     1      11.289  12.948  17.810  0.00  0.00    +0.000 A 
ATOM     29  N   UNL     1      10.942  11.622  17.821  0.00  0.00    +0.000 N 
ATOM     30  H   UNL     1      11.365  10.890  17.268  0.00  0.00    +0.000 HD
ENDBRANCH  20  21
ENDBRANCH  19  20
ENDBRANCH   2  19
TORSDOF 4
ENDMDL
MODEL 4
REMARK VINA RESULT:      -8.6      1.382      1.592
REMARK  Name = 
REMARK  4 active torsions:
REMARK  status: ('A' for Active; 'I' for Inactive)
REMARK    1  A    between atoms: C_2  and  C_3
REMARK    2  A    between atoms: C_3  and  C_4
REMARK    3  A    between atoms: C_4  and  C_5
REMARK    4  A    between atoms: N_14  and  C_15
REMARK                            x       y       z     vdW  Elec       q    Type
REMARK                         _______ _______ _______ _____ _____    ______ ____
ROOT
ATOM      1  O   UNL     1       1.230   4.529  17.481  0.00  0.00    +0.000 OA
ATOM      2  C   UNL     1       2.112   4.405  18.329  0.00  0.00    +0.000 C 
ATOM      3  N   UNL     1       2.716   5.427  19.040  0.00  0.00    +0.000 N 
ATOM      4  H   UNL     1       3.624   5.209  19.456  0.00  0.00    +0.000 HD
ENDROOT
BRANCH   3   5
ATOM      5  C   UNL     1       2.282   6.772  19.108  0.00  0.00    +0.000 A 
ATOM      6  C   UNL     1       2.297   7.614  17.991  0.00  0.00    +0.000 A 
ATOM      7  C   UNL     1       1.828   8.931  18.045  0.00  0.00    +0.000 A 
ATOM      8  C   UNL     1       1.327   9.381  19.266  0.00  0.00    +0.000 A 
ATOM      9  C   UNL     1       1.295   8.577  20.401  0.00  0.00    +0.000 A 
ATOM     10  C   UNL     1       1.776   7.253  20.328  0.00  0.00    +0.000 A 
ATOM     11  N   UNL     1       0.749   9.261  21.463  0.00  0.00    +0.000 NA
ATOM     12  C   UNL     1       0.429  10.454  20.998  0.00  0.00    +0.000 A 
ATOM     13  N   UNL     1       0.769  10.568  19.672  0.00  0.00    +0.000 N 
ATOM     14  C   UNL     1       0.520  11.729  18.842  0.00  0.00    +0.000 C 
ATOM     15  C   UNL     1      -0.966  12.037  18.691  0.00  0.00    +0.000 C 
ATOM     16  C   UNL     1      -1.568  12.744  19.907  0.00  0.00    +0.000 C 
ATOM     17  C   UNL     1      -1.616  11.900  21.185  0.00  0.00    +0.000 C 
ATOM     18  C   UNL     1      -0.241  11.550  21.758  0.00  0.00    +0.000 C 
ENDBRANCH   3   5
BRANCH   2  19
ATOM     19  C   UNL     1       2.662   3.026  18.637  0.00  0.00    +0.000 C 
BRANCH  19  20
ATOM     20  C   UNL     1       3.924   2.747  17.831  0.00  0.00    +0.000 C 
BRANCH  20  21
ATOM     21  C   UNL     1       4.884   3.884  17.896  0.00  0.00    +0.000 A 
ATOM     22  N   UNL     1       4.970   4.880  17.035  0.00  0.00    +0.000 NA
ATOM     23  C   UNL     1       6.013   5.656  17.475  0.00  0.00    +0.000 A 
ATOM     24  C   UNL     1       6.534   6.830  16.937  0.00  0.00    +0.000 A 
ATOM     25  C   UNL     1       7.613   7.369  17.617  0.00  0.00    +0.000 A 
ATOM     26  N   UNL     1       8.170   6.843  18.737  0.00  0.00    +0.000 NA
ATOM     27  C   UNL     1       7.661   5.700  19.255  0.00  0.00    +0.000 A 
ATOM     28  C   UNL     1       6.582   5.115  18.619  0.00  0.00    +0.000 A 
ATOM     29  N   UNL     1       5.846   3.987  18.871  0.00  0.00    +0.000 N 
ATOM     30  H   UNL     1       5.994   3.335  19.628  0.00  0.00    +0.000 HD
ENDBRANCH  20  21
ENDBRANCH  19  20
ENDBRANCH   2  19
TORSDOF 4
ENDMDL
MODEL 5
REMARK VINA RESULT:      -8.4      1.934      3.738
REMARK  Name = 
REMARK  4 active torsions:
REMARK  status: ('A' for Active; 'I' for Inactive)
REMARK    1  A    between atoms: C_2  and  C_3
REMARK    2  A    between atoms: C_3  and  C_4
REMARK    3  A    between atoms: C_4  and  C_5
REMARK    4  A    between atoms: N_14  and  C_15
REMARK                            x       y       z     vdW  Elec       q    Type
REMARK                         _______ _______ _______ _____ _____    ______ ____
ROOT
ATOM      1  O   UNL     1       5.464   6.733  17.568  0.00  0.00    +0.000 OA
ATOM      2  C   UNL     1       4.500   6.133  17.099  0.00  0.00    +0.000 C 
ATOM      3  N   UNL     1       3.173   6.310  17.448  0.00  0.00    +0.000 N 
ATOM      4  H   UNL     1       2.541   5.541  17.217  0.00  0.00    +0.000 HD
ENDROOT
BRANCH   3   5
ATOM      5  C   UNL     1       2.645   7.367  18.227  0.00  0.00    +0.000 A 
ATOM      6  C   UNL     1       2.374   8.626  17.683  0.00  0.00    +0.000 A 
ATOM      7  C   UNL     1       1.811   9.659  18.441  0.00  0.00    +0.000 A 
ATOM      8  C   UNL     1       1.516   9.384  19.775  0.00  0.00    +0.000 A 
ATOM      9  C   UNL     1       1.771   8.145  20.356  0.00  0.00    +0.000 A 
ATOM     10  C   UNL     1       2.341   7.118  19.577  0.00  0.00    +0.000 A 
ATOM     11  N   UNL     1       1.380   8.140  21.676  0.00  0.00    +0.000 NA
ATOM     12  C   UNL     1       0.876   9.337  21.908  0.00  0.00    +0.000 A 
ATOM     13  N   UNL     1       0.946  10.123  20.782  0.00  0.00    +0.000 N 
ATOM     14  C   UNL     1       0.444  11.477  20.676  0.00  0.00    +0.000 C 
ATOM     15  C   UNL     1      -1.066  11.564  20.884  0.00  0.00    +0.000 C 
ATOM     16  C   UNL     1      -1.482  11.496  22.354  0.00  0.00    +0.000 C 
ATOM     17  C   UNL     1      -1.213  10.152  23.040  0.00  0.00    +0.000 C 
ATOM     18  C   UNL     1       0.271   9.810  23.187  0.00  0.00    +0.000 C 
ENDBRANCH   3   5
BRANCH   2  19
ATOM     19  C   UNL     1       4.729   5.048  16.064  0.00  0.00    +0.000 C 
BRANCH  19  20
ATOM     20  C   UNL     1       5.062   3.718  16.726  0.00  0.00    +0.000 C 
BRANCH  20  21
ATOM     21  C   UNL     1       4.140   3.418  17.857  0.00  0.00    +0.000 A 
ATOM     22  N   UNL     1       2.822   3.456  17.817  0.00  0.00    +0.000 NA
ATOM     23  C   UNL     1       2.406   3.148  19.089  0.00  0.00    +0.000 A 
ATOM     24  C   UNL     1       1.116   3.049  19.602  0.00  0.00    +0.000 A 
ATOM     25  C   UNL     1       1.033   2.731  20.947  0.00  0.00    +0.000 A 
ATOM     26  N   UNL     1       2.094   2.517  21.764  0.00  0.00    +0.000 NA
ATOM     27  C   UNL     1       3.348   2.616  21.261  0.00  0.00    +0.000 A 
ATOM     28  C   UNL     1       3.495   2.930  19.923  0.00  0.00    +0.000 A 
ATOM     29  N   UNL     1       4.588   3.106  19.117  0.00  0.00    +0.000 N 
ATOM     30  H   UNL     1       5.555   3.036  19.400  0.00  0.00    +0.000 HD
ENDBRANCH  20  21
ENDBRANCH  19  20
ENDBRANCH   2  19
TORSDOF 4
ENDMDL
MODEL 6
REMARK VINA RESULT:      -8.3      1.566      2.087
REMARK  Name = 
REMARK  4 active torsions:
REMARK  status: ('A' for Active; 'I' for Inactive)
REMARK    1  A    between atoms: C_2  and  C_3
REMARK    2  A    between atoms: C_3  and  C_4
REMARK    3  A    between atoms: C_4  and  C_5
REMARK    4  A    between atoms: N_14  and  C_15
REMARK                            x       y       z     vdW  Elec       q    Type
REMARK                         _______ _______ _______ _____ _____    ______ ____
ROOT
ATOM      1  O   UNL     1       2.183   7.108  18.580  0.00  0.00    +0.000 OA
ATOM      2  C   UNL     1       2.312   6.745  19.747  0.00  0.00    +0.000 C 
ATOM      3  N   UNL     1       1.961   7.465  20.875  0.00  0.00    +0.000 N 
ATOM      4  H   UNL     1       2.410   7.181  21.748  0.00  0.00    +0.000 HD
ENDROOT
BRANCH   3   5
ATOM      5  C   UNL     1       1.177   8.643  20.907  0.00  0.00    +0.000 A 
ATOM      6  C   UNL     1       0.910   9.388  19.755  0.00  0.00    +0.000 A 
ATOM      7  C   UNL     1       0.099  10.528  19.776  0.00  0.00    +0.000 A 
ATOM      8  C   UNL     1      -0.451  10.897  21.003  0.00  0.00    +0.000 A 
ATOM      9  C   UNL     1      -0.209  10.185  22.174  0.00  0.00    +0.000 A 
ATOM     10  C   UNL     1       0.613   9.040  22.132  0.00  0.00    +0.000 A 
ATOM     11  N   UNL     1      -0.875  10.757  23.235  0.00  0.00    +0.000 NA
ATOM     12  C   UNL     1      -1.531  11.787  22.735  0.00  0.00    +0.000 A 
ATOM     13  N   UNL     1      -1.294  11.910  21.387  0.00  0.00    +0.000 N 
ATOM     14  C   UNL     1      -1.890  12.907  20.522  0.00  0.00    +0.000 C 
ATOM     15  C   UNL     1      -3.410  12.790  20.446  0.00  0.00    +0.000 C 
ATOM     16  C   UNL     1      -4.127  13.378  21.663  0.00  0.00    +0.000 C 
ATOM     17  C   UNL     1      -3.884  12.631  22.979  0.00  0.00    +0.000 C 
ATOM     18  C   UNL     1      -2.441  12.703  23.483  0.00  0.00    +0.000 C 
ENDBRANCH   3   5
BRANCH   2  19
ATOM     19  C   UNL     1       2.952   5.403  20.043  0.00  0.00    +0.000 C 
BRANCH  19  20
ATOM     20  C   UNL     1       2.786   4.444  18.872  0.00  0.00    +0.000 C 
BRANCH  20  21
ATOM     21  C   UNL     1       3.879   4.599  17.871  0.00  0.00    +0.000 A 
ATOM     22  N   UNL     1       3.993   3.939  16.735  0.00  0.00    +0.000 NA
ATOM     23  C   UNL     1       5.164   4.379  16.170  0.00  0.00    +0.000 A 
ATOM     24  C   UNL     1       5.764   4.011  14.969  0.00  0.00    +0.000 A 
ATOM     25  C   UNL     1       6.967   4.636  14.688  0.00  0.00    +0.000 A 
ATOM     26  N   UNL     1       7.572   5.554  15.482  0.00  0.00    +0.000 NA
ATOM     27  C   UNL     1       6.986   5.908  16.651  0.00  0.00    +0.000 A 
ATOM     28  C   UNL     1       5.782   5.317  16.986  0.00  0.00    +0.000 A 
ATOM     29  N   UNL     1       4.945   5.443  18.063  0.00  0.00    +0.000 N 
ATOM     30  H   UNL     1       5.092   6.037  18.867  0.00  0.00    +0.000 HD
ENDBRANCH  20  21
ENDBRANCH  19  20
ENDBRANCH   2  19
TORSDOF 4
ENDMDL
MODEL 7
REMARK VINA RESULT:      -8.3      6.830      7.889
REMARK  Name = 
REMARK  4 active torsions:
REMARK  status: ('A' for Active; 'I' for Inactive)
REMARK    1  A    between atoms: C_2  and  C_3
REMARK    2  A    between atoms: C_3  and  C_4
REMARK    3  A    between atoms: C_4  and  C_5
REMARK    4  A    between atoms: N_14  and  C_15
REMARK                            x       y       z     vdW  Elec       q    Type
REMARK                         _______ _______ _______ _____ _____    ______ ____
ROOT
ATOM      1  O   UNL     1       7.543   8.513  17.231  0.00  0.00    +0.000 OA
ATOM      2  C   UNL     1       8.077   8.025  18.224  0.00  0.00    +0.000 C 
ATOM      3  N   UNL     1       8.952   8.664  19.085  0.00  0.00    +0.000 N 
ATOM      4  H   UNL     1       9.544   8.058  19.656  0.00  0.00    +0.000 HD
ENDROOT
BRANCH   3   5
ATOM      5  C   UNL     1       9.217  10.053  19.131  0.00  0.00    +0.000 A 
ATOM      6  C   UNL     1       9.236  10.844  17.978  0.00  0.00    +0.000 A 
ATOM      7  C   UNL     1       9.455  12.225  18.025  0.00  0.00    +0.000 A 
ATOM      8  C   UNL     1       9.646  12.798  19.282  0.00  0.00    +0.000 A 
ATOM      9  C   UNL     1       9.635  12.048  20.454  0.00  0.00    +0.000 A 
ATOM     10  C   UNL     1       9.417  10.657  20.385  0.00  0.00    +0.000 A 
ATOM     11  N   UNL     1       9.841  12.857  21.548  0.00  0.00    +0.000 NA
ATOM     12  C   UNL     1       9.955  14.083  21.074  0.00  0.00    +0.000 A 
ATOM     13  N   UNL     1       9.850  14.089  19.704  0.00  0.00    +0.000 N 
ATOM     14  C   UNL     1       9.888  15.271  18.868  0.00  0.00    +0.000 C 
ATOM     15  C   UNL     1       8.743  16.236  19.158  0.00  0.00    +0.000 C 
ATOM     16  C   UNL     1       8.963  17.083  20.412  0.00  0.00    +0.000 C 
ATOM     17  C   UNL     1       8.969  16.298  21.729  0.00  0.00    +0.000 C 
ATOM     18  C   UNL     1      10.143  15.328  21.876  0.00  0.00    +0.000 C 
ENDBRANCH   3   5
BRANCH   2  19
ATOM     19  C   UNL     1       7.824   6.569  18.566  0.00  0.00    +0.000 C 
BRANCH  19  20
ATOM     20  C   UNL     1       7.259   5.814  17.370  0.00  0.00    +0.000 C 
BRANCH  20  21
ATOM     21  C   UNL     1       5.986   5.118  17.707  0.00  0.00    +0.000 A 
ATOM     22  N   UNL     1       4.778   5.472  17.312  0.00  0.00    +0.000 NA
ATOM     23  C   UNL     1       3.922   4.571  17.894  0.00  0.00    +0.000 A 
ATOM     24  C   UNL     1       2.535   4.482  17.811  0.00  0.00    +0.000 A 
ATOM     25  C   UNL     1       1.960   3.453  18.538  0.00  0.00    +0.000 A 
ATOM     26  N   UNL     1       2.642   2.558  19.294  0.00  0.00    +0.000 NA
ATOM     27  C   UNL     1       3.991   2.648  19.373  0.00  0.00    +0.000 A 
ATOM     28  C   UNL     1       4.623   3.656  18.669  0.00  0.00    +0.000 A 
ATOM     29  N   UNL     1       5.936   4.023  18.533  0.00  0.00    +0.000 N 
ATOM     30  H   UNL     1       6.728   3.580  18.977  0.00  0.00    +0.000 HD
ENDBRANCH  20  21
ENDBRANCH  19  20
ENDBRANCH   2  19
TORSDOF 4
ENDMDL
MODEL 8
REMARK VINA RESULT:      -8.3      1.085      1.440
REMARK  Name = 
REMARK  4 active torsions:
REMARK  status: ('A' for Active; 'I' for Inactive)
REMARK    1  A    between atoms: C_2  and  C_3
REMARK    2  A    between atoms: C_3  and  C_4
REMARK    3  A    between atoms: C_4  and  C_5
REMARK    4  A    between atoms: N_14  and  C_15
REMARK                            x       y       z     vdW  Elec       q    Type
REMARK                         _______ _______ _______ _____ _____    ______ ____
ROOT
ATOM      1  O   UNL     1       0.704   5.005  20.505  0.00  0.00    +0.000 OA
ATOM      2  C   UNL     1       1.910   5.241  20.483  0.00  0.00    +0.000 C 
ATOM      3  N   UNL     1       2.501   6.474  20.267  0.00  0.00    +0.000 N 
ATOM      4  H   UNL     1       3.477   6.457  19.964  0.00  0.00    +0.000 HD
ENDROOT
BRANCH   3   5
ATOM      5  C   UNL     1       1.848   7.729  20.267  0.00  0.00    +0.000 A 
ATOM      6  C   UNL     1       1.569   8.420  19.084  0.00  0.00    +0.000 A 
ATOM      7  C   UNL     1       0.884   9.640  19.078  0.00  0.00    +0.000 A 
ATOM      8  C   UNL     1       0.473  10.147  20.310  0.00  0.00    +0.000 A 
ATOM      9  C   UNL     1       0.732   9.492  21.511  0.00  0.00    +0.000 A 
ATOM     10  C   UNL     1       1.426   8.265  21.496  0.00  0.00    +0.000 A 
ATOM     11  N   UNL     1       0.215  10.203  22.570  0.00  0.00    +0.000 NA
ATOM     12  C   UNL     1      -0.369  11.262  22.044  0.00  0.00    +0.000 A 
ATOM     13  N   UNL     1      -0.228  11.269  20.677  0.00  0.00    +0.000 N 
ATOM     14  C   UNL     1      -0.784  12.265  19.784  0.00  0.00    +0.000 C 
ATOM     15  C   UNL     1      -2.309  12.308  19.826  0.00  0.00    +0.000 C 
ATOM     16  C   UNL     1      -2.864  13.050  21.044  0.00  0.00    +0.000 C 
ATOM     17  C   UNL     1      -2.597  12.370  22.391  0.00  0.00    +0.000 C 
ATOM     18  C   UNL     1      -1.119  12.319  22.785  0.00  0.00    +0.000 C 
ENDBRANCH   3   5
BRANCH   2  19
ATOM     19  C   UNL     1       2.895   4.103  20.659  0.00  0.00    +0.000 C 
BRANCH  19  20
ATOM     20  C   UNL     1       3.176   3.408  19.333  0.00  0.00    +0.000 C 
BRANCH  20  21
ATOM     21  C   UNL     1       4.277   4.074  18.583  0.00  0.00    +0.000 A 
ATOM     22  N   UNL     1       4.869   5.206  18.912  0.00  0.00    +0.000 NA
ATOM     23  C   UNL     1       5.784   5.445  17.916  0.00  0.00    +0.000 A 
ATOM     24  C   UNL     1       6.676   6.504  17.765  0.00  0.00    +0.000 A 
ATOM     25  C   UNL     1       7.464   6.459  16.628  0.00  0.00    +0.000 A 
ATOM     26  N   UNL     1       7.424   5.482  15.689  0.00  0.00    +0.000 NA
ATOM     27  C   UNL     1       6.553   4.455  15.839  0.00  0.00    +0.000 A 
ATOM     28  C   UNL     1       5.739   4.444  16.956  0.00  0.00    +0.000 A 
ATOM     29  N   UNL     1       4.773   3.580  17.402  0.00  0.00    +0.000 N 
ATOM     30  H   UNL     1       4.466   2.738  16.937  0.00  0.00    +0.000 HD
ENDBRANCH  20  21
ENDBRANCH  19  20
ENDBRANCH   2  19
TORSDOF 4
ENDMDL
MODEL 9
REMARK VINA RESULT:      -8.2      6.547      8.152
REMARK  Name = 
REMARK  4 active torsions:
REMARK  status: ('A' for Active; 'I' for Inactive)
REMARK    1  A    between atoms: C_2  and  C_3
REMARK    2  A    between atoms: C_3  and  C_4
REMARK    3  A    between atoms: C_4  and  C_5
REMARK    4  A    between atoms: N_14  and  C_15
REMARK                            x       y       z     vdW  Elec       q    Type
REMARK                         _______ _______ _______ _____ _____    ______ ____
ROOT
ATOM      1  O   UNL     1       8.078   6.867  18.952  0.00  0.00    +0.000 OA
ATOM      2  C   UNL     1       7.726   7.226  17.830  0.00  0.00    +0.000 C 
ATOM      3  N   UNL     1       7.688   8.526  17.358  0.00  0.00    +0.000 N 
ATOM      4  H   UNL     1       7.087   8.693  16.549  0.00  0.00    +0.000 HD
ENDROOT
BRANCH   3   5
ATOM      5  C   UNL     1       8.264   9.660  17.978  0.00  0.00    +0.000 A 
ATOM      6  C   UNL     1       9.156   9.547  19.050  0.00  0.00    +0.000 A 
ATOM      7  C   UNL     1       9.761  10.664  19.636  0.00  0.00    +0.000 A 
ATOM      8  C   UNL     1       9.448  11.914  19.102  0.00  0.00    +0.000 A 
ATOM      9  C   UNL     1       8.565  12.071  18.037  0.00  0.00    +0.000 A 
ATOM     10  C   UNL     1       7.963  10.932  17.462  0.00  0.00    +0.000 A 
ATOM     11  N   UNL     1       8.440  13.400  17.705  0.00  0.00    +0.000 NA
ATOM     12  C   UNL     1       9.239  14.055  18.526  0.00  0.00    +0.000 A 
ATOM     13  N   UNL     1       9.863  13.190  19.393  0.00  0.00    +0.000 N 
ATOM     14  C   UNL     1      10.836  13.569  20.396  0.00  0.00    +0.000 C 
ATOM     15  C   UNL     1      12.095  14.186  19.792  0.00  0.00    +0.000 C 
ATOM     16  C   UNL     1      11.916  15.647  19.374  0.00  0.00    +0.000 C 
ATOM     17  C   UNL     1      10.945  15.870  18.209  0.00  0.00    +0.000 C 
ATOM     18  C   UNL     1       9.490  15.526  18.531  0.00  0.00    +0.000 C 
ENDBRANCH   3   5
BRANCH   2  19
ATOM     19  C   UNL     1       7.231   6.192  16.838  0.00  0.00    +0.000 C 
BRANCH  19  20
ATOM     20  C   UNL     1       7.255   4.794  17.443  0.00  0.00    +0.000 C 
BRANCH  20  21
ATOM     21  C   UNL     1       5.888   4.324  17.801  0.00  0.00    +0.000 A 
ATOM     22  N   UNL     1       4.803   4.448  17.060  0.00  0.00    +0.000 NA
ATOM     23  C   UNL     1       3.784   3.911  17.807  0.00  0.00    +0.000 A 
ATOM     24  C   UNL     1       2.431   3.786  17.504  0.00  0.00    +0.000 A 
ATOM     25  C   UNL     1       1.652   3.205  18.489  0.00  0.00    +0.000 A 
ATOM     26  N   UNL     1       2.110   2.765  19.687  0.00  0.00    +0.000 NA
ATOM     27  C   UNL     1       3.426   2.890  19.980  0.00  0.00    +0.000 A 
ATOM     28  C   UNL     1       4.256   3.463  19.033  0.00  0.00    +0.000 A 
ATOM     29  N   UNL     1       5.599   3.734  19.007  0.00  0.00    +0.000 N 
ATOM     30  H   UNL     1       6.259   3.551  19.749  0.00  0.00    +0.000 HD
ENDBRANCH  20  21
ENDBRANCH  19  20
ENDBRANCH   2  19
TORSDOF 4
ENDMDL
