MODEL 1
REMARK VINA RESULT:      -8.1      0.000      0.000
REMARK  Name = 
REMARK  4 active torsions:
REMARK  status: ('A' for Active; 'I' for Inactive)
REMARK    1  A    between atoms: C_5  and  C_6
REMARK    2  A    between atoms: C_9  and  C_10
REMARK    3  A    between atoms: N_22  and  C_23
REMARK    4  A    between atoms: C_23  and  C_24
REMARK                            x       y       z     vdW  Elec       q    Type
REMARK                         _______ _______ _______ _____ _____    ______ ____
ROOT
ATOM      1  C   UNL     1       0.638   9.676  19.443  0.00  0.00    +0.000 A 
ATOM      2  N   UNL     1       0.694   9.222  20.701  0.00  0.00    +0.000 NA
ATOM      3  O   UNL     1       1.562   8.122  20.604  0.00  0.00    +0.000 OA
ATOM      4  C   UNL     1       1.934   8.030  19.291  0.00  0.00    +0.000 A 
ATOM      5  N   UNL     1       1.410   8.978  18.551  0.00  0.00    +0.000 NA
ENDROOT
BRANCH   4   6
ATOM      6  C   UNL     1       2.777   6.918  18.891  0.00  0.00    +0.000 A 
ATOM      7  C   UNL     1       3.631   6.965  17.775  0.00  0.00    +0.000 A 
ATOM      8  C   UNL     1       4.468   5.875  17.439  0.00  0.00    +0.000 A 
ATOM      9  C   UNL     1       4.475   4.704  18.193  0.00  0.00    +0.000 A 
ATOM     10  C   UNL     1       3.626   4.665  19.274  0.00  0.00    +0.000 A 
ATOM     11  N   UNL     1       3.419   3.645  20.195  0.00  0.00    +0.000 N 
ATOM     12  C   UNL     1       2.462   4.062  21.133  0.00  0.00    +0.000 A 
ATOM     13  O   UNL     1       2.042   3.407  22.070  0.00  0.00    +0.000 OA
ATOM     14  N   UNL     1       2.097   5.363  20.767  0.00  0.00    +0.000 N 
ATOM     15  C   UNL     1       2.803   5.737  19.618  0.00  0.00    +0.000 A 
ATOM     16  H   UNL     1       3.871   2.744  20.228  0.00  0.00    +0.000 HD
ATOM     17  H   UNL     1       1.453   5.945  21.285  0.00  0.00    +0.000 HD
ENDBRANCH   4   6
BRANCH   1  22
ATOM     18  O   UNL     1       1.596  13.324  21.656  0.00  0.00    +0.000 OA
ATOM     19  C   UNL     1       0.910  12.731  20.822  0.00  0.00    +0.000 C 
ATOM     20  C   UNL     1       1.435  12.603  19.398  0.00  0.00    +0.000 C 
ATOM     21  C   UNL     1       0.497  11.958  18.390  0.00  0.00    +0.000 C 
ATOM     22  C   UNL     1      -0.268  10.789  19.008  0.00  0.00    +0.000 C 
ATOM     23  C   UNL     1      -1.088  11.366  20.167  0.00  0.00    +0.000 C 
ATOM     24  N   UNL     1      -0.290  12.109  21.143  0.00  0.00    +0.000 N 
BRANCH  24  25
ATOM     25  C   UNL     1      -0.755  12.108  22.531  0.00  0.00    +0.000 C 
BRANCH  25  26
ATOM     26  C   UNL     1      -1.919  13.078  22.837  0.00  0.00    +0.000 C 
ATOM     27  C   UNL     1      -1.453  14.227  23.748  0.00  0.00    +0.000 C 
ATOM     28  C   UNL     1      -2.567  14.878  24.553  0.00  0.00    +0.000 C 
ATOM     29  O   UNL     1      -3.367  13.898  25.204  0.00  0.00    +0.000 OA
ATOM     30  C   UNL     1      -4.057  13.088  24.261  0.00  0.00    +0.000 C 
ATOM     31  C   UNL     1      -3.075  12.263  23.447  0.00  0.00    +0.000 C 
ENDBRANCH  25  26
ENDBRANCH  24  25
ENDBRANCH   1  22
TORSDOF 4
ENDMDL
MODEL 2
REMARK VINA RESULT:      -8.0      3.369      9.927
REMARK  Name = 
REMARK  4 active torsions:
REMARK  status: ('A' for Active; 'I' for Inactive)
REMARK    1  A    between atoms: C_5  and  C_6
REMARK    2  A    between atoms: C_9  and  C_10
REMARK    3  A    between atoms: N_22  and  C_23
REMARK    4  A    between atoms: C_23  and  C_24
REMARK                            x       y       z     vdW  Elec       q    Type
REMARK                         _______ _______ _______ _____ _____    ______ ____
ROOT
ATOM      1  C   UNL     1       2.292   4.651  19.099  0.00  0.00    +0.000 A 
ATOM      2  N   UNL     1       2.248   4.805  20.429  0.00  0.00    +0.000 NA
ATOM      3  O   UNL     1       2.005   6.179  20.582  0.00  0.00    +0.000 OA
ATOM      4  C   UNL     1       1.932   6.708  19.322  0.00  0.00    +0.000 A 
ATOM      5  N   UNL     1       2.077   5.801  18.385  0.00  0.00    +0.000 NA
ENDROOT
BRANCH   4   6
ATOM      6  C   UNL     1       1.764   8.144  19.187  0.00  0.00    +0.000 A 
ATOM      7  C   UNL     1       2.017   8.837  17.989  0.00  0.00    +0.000 A 
ATOM      8  C   UNL     1       1.804  10.232  17.885  0.00  0.00    +0.000 A 
ATOM      9  C   UNL     1       1.345  10.981  18.966  0.00  0.00    +0.000 A 
ATOM     10  C   UNL     1       1.115  10.294  20.135  0.00  0.00    +0.000 A 
ATOM     11  N   UNL     1       0.662  10.769  21.360  0.00  0.00    +0.000 N 
ATOM     12  C   UNL     1       0.570   9.696  22.260  0.00  0.00    +0.000 A 
ATOM     13  O   UNL     1       0.214   9.764  23.424  0.00  0.00    +0.000 OA
ATOM     14  N   UNL     1       0.968   8.556  21.553  0.00  0.00    +0.000 N 
ATOM     15  C   UNL     1       1.314   8.918  20.246  0.00  0.00    +0.000 A 
ATOM     16  H   UNL     1       0.416  11.716  21.601  0.00  0.00    +0.000 HD
ATOM     17  H   UNL     1       0.962   7.617  21.928  0.00  0.00    +0.000 HD
ENDBRANCH   4   6
BRANCH   1  22
ATOM     18  O   UNL     1       6.605   4.473  18.402  0.00  0.00    +0.000 OA
ATOM     19  C   UNL     1       5.487   3.965  18.306  0.00  0.00    +0.000 C 
ATOM     20  C   UNL     1       4.926   3.198  19.495  0.00  0.00    +0.000 C 
ATOM     21  C   UNL     1       3.591   2.502  19.277  0.00  0.00    +0.000 C 
ATOM     22  C   UNL     1       2.648   3.356  18.432  0.00  0.00    +0.000 C 
ATOM     23  C   UNL     1       3.338   3.562  17.079  0.00  0.00    +0.000 C 
ATOM     24  N   UNL     1       4.685   4.127  17.183  0.00  0.00    +0.000 N 
BRANCH  24  25
ATOM     25  C   UNL     1       5.149   4.965  16.077  0.00  0.00    +0.000 C 
BRANCH  25  26
ATOM     26  C   UNL     1       6.138   4.285  15.104  0.00  0.00    +0.000 C 
ATOM     27  C   UNL     1       7.247   5.262  14.674  0.00  0.00    +0.000 C 
ATOM     28  C   UNL     1       7.901   4.919  13.344  0.00  0.00    +0.000 C 
ATOM     29  O   UNL     1       6.923   4.663  12.345  0.00  0.00    +0.000 OA
ATOM     30  C   UNL     1       6.160   3.505  12.656  0.00  0.00    +0.000 C 
ATOM     31  C   UNL     1       5.335   3.732  13.912  0.00  0.00    +0.000 C 
ENDBRANCH  25  26
ENDBRANCH  24  25
ENDBRANCH   1  22
TORSDOF 4
ENDMDL
MODEL 3
REMARK VINA RESULT:      -8.0      3.616     10.161
REMARK  Name = 
REMARK  4 active torsions:
REMARK  status: ('A' for Active; 'I' for Inactive)
REMARK    1  A    between atoms: C_5  and  C_6
REMARK    2  A    between atoms: C_9  and  C_10
REMARK    3  A    between atoms: N_22  and  C_23
REMARK    4  A    between atoms: C_23  and  C_24
REMARK                            x       y       z     vdW  Elec       q    Type
REMARK                         _______ _______ _______ _____ _____    ______ ____
ROOT
ATOM      1  C   UNL     1       2.826   6.173  18.792  0.00  0.00    +0.000 A 
ATOM      2  N   UNL     1       2.905   7.143  17.872  0.00  0.00    +0.000 NA
ATOM      3  O   UNL     1       2.282   8.232  18.504  0.00  0.00    +0.000 OA
ATOM      4  C   UNL     1       1.891   7.797  19.740  0.00  0.00    +0.000 A 
ATOM      5  N   UNL     1       2.227   6.549  19.966  0.00  0.00    +0.000 NA
ENDROOT
BRANCH   4   6
ATOM      6  C   UNL     1       1.141   8.709  20.585  0.00  0.00    +0.000 A 
ATOM      7  C   UNL     1       1.225   8.699  21.989  0.00  0.00    +0.000 A 
ATOM      8  C   UNL     1       0.509   9.630  22.778  0.00  0.00    +0.000 A 
ATOM      9  C   UNL     1      -0.317  10.590  22.199  0.00  0.00    +0.000 A 
ATOM     10  C   UNL     1      -0.402  10.581  20.827  0.00  0.00    +0.000 A 
ATOM     11  N   UNL     1      -1.136  11.407  19.984  0.00  0.00    +0.000 N 
ATOM     12  C   UNL     1      -0.900  11.029  18.653  0.00  0.00    +0.000 A 
ATOM     13  O   UNL     1      -1.394  11.539  17.664  0.00  0.00    +0.000 OA
ATOM     14  N   UNL     1       0.001   9.959  18.704  0.00  0.00    +0.000 N 
ATOM     15  C   UNL     1       0.306   9.673  20.040  0.00  0.00    +0.000 A 
ATOM     16  H   UNL     1      -1.740  12.171  20.244  0.00  0.00    +0.000 HD
ATOM     17  H   UNL     1       0.396   9.503  17.893  0.00  0.00    +0.000 HD
ENDBRANCH   4   6
BRANCH   1  22
ATOM     18  O   UNL     1       7.078   6.079  17.777  0.00  0.00    +0.000 OA
ATOM     19  C   UNL     1       6.011   5.491  17.954  0.00  0.00    +0.000 C 
ATOM     20  C   UNL     1       5.608   5.113  19.373  0.00  0.00    +0.000 C 
ATOM     21  C   UNL     1       4.335   4.293  19.515  0.00  0.00    +0.000 C 
ATOM     22  C   UNL     1       3.259   4.760  18.537  0.00  0.00    +0.000 C 
ATOM     23  C   UNL     1       3.832   4.565  17.129  0.00  0.00    +0.000 C 
ATOM     24  N   UNL     1       5.122   5.225  16.920  0.00  0.00    +0.000 N 
BRANCH  24  25
ATOM     25  C   UNL     1       5.426   5.690  15.566  0.00  0.00    +0.000 C 
BRANCH  25  26
ATOM     26  C   UNL     1       6.327   4.752  14.733  0.00  0.00    +0.000 C 
ATOM     27  C   UNL     1       7.435   5.545  14.017  0.00  0.00    +0.000 C 
ATOM     28  C   UNL     1       7.989   4.863  12.775  0.00  0.00    +0.000 C 
ATOM     29  O   UNL     1       6.939   4.418  11.925  0.00  0.00    +0.000 OA
ATOM     30  C   UNL     1       6.164   3.405  12.552  0.00  0.00    +0.000 C 
ATOM     31  C   UNL     1       5.431   3.964  13.759  0.00  0.00    +0.000 C 
ENDBRANCH  25  26
ENDBRANCH  24  25
ENDBRANCH   1  22
TORSDOF 4
ENDMDL
MODEL 4
REMARK VINA RESULT:      -7.9      3.592      4.655
REMARK  Name = 
REMARK  4 active torsions:
REMARK  status: ('A' for Active; 'I' for Inactive)
REMARK    1  A    between atoms: C_5  and  C_6
REMARK    2  A    between atoms: C_9  and  C_10
REMARK    3  A    between atoms: N_22  and  C_23
REMARK    4  A    between atoms: C_23  and  C_24
REMARK                            x       y       z     vdW  Elec       q    Type
REMARK                         _______ _______ _______ _____ _____    ______ ____
ROOT
ATOM      1  C   UNL     1       1.598   9.222  19.258  0.00  0.00    +0.000 A 
ATOM      2  N   UNL     1       2.037   9.708  18.090  0.00  0.00    +0.000 NA
ATOM      3  O   UNL     1       2.549   8.572  17.444  0.00  0.00    +0.000 OA
ATOM      4  C   UNL     1       2.365   7.519  18.297  0.00  0.00    +0.000 A 
ATOM      5  N   UNL     1       1.763   7.869  19.409  0.00  0.00    +0.000 NA
ENDROOT
BRANCH   4   6
ATOM      6  C   UNL     1       2.882   6.219  17.907  0.00  0.00    +0.000 A 
ATOM      7  C   UNL     1       2.102   5.048  17.919  0.00  0.00    +0.000 A 
ATOM      8  C   UNL     1       2.630   3.806  17.494  0.00  0.00    +0.000 A 
ATOM      9  C   UNL     1       3.947   3.686  17.057  0.00  0.00    +0.000 A 
ATOM     10  C   UNL     1       4.703   4.835  17.064  0.00  0.00    +0.000 A 
ATOM     11  N   UNL     1       6.029   5.019  16.689  0.00  0.00    +0.000 N 
ATOM     12  C   UNL     1       6.368   6.370  16.857  0.00  0.00    +0.000 A 
ATOM     13  O   UNL     1       7.455   6.871  16.630  0.00  0.00    +0.000 OA
ATOM     14  N   UNL     1       5.217   7.007  17.335  0.00  0.00    +0.000 N 
ATOM     15  C   UNL     1       4.190   6.066  17.473  0.00  0.00    +0.000 A 
ATOM     16  H   UNL     1       6.671   4.326  16.337  0.00  0.00    +0.000 HD
ATOM     17  H   UNL     1       5.140   7.999  17.508  0.00  0.00    +0.000 HD
ENDBRANCH   4   6
BRANCH   1  22
ATOM     18  O   UNL     1      -1.332  12.041  17.651  0.00  0.00    +0.000 OA
ATOM     19  C   UNL     1      -0.693  11.594  18.604  0.00  0.00    +0.000 C 
ATOM     20  C   UNL     1      -1.215  10.355  19.320  0.00  0.00    +0.000 C 
ATOM     21  C   UNL     1      -0.443   9.917  20.555  0.00  0.00    +0.000 C 
ATOM     22  C   UNL     1       1.063  10.084  20.361  0.00  0.00    +0.000 C 
ATOM     23  C   UNL     1       1.309  11.577  20.113  0.00  0.00    +0.000 C 
ATOM     24  N   UNL     1       0.524  12.129  19.008  0.00  0.00    +0.000 N 
BRANCH  24  25
ATOM     25  C   UNL     1       1.110  13.241  18.257  0.00  0.00    +0.000 C 
BRANCH  25  26
ATOM     26  C   UNL     1       1.097  14.605  18.983  0.00  0.00    +0.000 C 
ATOM     27  C   UNL     1      -0.238  15.336  18.757  0.00  0.00    +0.000 C 
ATOM     28  C   UNL     1      -0.157  16.847  18.914  0.00  0.00    +0.000 C 
ATOM     29  O   UNL     1       0.937  17.380  18.178  0.00  0.00    +0.000 OA
ATOM     30  C   UNL     1       2.178  16.918  18.696  0.00  0.00    +0.000 C 
ATOM     31  C   UNL     1       2.313  15.418  18.499  0.00  0.00    +0.000 C 
ENDBRANCH  25  26
ENDBRANCH  24  25
ENDBRANCH   1  22
TORSDOF 4
ENDMDL
MODEL 5
REMARK VINA RESULT:      -7.9      3.142      9.474
REMARK  Name = 
REMARK  4 active torsions:
REMARK  status: ('A' for Active; 'I' for Inactive)
REMARK    1  A    between atoms: C_5  and  C_6
REMARK    2  A    between atoms: C_9  and  C_10
REMARK    3  A    between atoms: N_22  and  C_23
REMARK    4  A    between atoms: C_23  and  C_24
REMARK                            x       y       z     vdW  Elec       q    Type
REMARK                         _______ _______ _______ _____ _____    ______ ____
ROOT
ATOM      1  C   UNL     1       1.608   5.032  19.813  0.00  0.00    +0.000 A 
ATOM      2  N   UNL     1       2.668   5.655  19.283  0.00  0.00    +0.000 NA
ATOM      3  O   UNL     1       2.514   6.978  19.727  0.00  0.00    +0.000 OA
ATOM      4  C   UNL     1       1.371   7.010  20.477  0.00  0.00    +0.000 A 
ATOM      5  N   UNL     1       0.799   5.833  20.576  0.00  0.00    +0.000 NA
ENDROOT
BRANCH   4   6
ATOM      6  C   UNL     1       0.926   8.290  21.000  0.00  0.00    +0.000 A 
ATOM      7  C   UNL     1       0.297   8.431  22.250  0.00  0.00    +0.000 A 
ATOM      8  C   UNL     1      -0.088   9.700  22.744  0.00  0.00    +0.000 A 
ATOM      9  C   UNL     1       0.131  10.863  22.008  0.00  0.00    +0.000 A 
ATOM     10  C   UNL     1       0.734  10.710  20.782  0.00  0.00    +0.000 A 
ATOM     11  N   UNL     1       1.074  11.675  19.841  0.00  0.00    +0.000 N 
ATOM     12  C   UNL     1       1.683  11.049  18.743  0.00  0.00    +0.000 A 
ATOM     13  O   UNL     1       2.093  11.601  17.738  0.00  0.00    +0.000 OA
ATOM     14  N   UNL     1       1.714   9.681  19.040  0.00  0.00    +0.000 N 
ATOM     15  C   UNL     1       1.124   9.464  20.291  0.00  0.00    +0.000 A 
ATOM     16  H   UNL     1       0.936  12.672  19.904  0.00  0.00    +0.000 HD
ATOM     17  H   UNL     1       2.139   8.977  18.453  0.00  0.00    +0.000 HD
ENDBRANCH   4   6
BRANCH   1  22
ATOM     18  O   UNL     1       5.130   2.506  20.391  0.00  0.00    +0.000 OA
ATOM     19  C   UNL     1       3.944   2.628  20.083  0.00  0.00    +0.000 C 
ATOM     20  C   UNL     1       2.898   2.656  21.189  0.00  0.00    +0.000 C 
ATOM     21  C   UNL     1       1.446   2.698  20.741  0.00  0.00    +0.000 C 
ATOM     22  C   UNL     1       1.263   3.602  19.523  0.00  0.00    +0.000 C 
ATOM     23  C   UNL     1       2.122   3.005  18.402  0.00  0.00    +0.000 C 
ATOM     24  N   UNL     1       3.526   2.817  18.771  0.00  0.00    +0.000 N 
BRANCH  24  25
ATOM     25  C   UNL     1       4.521   2.921  17.703  0.00  0.00    +0.000 C 
BRANCH  25  26
ATOM     26  C   UNL     1       4.845   4.360  17.242  0.00  0.00    +0.000 C 
ATOM     27  C   UNL     1       5.046   4.419  15.718  0.00  0.00    +0.000 C 
ATOM     28  C   UNL     1       5.899   5.585  15.243  0.00  0.00    +0.000 C 
ATOM     29  O   UNL     1       7.099   5.681  15.999  0.00  0.00    +0.000 OA
ATOM     30  C   UNL     1       6.827   5.990  17.360  0.00  0.00    +0.000 C 
ATOM     31  C   UNL     1       6.078   4.849  18.026  0.00  0.00    +0.000 C 
ENDBRANCH  25  26
ENDBRANCH  24  25
ENDBRANCH   1  22
TORSDOF 4
ENDMDL
MODEL 6
REMARK VINA RESULT:      -7.9      3.614      4.962
REMARK  Name = 
REMARK  4 active torsions:
REMARK  status: ('A' for Active; 'I' for Inactive)
REMARK    1  A    between atoms: C_5  and  C_6
REMARK    2  A    between atoms: C_9  and  C_10
REMARK    3  A    between atoms: N_22  and  C_23
REMARK    4  A    between atoms: C_23  and  C_24
REMARK                            x       y       z     vdW  Elec       q    Type
REMARK                         _______ _______ _______ _____ _____    ______ ____
ROOT
ATOM      1  C   UNL     1       1.587   9.278  19.248  0.00  0.00    +0.000 A 
ATOM      2  N   UNL     1       2.041   9.761  18.084  0.00  0.00    +0.000 NA
ATOM      3  O   UNL     1       2.554   8.621  17.445  0.00  0.00    +0.000 OA
ATOM      4  C   UNL     1       2.356   7.570  18.298  0.00  0.00    +0.000 A 
ATOM      5  N   UNL     1       1.744   7.925  19.403  0.00  0.00    +0.000 NA
ENDROOT
BRANCH   4   6
ATOM      6  C   UNL     1       2.871   6.267  17.915  0.00  0.00    +0.000 A 
ATOM      7  C   UNL     1       2.088   5.098  17.931  0.00  0.00    +0.000 A 
ATOM      8  C   UNL     1       2.614   3.853  17.514  0.00  0.00    +0.000 A 
ATOM      9  C   UNL     1       3.932   3.728  17.079  0.00  0.00    +0.000 A 
ATOM     10  C   UNL     1       4.690   4.875  17.081  0.00  0.00    +0.000 A 
ATOM     11  N   UNL     1       6.016   5.055  16.706  0.00  0.00    +0.000 N 
ATOM     12  C   UNL     1       6.358   6.407  16.868  0.00  0.00    +0.000 A 
ATOM     13  O   UNL     1       7.447   6.904  16.640  0.00  0.00    +0.000 OA
ATOM     14  N   UNL     1       5.208   7.047  17.341  0.00  0.00    +0.000 N 
ATOM     15  C   UNL     1       4.179   6.109  17.483  0.00  0.00    +0.000 A 
ATOM     16  H   UNL     1       6.658   4.359  16.359  0.00  0.00    +0.000 HD
ATOM     17  H   UNL     1       5.133   8.041  17.509  0.00  0.00    +0.000 HD
ENDBRANCH   4   6
BRANCH   1  22
ATOM     18  O   UNL     1      -1.434  11.997  17.635  0.00  0.00    +0.000 OA
ATOM     19  C   UNL     1      -0.772  11.582  18.587  0.00  0.00    +0.000 C 
ATOM     20  C   UNL     1      -1.253  10.342  19.329  0.00  0.00    +0.000 C 
ATOM     21  C   UNL     1      -0.454   9.943  20.561  0.00  0.00    +0.000 C 
ATOM     22  C   UNL     1       1.044  10.145  20.344  0.00  0.00    +0.000 C 
ATOM     23  C   UNL     1       1.249  11.639  20.068  0.00  0.00    +0.000 C 
ATOM     24  N   UNL     1       0.436  12.153  18.965  0.00  0.00    +0.000 N 
BRANCH  24  25
ATOM     25  C   UNL     1       0.984  13.267  18.190  0.00  0.00    +0.000 C 
BRANCH  25  26
ATOM     26  C   UNL     1       2.012  14.147  18.936  0.00  0.00    +0.000 C 
ATOM     27  C   UNL     1       1.533  15.607  19.014  0.00  0.00    +0.000 C 
ATOM     28  C   UNL     1       2.651  16.623  19.188  0.00  0.00    +0.000 C 
ATOM     29  O   UNL     1       3.698  16.397  18.252  0.00  0.00    +0.000 OA
ATOM     30  C   UNL     1       4.335  15.148  18.486  0.00  0.00    +0.000 C 
ATOM     31  C   UNL     1       3.372  14.002  18.227  0.00  0.00    +0.000 C 
ENDBRANCH  25  26
ENDBRANCH  24  25
ENDBRANCH   1  22
TORSDOF 4
ENDMDL
MODEL 7
REMARK VINA RESULT:      -7.8      6.843      9.775
REMARK  Name = 
REMARK  4 active torsions:
REMARK  status: ('A' for Active; 'I' for Inactive)
REMARK    1  A    between atoms: C_5  and  C_6
REMARK    2  A    between atoms: C_9  and  C_10
REMARK    3  A    between atoms: N_22  and  C_23
REMARK    4  A    between atoms: C_23  and  C_24
REMARK                            x       y       z     vdW  Elec       q    Type
REMARK                         _______ _______ _______ _____ _____    ______ ____
ROOT
ATOM      1  C   UNL     1       7.714   7.117  18.309  0.00  0.00    +0.000 A 
ATOM      2  N   UNL     1       7.108   7.787  17.319  0.00  0.00    +0.000 NA
ATOM      3  O   UNL     1       7.721   9.049  17.367  0.00  0.00    +0.000 OA
ATOM      4  C   UNL     1       8.632   9.005  18.387  0.00  0.00    +0.000 A 
ATOM      5  N   UNL     1       8.677   7.832  18.973  0.00  0.00    +0.000 NA
ENDROOT
BRANCH   4   6
ATOM      6  C   UNL     1       9.361  10.218  18.712  0.00  0.00    +0.000 A 
ATOM      7  C   UNL     1      10.118  10.935  17.767  0.00  0.00    +0.000 A 
ATOM      8  C   UNL     1      10.783  12.135  18.112  0.00  0.00    +0.000 A 
ATOM      9  C   UNL     1      10.726  12.653  19.404  0.00  0.00    +0.000 A 
ATOM     10  C   UNL     1       9.995  11.936  20.321  0.00  0.00    +0.000 A 
ATOM     11  N   UNL     1       9.762  12.204  21.665  0.00  0.00    +0.000 N 
ATOM     12  C   UNL     1       8.946  11.193  22.198  0.00  0.00    +0.000 A 
ATOM     13  O   UNL     1       8.560  11.117  23.351  0.00  0.00    +0.000 OA
ATOM     14  N   UNL     1       8.679  10.310  21.146  0.00  0.00    +0.000 N 
ATOM     15  C   UNL     1       9.329  10.756  19.989  0.00  0.00    +0.000 A 
ATOM     16  H   UNL     1      10.095  12.988  22.203  0.00  0.00    +0.000 HD
ATOM     17  H   UNL     1       8.075   9.503  21.215  0.00  0.00    +0.000 HD
ENDBRANCH   4   6
BRANCH   1  22
ATOM     18  O   UNL     1       5.178   5.293  15.249  0.00  0.00    +0.000 OA
ATOM     19  C   UNL     1       5.742   5.232  16.342  0.00  0.00    +0.000 C 
ATOM     20  C   UNL     1       7.208   4.823  16.390  0.00  0.00    +0.000 C 
ATOM     21  C   UNL     1       7.816   4.660  17.775  0.00  0.00    +0.000 C 
ATOM     22  C   UNL     1       7.314   5.737  18.735  0.00  0.00    +0.000 C 
ATOM     23  C   UNL     1       5.793   5.567  18.826  0.00  0.00    +0.000 C 
ATOM     24  N   UNL     1       5.117   5.596  17.529  0.00  0.00    +0.000 N 
BRANCH  24  25
ATOM     25  C   UNL     1       3.748   6.114  17.496  0.00  0.00    +0.000 C 
BRANCH  25  26
ATOM     26  C   UNL     1       2.646   5.089  17.845  0.00  0.00    +0.000 C 
ATOM     27  C   UNL     1       2.232   5.208  19.322  0.00  0.00    +0.000 C 
ATOM     28  C   UNL     1       1.622   3.942  19.904  0.00  0.00    +0.000 C 
ATOM     29  O   UNL     1       2.422   2.805  19.607  0.00  0.00    +0.000 OA
ATOM     30  C   UNL     1       2.458   2.553  18.209  0.00  0.00    +0.000 C 
ATOM     31  C   UNL     1       3.164   3.685  17.481  0.00  0.00    +0.000 C 
ENDBRANCH  25  26
ENDBRANCH  24  25
ENDBRANCH   1  22
TORSDOF 4
ENDMDL
MODEL 8
REMARK VINA RESULT:      -7.8      3.162      4.672
REMARK  Name = 
REMARK  4 active torsions:
REMARK  status: ('A' for Active; 'I' for Inactive)
REMARK    1  A    between atoms: C_5  and  C_6
REMARK    2  A    between atoms: C_9  and  C_10
REMARK    3  A    between atoms: N_22  and  C_23
REMARK    4  A    between atoms: C_23  and  C_24
REMARK                            x       y       z     vdW  Elec       q    Type
REMARK                         _______ _______ _______ _____ _____    ______ ____
ROOT
ATOM      1  C   UNL     1       1.361   8.706  20.556  0.00  0.00    +0.000 A 
ATOM      2  N   UNL     1       1.946   8.780  19.353  0.00  0.00    +0.000 NA
ATOM      3  O   UNL     1       2.257   7.441  19.068  0.00  0.00    +0.000 OA
ATOM      4  C   UNL     1       1.826   6.702  20.135  0.00  0.00    +0.000 A 
ATOM      5  N   UNL     1       1.249   7.436  21.057  0.00  0.00    +0.000 NA
ENDROOT
BRANCH   4   6
ATOM      6  C   UNL     1       2.097   5.275  20.138  0.00  0.00    +0.000 A 
ATOM      7  C   UNL     1       1.130   4.311  20.476  0.00  0.00    +0.000 A 
ATOM      8  C   UNL     1       1.419   2.927  20.430  0.00  0.00    +0.000 A 
ATOM      9  C   UNL     1       2.678   2.459  20.057  0.00  0.00    +0.000 A 
ATOM     10  C   UNL     1       3.619   3.412  19.743  0.00  0.00    +0.000 A 
ATOM     11  N   UNL     1       4.939   3.246  19.343  0.00  0.00    +0.000 N 
ATOM     12  C   UNL     1       5.511   4.509  19.121  0.00  0.00    +0.000 A 
ATOM     13  O   UNL     1       6.658   4.726  18.771  0.00  0.00    +0.000 OA
ATOM     14  N   UNL     1       4.506   5.446  19.386  0.00  0.00    +0.000 N 
ATOM     15  C   UNL     1       3.340   4.778  19.778  0.00  0.00    +0.000 A 
ATOM     16  H   UNL     1       5.439   2.381  19.210  0.00  0.00    +0.000 HD
ATOM     17  H   UNL     1       4.608   6.444  19.268  0.00  0.00    +0.000 HD
ENDBRANCH   4   6
BRANCH   1  22
ATOM     18  O   UNL     1      -0.940  11.432  18.027  0.00  0.00    +0.000 OA
ATOM     19  C   UNL     1      -0.432  11.160  19.115  0.00  0.00    +0.000 C 
ATOM     20  C   UNL     1      -1.198  10.264  20.079  0.00  0.00    +0.000 C 
ATOM     21  C   UNL     1      -0.568  10.055  21.447  0.00  0.00    +0.000 C 
ATOM     22  C   UNL     1       0.950   9.911  21.347  0.00  0.00    +0.000 C 
ATOM     23  C   UNL     1       1.474  11.219  20.743  0.00  0.00    +0.000 C 
ATOM     24  N   UNL     1       0.846  11.574  19.469  0.00  0.00    +0.000 N 
BRANCH  24  25
ATOM     25  C   UNL     1       1.654  12.329  18.510  0.00  0.00    +0.000 C 
BRANCH  25  26
ATOM     26  C   UNL     1       2.151  13.706  19.005  0.00  0.00    +0.000 C 
ATOM     27  C   UNL     1       1.059  14.777  18.841  0.00  0.00    +0.000 C 
ATOM     28  C   UNL     1       1.587  16.200  18.744  0.00  0.00    +0.000 C 
ATOM     29  O   UNL     1       2.646  16.288  17.798  0.00  0.00    +0.000 OA
ATOM     30  C   UNL     1       3.775  15.534  18.218  0.00  0.00    +0.000 C 
ATOM     31  C   UNL     1       3.445  14.051  18.245  0.00  0.00    +0.000 C 
ENDBRANCH  25  26
ENDBRANCH  24  25
ENDBRANCH   1  22
TORSDOF 4
ENDMDL
MODEL 9
REMARK VINA RESULT:      -7.8      3.342      4.397
REMARK  Name = 
REMARK  4 active torsions:
REMARK  status: ('A' for Active; 'I' for Inactive)
REMARK    1  A    between atoms: C_5  and  C_6
REMARK    2  A    between atoms: C_9  and  C_10
REMARK    3  A    between atoms: N_22  and  C_23
REMARK    4  A    between atoms: C_23  and  C_24
REMARK                            x       y       z     vdW  Elec       q    Type
REMARK                         _______ _______ _______ _____ _____    ______ ____
ROOT
ATOM      1  C   UNL     1       1.572   9.281  19.131  0.00  0.00    +0.000 A 
ATOM      2  N   UNL     1       1.857   9.874  17.965  0.00  0.00    +0.000 NA
ATOM      3  O   UNL     1       2.548   8.876  17.260  0.00  0.00    +0.000 OA
ATOM      4  C   UNL     1       2.609   7.785  18.083  0.00  0.00    +0.000 A 
ATOM      5  N   UNL     1       2.001   7.983  19.229  0.00  0.00    +0.000 NA
ENDROOT
BRANCH   4   6
ATOM      6  C   UNL     1       3.348   6.621  17.629  0.00  0.00    +0.000 A 
ATOM      7  C   UNL     1       4.590   6.708  16.974  0.00  0.00    +0.000 A 
ATOM      8  C   UNL     1       5.300   5.549  16.581  0.00  0.00    +0.000 A 
ATOM      9  C   UNL     1       4.795   4.272  16.816  0.00  0.00    +0.000 A 
ATOM     10  C   UNL     1       3.574   4.200  17.444  0.00  0.00    +0.000 A 
ATOM     11  N   UNL     1       2.833   3.081  17.805  0.00  0.00    +0.000 N 
ATOM     12  C   UNL     1       1.651   3.498  18.435  0.00  0.00    +0.000 A 
ATOM     13  O   UNL     1       0.773   2.773  18.866  0.00  0.00    +0.000 OA
ATOM     14  N   UNL     1       1.693   4.897  18.459  0.00  0.00    +0.000 N 
ATOM     15  C   UNL     1       2.870   5.337  17.843  0.00  0.00    +0.000 A 
ATOM     16  H   UNL     1       3.074   2.112  17.666  0.00  0.00    +0.000 HD
ATOM     17  H   UNL     1       0.995   5.484  18.895  0.00  0.00    +0.000 HD
ENDBRANCH   4   6
BRANCH   1  22
ATOM     18  O   UNL     1      -1.581  11.933  17.668  0.00  0.00    +0.000 OA
ATOM     19  C   UNL     1      -0.924  11.471  18.601  0.00  0.00    +0.000 C 
ATOM     20  C   UNL     1      -1.339  10.133  19.198  0.00  0.00    +0.000 C 
ATOM     21  C   UNL     1      -0.557   9.668  20.417  0.00  0.00    +0.000 C 
ATOM     22  C   UNL     1       0.930   9.994  20.283  0.00  0.00    +0.000 C 
ATOM     23  C   UNL     1       1.035  11.518  20.164  0.00  0.00    +0.000 C 
ATOM     24  N   UNL     1       0.225  12.083  19.083  0.00  0.00    +0.000 N 
BRANCH  24  25
ATOM     25  C   UNL     1       0.718  13.304  18.444  0.00  0.00    +0.000 C 
BRANCH  25  26
ATOM     26  C   UNL     1       1.942  13.958  19.124  0.00  0.00    +0.000 C 
ATOM     27  C   UNL     1       1.663  15.434  19.458  0.00  0.00    +0.000 C 
ATOM     28  C   UNL     1       2.912  16.294  19.581  0.00  0.00    +0.000 C 
ATOM     29  O   UNL     1       3.780  16.095  18.472  0.00  0.00    +0.000 OA
ATOM     30  C   UNL     1       4.284  14.766  18.446  0.00  0.00    +0.000 C 
ATOM     31  C   UNL     1       3.160  13.775  18.199  0.00  0.00    +0.000 C 
ENDBRANCH  25  26
ENDBRANCH  24  25
ENDBRANCH   1  22
TORSDOF 4
ENDMDL
