MODEL 1
REMARK VINA RESULT:      -7.3      0.000      0.000
REMARK  Name = 
REMARK  2 active torsions:
REMARK  status: ('A' for Active; 'I' for Inactive)
REMARK    1  A    between atoms: C_2  and  C_3
REMARK    2  A    between atoms: C_7  and  C_8
REMARK                            x       y       z     vdW  Elec       q    Type
REMARK                         _______ _______ _______ _____ _____    ______ ____
ROOT
ATOM      1  O   UNL     1       3.774   1.881  16.994  0.00  0.00    +0.000 OA
ATOM      2  C   UNL     1       4.112   2.905  17.602  0.00  0.00    +0.000 C 
ATOM      3  N   UNL     1       4.507   4.039  16.898  0.00  0.00    +0.000 N 
ATOM      4  C   UNL     1       4.369   3.952  15.448  0.00  0.00    +0.000 C 
ATOM      5  C   UNL     1       5.649   4.253  14.708  0.00  0.00    +0.000 A 
ATOM      6  C   UNL     1       5.681   3.979  13.327  0.00  0.00    +0.000 A 
ATOM      7  C   UNL     1       6.768   4.357  12.554  0.00  0.00    +0.000 A 
ATOM      8  C   UNL     1       7.840   4.985  13.164  0.00  0.00    +0.000 A 
ATOM      9  C   UNL     1       7.824   5.224  14.546  0.00  0.00    +0.000 A 
ATOM     10  C   UNL     1       6.728   4.888  15.374  0.00  0.00    +0.000 A 
ATOM     11  C   UNL     1       6.595   5.353  16.940  0.00  0.00    +0.000 C 
ATOM     12  C   UNL     1       7.439   4.758  18.123  0.00  0.00    +0.000 C 
ATOM     13  C   UNL     1       7.552   6.214  18.682  0.00  0.00    +0.000 C 
ATOM     14  C   UNL     1       7.458   6.672  17.231  0.00  0.00    +0.000 C 
ATOM     15  C   UNL     1       5.096   5.302  17.378  0.00  0.00    +0.000 C 
ENDROOT
BRANCH   2  16
ATOM     16  C   UNL     1       4.092   2.825  19.064  0.00  0.00    +0.000 A 
ATOM     17  C   UNL     1       4.866   1.902  19.741  0.00  0.00    +0.000 A 
ATOM     18  N   UNL     1       4.525   1.970  21.049  0.00  0.00    +0.000 N 
ATOM     19  N   UNL     1       3.635   2.933  21.305  0.00  0.00    +0.000 NA
ATOM     20  C   UNL     1       3.236   3.342  20.088  0.00  0.00    +0.000 A 
ATOM     21  H   UNL     1       4.821   1.372  21.816  0.00  0.00    +0.000 HD
BRANCH  20  22
ATOM     22  C   UNL     1       1.930   4.109  19.996  0.00  0.00    +0.000 C 
ATOM     23  C   UNL     1       0.717   3.215  20.264  0.00  0.00    +0.000 C 
ATOM     24  C   UNL     1       0.618   2.448  18.957  0.00  0.00    +0.000 C 
ATOM     25  O   UNL     1       0.962   3.396  17.931  0.00  0.00    +0.000 OA
ATOM     26  C   UNL     1       1.563   4.536  18.576  0.00  0.00    +0.000 C 
ENDBRANCH  20  22
ENDBRANCH   2  16
TORSDOF 2
ENDMDL
MODEL 2
REMARK VINA RESULT:      -7.0      7.610      9.574
REMARK  Name = 
REMARK  2 active torsions:
REMARK  status: ('A' for Active; 'I' for Inactive)
REMARK    1  A    between atoms: C_2  and  C_3
REMARK    2  A    between atoms: C_7  and  C_8
REMARK                            x       y       z     vdW  Elec       q    Type
REMARK                         _______ _______ _______ _____ _____    ______ ____
ROOT
ATOM      1  O   UNL     1      -1.204  10.563  17.175  0.00  0.00    +0.000 OA
ATOM      2  C   UNL     1      -0.985  10.894  18.347  0.00  0.00    +0.000 C 
ATOM      3  N   UNL     1       0.225  10.565  18.953  0.00  0.00    +0.000 N 
ATOM      4  C   UNL     1       1.209   9.936  18.079  0.00  0.00    +0.000 C 
ATOM      5  C   UNL     1       1.717   8.617  18.605  0.00  0.00    +0.000 A 
ATOM      6  C   UNL     1       2.496   7.827  17.736  0.00  0.00    +0.000 A 
ATOM      7  C   UNL     1       3.113   6.672  18.189  0.00  0.00    +0.000 A 
ATOM      8  C   UNL     1       2.933   6.287  19.507  0.00  0.00    +0.000 A 
ATOM      9  C   UNL     1       2.127   7.053  20.362  0.00  0.00    +0.000 A 
ATOM     10  C   UNL     1       1.501   8.255  19.959  0.00  0.00    +0.000 A 
ATOM     11  C   UNL     1       0.742   9.276  20.992  0.00  0.00    +0.000 C 
ATOM     12  C   UNL     1      -0.646   8.992  21.670  0.00  0.00    +0.000 C 
ATOM     13  C   UNL     1      -0.055   9.613  22.978  0.00  0.00    +0.000 C 
ATOM     14  C   UNL     1       1.297   9.111  22.486  0.00  0.00    +0.000 C 
ATOM     15  C   UNL     1       0.656  10.700  20.355  0.00  0.00    +0.000 C 
ENDROOT
BRANCH   2  16
ATOM     16  C   UNL     1      -2.065  11.608  19.030  0.00  0.00    +0.000 A 
ATOM     17  C   UNL     1      -1.832  12.317  20.193  0.00  0.00    +0.000 A 
ATOM     18  N   UNL     1      -3.032  12.735  20.660  0.00  0.00    +0.000 N 
ATOM     19  N   UNL     1      -4.043  12.424  19.845  0.00  0.00    +0.000 NA
ATOM     20  C   UNL     1      -3.494  11.592  18.943  0.00  0.00    +0.000 A 
ATOM     21  H   UNL     1      -3.246  13.197  21.540  0.00  0.00    +0.000 HD
BRANCH  20  22
ATOM     22  C   UNL     1      -4.429  10.710  18.138  0.00  0.00    +0.000 C 
ATOM     23  C   UNL     1      -4.606  11.214  16.704  0.00  0.00    +0.000 C 
ATOM     24  C   UNL     1      -5.539  12.393  16.916  0.00  0.00    +0.000 C 
ATOM     25  O   UNL     1      -6.444  11.983  17.956  0.00  0.00    +0.000 OA
ATOM     26  C   UNL     1      -5.891  10.803  18.571  0.00  0.00    +0.000 C 
ENDBRANCH  20  22
ENDBRANCH   2  16
TORSDOF 2
ENDMDL
MODEL 3
REMARK VINA RESULT:      -7.0      2.914      6.658
REMARK  Name = 
REMARK  2 active torsions:
REMARK  status: ('A' for Active; 'I' for Inactive)
REMARK    1  A    between atoms: C_2  and  C_3
REMARK    2  A    between atoms: C_7  and  C_8
REMARK                            x       y       z     vdW  Elec       q    Type
REMARK                         _______ _______ _______ _____ _____    ______ ____
ROOT
ATOM      1  O   UNL     1       5.788   7.937  17.483  0.00  0.00    +0.000 OA
ATOM      2  C   UNL     1       5.326   6.789  17.482  0.00  0.00    +0.000 C 
ATOM      3  N   UNL     1       3.964   6.582  17.678  0.00  0.00    +0.000 N 
ATOM      4  C   UNL     1       3.154   7.794  17.754  0.00  0.00    +0.000 C 
ATOM      5  C   UNL     1       2.318   7.875  19.006  0.00  0.00    +0.000 A 
ATOM      6  C   UNL     1       1.676   9.098  19.281  0.00  0.00    +0.000 A 
ATOM      7  C   UNL     1       0.782   9.209  20.335  0.00  0.00    +0.000 A 
ATOM      8  C   UNL     1       0.547   8.104  21.135  0.00  0.00    +0.000 A 
ATOM      9  C   UNL     1       1.214   6.896  20.884  0.00  0.00    +0.000 A 
ATOM     10  C   UNL     1       2.111   6.721  19.805  0.00  0.00    +0.000 A 
ATOM     11  C   UNL     1       2.729   5.269  19.363  0.00  0.00    +0.000 C 
ATOM     12  C   UNL     1       3.825   4.483  20.165  0.00  0.00    +0.000 C 
ATOM     13  C   UNL     1       3.022   3.179  19.849  0.00  0.00    +0.000 C 
ATOM     14  C   UNL     1       1.782   4.066  19.836  0.00  0.00    +0.000 C 
ATOM     15  C   UNL     1       3.209   5.333  17.876  0.00  0.00    +0.000 C 
ENDROOT
BRANCH   2  16
ATOM     16  C   UNL     1       6.292   5.705  17.293  0.00  0.00    +0.000 A 
ATOM     17  C   UNL     1       7.031   5.213  18.352  0.00  0.00    +0.000 A 
ATOM     18  N   UNL     1       7.928   4.335  17.846  0.00  0.00    +0.000 N 
ATOM     19  N   UNL     1       7.783   4.144  16.532  0.00  0.00    +0.000 NA
ATOM     20  C   UNL     1       6.911   5.096  16.156  0.00  0.00    +0.000 A 
ATOM     21  H   UNL     1       8.692   3.860  18.320  0.00  0.00    +0.000 HD
BRANCH  20  22
ATOM     22  C   UNL     1       6.850   5.453  14.683  0.00  0.00    +0.000 C 
ATOM     23  C   UNL     1       5.414   5.483  14.156  0.00  0.00    +0.000 C 
ATOM     24  C   UNL     1       5.109   4.000  14.039  0.00  0.00    +0.000 C 
ATOM     25  O   UNL     1       6.332   3.392  13.589  0.00  0.00    +0.000 OA
ATOM     26  C   UNL     1       7.386   4.360  13.760  0.00  0.00    +0.000 C 
ENDBRANCH  20  22
ENDBRANCH   2  16
TORSDOF 2
ENDMDL
MODEL 4
REMARK VINA RESULT:      -6.8      5.381      7.418
REMARK  Name = 
REMARK  2 active torsions:
REMARK  status: ('A' for Active; 'I' for Inactive)
REMARK    1  A    between atoms: C_2  and  C_3
REMARK    2  A    between atoms: C_7  and  C_8
REMARK                            x       y       z     vdW  Elec       q    Type
REMARK                         _______ _______ _______ _____ _____    ______ ____
ROOT
ATOM      1  O   UNL     1       3.372   7.959  18.002  0.00  0.00    +0.000 OA
ATOM      2  C   UNL     1       2.346   7.858  18.687  0.00  0.00    +0.000 C 
ATOM      3  N   UNL     1       1.464   8.931  18.787  0.00  0.00    +0.000 N 
ATOM      4  C   UNL     1       1.783  10.082  17.949  0.00  0.00    +0.000 C 
ATOM      5  C   UNL     1       1.890  11.372  18.724  0.00  0.00    +0.000 A 
ATOM      6  C   UNL     1       2.411  12.493  18.049  0.00  0.00    +0.000 A 
ATOM      7  C   UNL     1       2.411  13.744  18.647  0.00  0.00    +0.000 A 
ATOM      8  C   UNL     1       1.914  13.873  19.933  0.00  0.00    +0.000 A 
ATOM      9  C   UNL     1       1.430  12.749  20.619  0.00  0.00    +0.000 A 
ATOM     10  C   UNL     1       1.378  11.459  20.044  0.00  0.00    +0.000 A 
ATOM     11  C   UNL     1       0.620  10.183  20.738  0.00  0.00    +0.000 C 
ATOM     12  C   UNL     1       1.149   9.406  21.995  0.00  0.00    +0.000 C 
ATOM     13  C   UNL     1      -0.330   9.356  22.500  0.00  0.00    +0.000 C 
ATOM     14  C   UNL     1      -0.525  10.668  21.750  0.00  0.00    +0.000 C 
ATOM     15  C   UNL     1       0.283   9.115  19.649  0.00  0.00    +0.000 C 
ENDROOT
BRANCH   2  16
ATOM     16  C   UNL     1       2.153   6.583  19.378  0.00  0.00    +0.000 A 
ATOM     17  C   UNL     1       2.190   6.503  20.757  0.00  0.00    +0.000 A 
ATOM     18  N   UNL     1       2.129   5.192  21.089  0.00  0.00    +0.000 N 
ATOM     19  N   UNL     1       1.970   4.395  20.029  0.00  0.00    +0.000 NA
ATOM     20  C   UNL     1       2.157   5.209  18.975  0.00  0.00    +0.000 A 
ATOM     21  H   UNL     1       2.230   4.762  22.004  0.00  0.00    +0.000 HD
BRANCH  20  22
ATOM     22  C   UNL     1       2.480   4.568  17.639  0.00  0.00    +0.000 C 
ATOM     23  C   UNL     1       2.460   3.040  17.713  0.00  0.00    +0.000 C 
ATOM     24  C   UNL     1       3.775   2.759  18.419  0.00  0.00    +0.000 C 
ATOM     25  O   UNL     1       4.702   3.728  17.900  0.00  0.00    +0.000 OA
ATOM     26  C   UNL     1       3.937   4.735  17.209  0.00  0.00    +0.000 C 
ENDBRANCH  20  22
ENDBRANCH   2  16
TORSDOF 2
ENDMDL
MODEL 5
REMARK VINA RESULT:      -6.8      0.896      1.290
REMARK  Name = 
REMARK  2 active torsions:
REMARK  status: ('A' for Active; 'I' for Inactive)
REMARK    1  A    between atoms: C_2  and  C_3
REMARK    2  A    between atoms: C_7  and  C_8
REMARK                            x       y       z     vdW  Elec       q    Type
REMARK                         _______ _______ _______ _____ _____    ______ ____
ROOT
ATOM      1  O   UNL     1       3.765   1.821  16.925  0.00  0.00    +0.000 OA
ATOM      2  C   UNL     1       4.090   2.848  17.535  0.00  0.00    +0.000 C 
ATOM      3  N   UNL     1       4.486   3.983  16.834  0.00  0.00    +0.000 N 
ATOM      4  C   UNL     1       4.365   3.894  15.383  0.00  0.00    +0.000 C 
ATOM      5  C   UNL     1       5.651   4.202  14.657  0.00  0.00    +0.000 A 
ATOM      6  C   UNL     1       5.700   3.927  13.277  0.00  0.00    +0.000 A 
ATOM      7  C   UNL     1       6.794   4.310  12.516  0.00  0.00    +0.000 A 
ATOM      8  C   UNL     1       7.855   4.946  13.138  0.00  0.00    +0.000 A 
ATOM      9  C   UNL     1       7.822   5.185  14.519  0.00  0.00    +0.000 A 
ATOM     10  C   UNL     1       6.719   4.844  15.335  0.00  0.00    +0.000 A 
ATOM     11  C   UNL     1       6.566   5.309  16.898  0.00  0.00    +0.000 C 
ATOM     12  C   UNL     1       7.400   4.721  18.091  0.00  0.00    +0.000 C 
ATOM     13  C   UNL     1       7.498   6.178  18.650  0.00  0.00    +0.000 C 
ATOM     14  C   UNL     1       7.418   6.633  17.198  0.00  0.00    +0.000 C 
ATOM     15  C   UNL     1       5.062   5.250  17.319  0.00  0.00    +0.000 C 
ENDROOT
BRANCH   2  16
ATOM     16  C   UNL     1       4.054   2.769  18.997  0.00  0.00    +0.000 A 
ATOM     17  C   UNL     1       4.946   1.977  19.693  0.00  0.00    +0.000 A 
ATOM     18  N   UNL     1       4.574   1.995  20.995  0.00  0.00    +0.000 N 
ATOM     19  N   UNL     1       3.542   2.811  21.228  0.00  0.00    +0.000 NA
ATOM     20  C   UNL     1       3.109   3.152  20.002  0.00  0.00    +0.000 A 
ATOM     21  H   UNL     1       4.942   1.450  21.770  0.00  0.00    +0.000 HD
BRANCH  20  22
ATOM     22  C   UNL     1       1.703   3.709  19.882  0.00  0.00    +0.000 C 
ATOM     23  C   UNL     1       1.573   4.697  18.721  0.00  0.00    +0.000 C 
ATOM     24  C   UNL     1       2.251   5.927  19.298  0.00  0.00    +0.000 C 
ATOM     25  O   UNL     1       1.879   5.953  20.687  0.00  0.00    +0.000 OA
ATOM     26  C   UNL     1       1.319   4.665  21.011  0.00  0.00    +0.000 C 
ENDBRANCH  20  22
ENDBRANCH   2  16
TORSDOF 2
ENDMDL
MODEL 6
REMARK VINA RESULT:      -6.8      8.085     10.011
REMARK  Name = 
REMARK  2 active torsions:
REMARK  status: ('A' for Active; 'I' for Inactive)
REMARK    1  A    between atoms: C_2  and  C_3
REMARK    2  A    between atoms: C_7  and  C_8
REMARK                            x       y       z     vdW  Elec       q    Type
REMARK                         _______ _______ _______ _____ _____    ______ ____
ROOT
ATOM      1  O   UNL     1      -1.141  10.968  17.426  0.00  0.00    +0.000 OA
ATOM      2  C   UNL     1      -0.898  11.212  18.615  0.00  0.00    +0.000 C 
ATOM      3  N   UNL     1       0.298  10.788  19.186  0.00  0.00    +0.000 N 
ATOM      4  C   UNL     1       1.245  10.171  18.263  0.00  0.00    +0.000 C 
ATOM      5  C   UNL     1       1.694   8.798  18.699  0.00  0.00    +0.000 A 
ATOM      6  C   UNL     1       2.428   8.031  17.773  0.00  0.00    +0.000 A 
ATOM      7  C   UNL     1       2.992   6.821  18.145  0.00  0.00    +0.000 A 
ATOM      8  C   UNL     1       2.802   6.360  19.437  0.00  0.00    +0.000 A 
ATOM      9  C   UNL     1       2.040   7.106  20.347  0.00  0.00    +0.000 A 
ATOM     10  C   UNL     1       1.469   8.360  20.028  0.00  0.00    +0.000 A 
ATOM     11  C   UNL     1       0.767   9.346  21.132  0.00  0.00    +0.000 C 
ATOM     12  C   UNL     1      -0.628   9.085  21.804  0.00  0.00    +0.000 C 
ATOM     13  C   UNL     1       0.000   9.591  23.143  0.00  0.00    +0.000 C 
ATOM     14  C   UNL     1       1.324   9.059  22.608  0.00  0.00    +0.000 C 
ATOM     15  C   UNL     1       0.745  10.812  20.590  0.00  0.00    +0.000 C 
ENDROOT
BRANCH   2  16
ATOM     16  C   UNL     1      -1.939  11.930  19.353  0.00  0.00    +0.000 A 
ATOM     17  C   UNL     1      -3.269  11.833  18.991  0.00  0.00    +0.000 A 
ATOM     18  N   UNL     1      -3.961  12.712  19.754  0.00  0.00    +0.000 N 
ATOM     19  N   UNL     1      -3.196  13.330  20.657  0.00  0.00    +0.000 NA
ATOM     20  C   UNL     1      -1.941  12.994  20.309  0.00  0.00    +0.000 A 
ATOM     21  H   UNL     1      -4.941  12.975  19.691  0.00  0.00    +0.000 HD
BRANCH  20  22
ATOM     22  C   UNL     1      -0.810  13.855  20.839  0.00  0.00    +0.000 C 
ATOM     23  C   UNL     1      -1.315  15.178  21.421  0.00  0.00    +0.000 C 
ATOM     24  C   UNL     1      -1.619  15.962  20.156  0.00  0.00    +0.000 C 
ATOM     25  O   UNL     1      -0.583  15.604  19.225  0.00  0.00    +0.000 OA
ATOM     26  C   UNL     1       0.086  14.438  19.747  0.00  0.00    +0.000 C 
ENDBRANCH  20  22
ENDBRANCH   2  16
TORSDOF 2
ENDMDL
MODEL 7
REMARK VINA RESULT:      -6.8      5.639      7.836
REMARK  Name = 
REMARK  2 active torsions:
REMARK  status: ('A' for Active; 'I' for Inactive)
REMARK    1  A    between atoms: C_2  and  C_3
REMARK    2  A    between atoms: C_7  and  C_8
REMARK                            x       y       z     vdW  Elec       q    Type
REMARK                         _______ _______ _______ _____ _____    ______ ____
ROOT
ATOM      1  O   UNL     1       3.093   8.441  17.985  0.00  0.00    +0.000 OA
ATOM      2  C   UNL     1       2.217   8.204  18.826  0.00  0.00    +0.000 C 
ATOM      3  N   UNL     1       1.233   9.151  19.097  0.00  0.00    +0.000 N 
ATOM      4  C   UNL     1       1.258  10.338  18.248  0.00  0.00    +0.000 C 
ATOM      5  C   UNL     1       1.325  11.627  19.026  0.00  0.00    +0.000 A 
ATOM      6  C   UNL     1       1.578  12.810  18.304  0.00  0.00    +0.000 A 
ATOM      7  C   UNL     1       1.516  14.047  18.926  0.00  0.00    +0.000 A 
ATOM      8  C   UNL     1       1.228  14.106  20.278  0.00  0.00    +0.000 A 
ATOM      9  C   UNL     1       1.013  12.926  21.005  0.00  0.00    +0.000 A 
ATOM     10  C   UNL     1       1.033  11.642  20.414  0.00  0.00    +0.000 A 
ATOM     11  C   UNL     1       0.571  10.275  21.192  0.00  0.00    +0.000 C 
ATOM     12  C   UNL     1       1.398   9.569  22.324  0.00  0.00    +0.000 C 
ATOM     13  C   UNL     1       0.042   9.324  23.064  0.00  0.00    +0.000 C 
ATOM     14  C   UNL     1      -0.442  10.602  22.389  0.00  0.00    +0.000 C 
ATOM     15  C   UNL     1       0.198   9.176  20.145  0.00  0.00    +0.000 C 
ENDROOT
BRANCH   2  16
ATOM     16  C   UNL     1       2.307   6.912  19.507  0.00  0.00    +0.000 A 
ATOM     17  C   UNL     1       1.583   6.656  20.655  0.00  0.00    +0.000 A 
ATOM     18  N   UNL     1       1.983   5.451  21.127  0.00  0.00    +0.000 N 
ATOM     19  N   UNL     1       2.867   4.849  20.327  0.00  0.00    +0.000 NA
ATOM     20  C   UNL     1       3.201   5.796  19.434  0.00  0.00    +0.000 A 
ATOM     21  H   UNL     1       1.735   4.995  22.001  0.00  0.00    +0.000 HD
BRANCH  20  22
ATOM     22  C   UNL     1       4.487   5.605  18.653  0.00  0.00    +0.000 C 
ATOM     23  C   UNL     1       4.231   5.427  17.154  0.00  0.00    +0.000 C 
ATOM     24  C   UNL     1       3.726   3.996  17.106  0.00  0.00    +0.000 C 
ATOM     25  O   UNL     1       4.503   3.283  18.085  0.00  0.00    +0.000 OA
ATOM     26  C   UNL     1       5.170   4.261  18.906  0.00  0.00    +0.000 C 
ENDBRANCH  20  22
ENDBRANCH   2  16
TORSDOF 2
ENDMDL
MODEL 8
REMARK VINA RESULT:      -6.7      8.514     10.404
REMARK  Name = 
REMARK  2 active torsions:
REMARK  status: ('A' for Active; 'I' for Inactive)
REMARK    1  A    between atoms: C_2  and  C_3
REMARK    2  A    between atoms: C_7  and  C_8
REMARK                            x       y       z     vdW  Elec       q    Type
REMARK                         _______ _______ _______ _____ _____    ______ ____
ROOT
ATOM      1  O   UNL     1      -1.159  11.802  17.813  0.00  0.00    +0.000 OA
ATOM      2  C   UNL     1      -0.884  11.891  19.017  0.00  0.00    +0.000 C 
ATOM      3  N   UNL     1       0.293  11.335  19.509  0.00  0.00    +0.000 N 
ATOM      4  C   UNL     1       1.188  10.776  18.501  0.00  0.00    +0.000 C 
ATOM      5  C   UNL     1       1.560   9.339  18.765  0.00  0.00    +0.000 A 
ATOM      6  C   UNL     1       2.233   8.643  17.741  0.00  0.00    +0.000 A 
ATOM      7  C   UNL     1       2.730   7.368  17.958  0.00  0.00    +0.000 A 
ATOM      8  C   UNL     1       2.532   6.771  19.192  0.00  0.00    +0.000 A 
ATOM      9  C   UNL     1       1.829   7.449  20.199  0.00  0.00    +0.000 A 
ATOM     10  C   UNL     1       1.330   8.762  20.039  0.00  0.00    +0.000 A 
ATOM     11  C   UNL     1       0.704   9.651  21.265  0.00  0.00    +0.000 C 
ATOM     12  C   UNL     1      -0.694   9.394  21.932  0.00  0.00    +0.000 C 
ATOM     13  C   UNL     1      -0.017   9.704  23.307  0.00  0.00    +0.000 C 
ATOM     14  C   UNL     1       1.265   9.162  22.685  0.00  0.00    +0.000 C 
ATOM     15  C   UNL     1       0.761  11.169  20.896  0.00  0.00    +0.000 C 
ENDROOT
BRANCH   2  16
ATOM     16  C   UNL     1      -1.869  12.577  19.855  0.00  0.00    +0.000 A 
ATOM     17  C   UNL     1      -3.148  12.077  20.011  0.00  0.00    +0.000 A 
ATOM     18  N   UNL     1      -3.859  12.993  20.710  0.00  0.00    +0.000 N 
ATOM     19  N   UNL     1      -3.119  14.034  21.103  0.00  0.00    +0.000 NA
ATOM     20  C   UNL     1      -1.957  13.878  20.445  0.00  0.00    +0.000 A 
ATOM     21  H   UNL     1      -4.853  13.001  20.922  0.00  0.00    +0.000 HD
BRANCH  20  22
ATOM     22  C   UNL     1      -1.055  15.090  20.312  0.00  0.00    +0.000 C 
ATOM     23  C   UNL     1       0.389  14.782  20.713  0.00  0.00    +0.000 C 
ATOM     24  C   UNL     1       0.277  14.753  22.227  0.00  0.00    +0.000 C 
ATOM     25  O   UNL     1      -0.660  15.792  22.562  0.00  0.00    +0.000 OA
ATOM     26  C   UNL     1      -1.329  16.181  21.347  0.00  0.00    +0.000 C 
ENDBRANCH  20  22
ENDBRANCH   2  16
TORSDOF 2
ENDMDL
MODEL 9
REMARK VINA RESULT:      -6.7     11.100     13.080
REMARK  Name = 
REMARK  2 active torsions:
REMARK  status: ('A' for Active; 'I' for Inactive)
REMARK    1  A    between atoms: C_2  and  C_3
REMARK    2  A    between atoms: C_7  and  C_8
REMARK                            x       y       z     vdW  Elec       q    Type
REMARK                         _______ _______ _______ _____ _____    ______ ____
ROOT
ATOM      1  O   UNL     1      -5.638  12.160  21.655  0.00  0.00    +0.000 OA
ATOM      2  C   UNL     1      -4.566  12.773  21.731  0.00  0.00    +0.000 C 
ATOM      3  N   UNL     1      -3.778  12.948  20.596  0.00  0.00    +0.000 N 
ATOM      4  C   UNL     1      -4.368  12.474  19.348  0.00  0.00    +0.000 C 
ATOM      5  C   UNL     1      -3.488  11.501  18.604  0.00  0.00    +0.000 A 
ATOM      6  C   UNL     1      -4.056  10.819  17.510  0.00  0.00    +0.000 A 
ATOM      7  C   UNL     1      -3.275  10.016  16.693  0.00  0.00    +0.000 A 
ATOM      8  C   UNL     1      -1.929   9.871  16.983  0.00  0.00    +0.000 A 
ATOM      9  C   UNL     1      -1.372  10.520  18.094  0.00  0.00    +0.000 A 
ATOM     10  C   UNL     1      -2.117  11.375  18.940  0.00  0.00    +0.000 A 
ATOM     11  C   UNL     1      -1.445  12.311  20.104  0.00  0.00    +0.000 C 
ATOM     12  C   UNL     1      -0.864  11.773  21.460  0.00  0.00    +0.000 C 
ATOM     13  C   UNL     1       0.307  12.793  21.283  0.00  0.00    +0.000 C 
ATOM     14  C   UNL     1       0.093  12.626  19.783  0.00  0.00    +0.000 C 
ATOM     15  C   UNL     1      -2.414  13.486  20.457  0.00  0.00    +0.000 C 
ENDROOT
BRANCH   2  16
ATOM     16  C   UNL     1      -4.190  13.257  23.060  0.00  0.00    +0.000 A 
ATOM     17  C   UNL     1      -4.176  12.410  24.152  0.00  0.00    +0.000 A 
ATOM     18  N   UNL     1      -3.938  13.168  25.249  0.00  0.00    +0.000 N 
ATOM     19  N   UNL     1      -3.710  14.451  24.954  0.00  0.00    +0.000 NA
ATOM     20  C   UNL     1      -4.031  14.550  23.652  0.00  0.00    +0.000 A 
ATOM     21  H   UNL     1      -3.955  12.894  26.228  0.00  0.00    +0.000 HD
BRANCH  20  22
ATOM     22  C   UNL     1      -4.309  15.935  23.099  0.00  0.00    +0.000 C 
ATOM     23  C   UNL     1      -5.233  16.745  24.011  0.00  0.00    +0.000 C 
ATOM     24  C   UNL     1      -6.579  16.110  23.709  0.00  0.00    +0.000 C 
ATOM     25  O   UNL     1      -6.558  15.821  22.301  0.00  0.00    +0.000 OA
ATOM     26  C   UNL     1      -5.193  15.938  21.854  0.00  0.00    +0.000 C 
ENDBRANCH  20  22
ENDBRANCH   2  16
TORSDOF 2
ENDMDL
