MODEL 1
REMARK VINA RESULT:      -8.7      0.000      0.000
REMARK  Name = 
REMARK  6 active torsions:
REMARK  status: ('A' for Active; 'I' for Inactive)
REMARK    1  A    between atoms: C_1  and  N_2
REMARK    2  A    between atoms: N_2  and  C_3
REMARK    3  A    between atoms: N_2  and  C_18
REMARK    4  A    between atoms: C_3  and  C_4
REMARK    5  A    between atoms: N_6  and  C_7
REMARK    6  A    between atoms: C_7  and  C_8
REMARK                            x       y       z     vdW  Elec       q    Type
REMARK                         _______ _______ _______ _____ _____    ______ ____
ROOT
ATOM      1  C   UNL     1       2.060   2.842  19.521  0.00  0.00    +0.000 C 
ATOM      2  O   UNL     1       1.250   2.017  19.095  0.00  0.00    +0.000 OA
ATOM      3  N   UNL     1       1.591   3.920  20.215  0.00  0.00    +0.000 N 
ATOM      4  H   UNL     1       0.583   3.944  20.304  0.00  0.00    +0.000 HD
ENDROOT
BRANCH   1   5
ATOM      5  C   UNL     1       3.569   2.682  19.304  0.00  0.00    +0.000 C 
BRANCH   5   7
ATOM      6  C   UNL     1       3.058   3.503  16.970  0.00  0.00    +0.000 C 
ATOM      7  N   UNL     1       4.054   3.086  17.965  0.00  0.00    +0.000 N 
BRANCH   7   8
ATOM      8  C   UNL     1       5.162   3.958  17.993  0.00  0.00    +0.000 A 
ATOM      9  N   UNL     1       5.556   4.531  19.163  0.00  0.00    +0.000 NA
ATOM     10  C   UNL     1       6.612   5.370  19.185  0.00  0.00    +0.000 A 
ATOM     11  N   UNL     1       7.370   5.760  18.157  0.00  0.00    +0.000 NA
ATOM     12  C   UNL     1       6.967   5.228  16.995  0.00  0.00    +0.000 A 
ATOM     13  N   UNL     1       7.544   5.478  15.779  0.00  0.00    +0.000 NA
ATOM     14  C   UNL     1       6.834   4.788  14.919  0.00  0.00    +0.000 A 
ATOM     15  N   UNL     1       5.828   4.099  15.534  0.00  0.00    +0.000 N 
ATOM     16  C   UNL     1       5.899   4.351  16.877  0.00  0.00    +0.000 A 
ATOM     17  H   UNL     1       5.148   3.520  15.069  0.00  0.00    +0.000 HD
ENDBRANCH   7   8
ENDBRANCH   5   7
ENDBRANCH   1   5
BRANCH   3  18
ATOM     18  C   UNL     1       2.363   4.978  20.828  0.00  0.00    +0.000 C 
BRANCH  18  19
ATOM     19  C   UNL     1       2.211   6.305  20.127  0.00  0.00    +0.000 A 
ATOM     20  C   UNL     1       2.609   6.484  18.796  0.00  0.00    +0.000 A 
ATOM     21  C   UNL     1       2.370   7.692  18.138  0.00  0.00    +0.000 A 
ATOM     22  C   UNL     1       1.712   8.745  18.788  0.00  0.00    +0.000 A 
ATOM     23  C   UNL     1       1.423   9.947  18.123  0.00  0.00    +0.000 A 
ATOM     24  C   UNL     1       0.751  10.980  18.777  0.00  0.00    +0.000 A 
ATOM     25  C   UNL     1       0.374  10.829  20.109  0.00  0.00    +0.000 A 
ATOM     26  C   UNL     1       0.658   9.642  20.784  0.00  0.00    +0.000 A 
ATOM     27  C   UNL     1       1.319   8.587  20.135  0.00  0.00    +0.000 A 
ATOM     28  C   UNL     1       1.574   7.368  20.787  0.00  0.00    +0.000 A 
ENDBRANCH  18  19
ENDBRANCH   3  18
TORSDOF 5
ENDMDL
MODEL 2
REMARK VINA RESULT:      -8.7      1.403      2.599
REMARK  Name = 
REMARK  6 active torsions:
REMARK  status: ('A' for Active; 'I' for Inactive)
REMARK    1  A    between atoms: C_1  and  N_2
REMARK    2  A    between atoms: N_2  and  C_3
REMARK    3  A    between atoms: N_2  and  C_18
REMARK    4  A    between atoms: C_3  and  C_4
REMARK    5  A    between atoms: N_6  and  C_7
REMARK    6  A    between atoms: C_7  and  C_8
REMARK                            x       y       z     vdW  Elec       q    Type
REMARK                         _______ _______ _______ _____ _____    ______ ____
ROOT
ATOM      1  C   UNL     1       1.969   4.614  18.153  0.00  0.00    +0.000 C 
ATOM      2  O   UNL     1       1.168   3.891  17.558  0.00  0.00    +0.000 OA
ATOM      3  N   UNL     1       2.051   5.930  17.797  0.00  0.00    +0.000 N 
ATOM      4  H   UNL     1       1.432   6.190  17.040  0.00  0.00    +0.000 HD
ENDROOT
BRANCH   1   5
ATOM      5  C   UNL     1       2.856   4.081  19.283  0.00  0.00    +0.000 C 
BRANCH   5   7
ATOM      6  C   UNL     1       3.598   1.807  18.468  0.00  0.00    +0.000 C 
ATOM      7  N   UNL     1       3.949   3.181  18.847  0.00  0.00    +0.000 N 
BRANCH   7   8
ATOM      8  C   UNL     1       4.843   3.766  17.927  0.00  0.00    +0.000 A 
ATOM      9  N   UNL     1       4.722   3.513  16.596  0.00  0.00    +0.000 NA
ATOM     10  C   UNL     1       5.584   4.069  15.720  0.00  0.00    +0.000 A 
ATOM     11  N   UNL     1       6.617   4.873  15.985  0.00  0.00    +0.000 NA
ATOM     12  C   UNL     1       6.764   5.100  17.297  0.00  0.00    +0.000 A 
ATOM     13  N   UNL     1       7.756   5.863  17.852  0.00  0.00    +0.000 NA
ATOM     14  C   UNL     1       7.550   5.798  19.145  0.00  0.00    +0.000 A 
ATOM     15  N   UNL     1       6.460   5.029  19.444  0.00  0.00    +0.000 N 
ATOM     16  C   UNL     1       5.924   4.578  18.269  0.00  0.00    +0.000 A 
ATOM     17  H   UNL     1       6.127   4.824  20.372  0.00  0.00    +0.000 HD
ENDBRANCH   7   8
ENDBRANCH   5   7
ENDBRANCH   1   5
BRANCH   3  18
ATOM     18  C   UNL     1       2.889   6.951  18.385  0.00  0.00    +0.000 C 
BRANCH  18  19
ATOM     19  C   UNL     1       2.103   8.087  18.990  0.00  0.00    +0.000 A 
ATOM     20  C   UNL     1       1.614   9.142  18.209  0.00  0.00    +0.000 A 
ATOM     21  C   UNL     1       0.807  10.132  18.774  0.00  0.00    +0.000 A 
ATOM     22  C   UNL     1       0.455  10.083  20.130  0.00  0.00    +0.000 A 
ATOM     23  C   UNL     1      -0.395  11.045  20.699  0.00  0.00    +0.000 A 
ATOM     24  C   UNL     1      -0.752  10.973  22.045  0.00  0.00    +0.000 A 
ATOM     25  C   UNL     1      -0.252   9.948  22.843  0.00  0.00    +0.000 A 
ATOM     26  C   UNL     1       0.598   8.986  22.292  0.00  0.00    +0.000 A 
ATOM     27  C   UNL     1       0.953   9.035  20.935  0.00  0.00    +0.000 A 
ATOM     28  C   UNL     1       1.771   8.051  20.355  0.00  0.00    +0.000 A 
ENDBRANCH  18  19
ENDBRANCH   3  18
TORSDOF 5
ENDMDL
MODEL 3
REMARK VINA RESULT:      -8.7      1.516      2.745
REMARK  Name = 
REMARK  6 active torsions:
REMARK  status: ('A' for Active; 'I' for Inactive)
REMARK    1  A    between atoms: C_1  and  N_2
REMARK    2  A    between atoms: N_2  and  C_3
REMARK    3  A    between atoms: N_2  and  C_18
REMARK    4  A    between atoms: C_3  and  C_4
REMARK    5  A    between atoms: N_6  and  C_7
REMARK    6  A    between atoms: C_7  and  C_8
REMARK                            x       y       z     vdW  Elec       q    Type
REMARK                         _______ _______ _______ _____ _____    ______ ____
ROOT
ATOM      1  C   UNL     1       2.467   4.660  20.335  0.00  0.00    +0.000 C 
ATOM      2  O   UNL     1       2.430   3.913  21.315  0.00  0.00    +0.000 OA
ATOM      3  N   UNL     1       2.389   6.008  20.537  0.00  0.00    +0.000 N 
ATOM      4  H   UNL     1       2.291   6.272  21.509  0.00  0.00    +0.000 HD
ENDROOT
BRANCH   1   5
ATOM      5  C   UNL     1       2.610   4.117  18.909  0.00  0.00    +0.000 C 
BRANCH   5   7
ATOM      6  C   UNL     1       3.627   1.859  18.405  0.00  0.00    +0.000 C 
ATOM      7  N   UNL     1       3.816   3.290  18.674  0.00  0.00    +0.000 N 
BRANCH   7   8
ATOM      8  C   UNL     1       4.748   3.871  17.789  0.00  0.00    +0.000 A 
ATOM      9  N   UNL     1       4.637   3.673  16.447  0.00  0.00    +0.000 NA
ATOM     10  C   UNL     1       5.534   4.224  15.605  0.00  0.00    +0.000 A 
ATOM     11  N   UNL     1       6.596   4.973  15.914  0.00  0.00    +0.000 NA
ATOM     12  C   UNL     1       6.733   5.144  17.236  0.00  0.00    +0.000 A 
ATOM     13  N   UNL     1       7.748   5.842  17.832  0.00  0.00    +0.000 NA
ATOM     14  C   UNL     1       7.520   5.739  19.119  0.00  0.00    +0.000 A 
ATOM     15  N   UNL     1       6.394   5.006  19.374  0.00  0.00    +0.000 N 
ATOM     16  C   UNL     1       5.857   4.622  18.175  0.00  0.00    +0.000 A 
ATOM     17  H   UNL     1       6.039   4.781  20.289  0.00  0.00    +0.000 HD
ENDBRANCH   7   8
ENDBRANCH   5   7
ENDBRANCH   1   5
BRANCH   3  18
ATOM     18  C   UNL     1       2.449   7.053  19.540  0.00  0.00    +0.000 C 
BRANCH  18  19
ATOM     19  C   UNL     1       1.664   8.283  19.923  0.00  0.00    +0.000 A 
ATOM     20  C   UNL     1       1.355   9.279  18.988  0.00  0.00    +0.000 A 
ATOM     21  C   UNL     1       0.545  10.361  19.342  0.00  0.00    +0.000 A 
ATOM     22  C   UNL     1       0.011  10.465  20.634  0.00  0.00    +0.000 A 
ATOM     23  C   UNL     1      -0.843  11.522  20.988  0.00  0.00    +0.000 A 
ATOM     24  C   UNL     1      -1.382  11.602  22.272  0.00  0.00    +0.000 A 
ATOM     25  C   UNL     1      -1.061  10.637  23.222  0.00  0.00    +0.000 A 
ATOM     26  C   UNL     1      -0.210   9.583  22.886  0.00  0.00    +0.000 A 
ATOM     27  C   UNL     1       0.327   9.478  21.593  0.00  0.00    +0.000 A 
ATOM     28  C   UNL     1       1.150   8.400  21.225  0.00  0.00    +0.000 A 
ENDBRANCH  18  19
ENDBRANCH   3  18
TORSDOF 5
ENDMDL
MODEL 4
REMARK VINA RESULT:      -8.5      5.289      7.497
REMARK  Name = 
REMARK  6 active torsions:
REMARK  status: ('A' for Active; 'I' for Inactive)
REMARK    1  A    between atoms: C_1  and  N_2
REMARK    2  A    between atoms: N_2  and  C_3
REMARK    3  A    between atoms: N_2  and  C_18
REMARK    4  A    between atoms: C_3  and  C_4
REMARK    5  A    between atoms: N_6  and  C_7
REMARK    6  A    between atoms: C_7  and  C_8
REMARK                            x       y       z     vdW  Elec       q    Type
REMARK                         _______ _______ _______ _____ _____    ______ ____
ROOT
ATOM      1  C   UNL     1       7.818   6.285  18.823  0.00  0.00    +0.000 C 
ATOM      2  O   UNL     1       8.086   5.408  19.647  0.00  0.00    +0.000 OA
ATOM      3  N   UNL     1       8.427   7.500  18.941  0.00  0.00    +0.000 N 
ATOM      4  H   UNL     1       9.054   7.571  19.733  0.00  0.00    +0.000 HD
ENDROOT
BRANCH   1   5
ATOM      5  C   UNL     1       6.837   6.040  17.671  0.00  0.00    +0.000 C 
BRANCH   5   7
ATOM      6  C   UNL     1       4.588   6.914  16.919  0.00  0.00    +0.000 C 
ATOM      7  N   UNL     1       5.420   6.339  17.983  0.00  0.00    +0.000 N 
BRANCH   7   8
ATOM      8  C   UNL     1       4.752   5.303  18.669  0.00  0.00    +0.000 A 
ATOM      9  N   UNL     1       5.163   4.013  18.534  0.00  0.00    +0.000 NA
ATOM     10  C   UNL     1       4.516   3.025  19.186  0.00  0.00    +0.000 A 
ATOM     11  N   UNL     1       3.452   3.131  19.986  0.00  0.00    +0.000 NA
ATOM     12  C   UNL     1       3.020   4.394  20.097  0.00  0.00    +0.000 A 
ATOM     13  N   UNL     1       1.932   4.787  20.829  0.00  0.00    +0.000 NA
ATOM     14  C   UNL     1       1.848   6.082  20.644  0.00  0.00    +0.000 A 
ATOM     15  N   UNL     1       2.843   6.539  19.826  0.00  0.00    +0.000 N 
ATOM     16  C   UNL     1       3.624   5.474  19.471  0.00  0.00    +0.000 A 
ATOM     17  H   UNL     1       2.964   7.495  19.531  0.00  0.00    +0.000 HD
ENDBRANCH   7   8
ENDBRANCH   5   7
ENDBRANCH   1   5
BRANCH   3  18
ATOM     18  C   UNL     1       8.285   8.646  18.070  0.00  0.00    +0.000 C 
BRANCH  18  19
ATOM     19  C   UNL     1       8.949   9.887  18.611  0.00  0.00    +0.000 A 
ATOM     20  C   UNL     1       9.102  10.100  19.987  0.00  0.00    +0.000 A 
ATOM     21  C   UNL     1       9.805  11.209  20.463  0.00  0.00    +0.000 A 
ATOM     22  C   UNL     1      10.386  12.125  19.574  0.00  0.00    +0.000 A 
ATOM     23  C   UNL     1      11.136  13.217  20.038  0.00  0.00    +0.000 A 
ATOM     24  C   UNL     1      11.725  14.109  19.141  0.00  0.00    +0.000 A 
ATOM     25  C   UNL     1      11.559  13.929  17.771  0.00  0.00    +0.000 A 
ATOM     26  C   UNL     1      10.812  12.850  17.295  0.00  0.00    +0.000 A 
ATOM     27  C   UNL     1      10.227  11.934  18.184  0.00  0.00    +0.000 A 
ATOM     28  C   UNL     1       9.510  10.818  17.721  0.00  0.00    +0.000 A 
ENDBRANCH  18  19
ENDBRANCH   3  18
TORSDOF 5
ENDMDL
MODEL 5
REMARK VINA RESULT:      -8.5      1.045      1.637
REMARK  Name = 
REMARK  6 active torsions:
REMARK  status: ('A' for Active; 'I' for Inactive)
REMARK    1  A    between atoms: C_1  and  N_2
REMARK    2  A    between atoms: N_2  and  C_3
REMARK    3  A    between atoms: N_2  and  C_18
REMARK    4  A    between atoms: C_3  and  C_4
REMARK    5  A    between atoms: N_6  and  C_7
REMARK    6  A    between atoms: C_7  and  C_8
REMARK                            x       y       z     vdW  Elec       q    Type
REMARK                         _______ _______ _______ _____ _____    ______ ____
ROOT
ATOM      1  C   UNL     1       2.184   3.851  19.738  0.00  0.00    +0.000 C 
ATOM      2  O   UNL     1       1.304   2.997  19.865  0.00  0.00    +0.000 OA
ATOM      3  N   UNL     1       1.818   5.165  19.702  0.00  0.00    +0.000 N 
ATOM      4  H   UNL     1       0.819   5.316  19.771  0.00  0.00    +0.000 HD
ENDROOT
BRANCH   1   5
ATOM      5  C   UNL     1       3.666   3.477  19.637  0.00  0.00    +0.000 C 
BRANCH   5   7
ATOM      6  C   UNL     1       3.243   3.506  17.146  0.00  0.00    +0.000 C 
ATOM      7  N   UNL     1       4.196   3.394  18.257  0.00  0.00    +0.000 N 
BRANCH   7   8
ATOM      8  C   UNL     1       5.351   4.173  18.036  0.00  0.00    +0.000 A 
ATOM      9  N   UNL     1       5.935   4.842  19.067  0.00  0.00    +0.000 NA
ATOM     10  C   UNL     1       7.035   5.592  18.850  0.00  0.00    +0.000 A 
ATOM     11  N   UNL     1       7.670   5.800  17.694  0.00  0.00    +0.000 NA
ATOM     12  C   UNL     1       7.081   5.172  16.667  0.00  0.00    +0.000 A 
ATOM     13  N   UNL     1       7.503   5.236  15.367  0.00  0.00    +0.000 NA
ATOM     14  C   UNL     1       6.641   4.510  14.695  0.00  0.00    +0.000 A 
ATOM     15  N   UNL     1       5.685   3.978  15.514  0.00  0.00    +0.000 N 
ATOM     16  C   UNL     1       5.954   4.376  16.795  0.00  0.00    +0.000 A 
ATOM     17  H   UNL     1       4.913   3.405  15.214  0.00  0.00    +0.000 HD
ENDBRANCH   7   8
ENDBRANCH   5   7
ENDBRANCH   1   5
BRANCH   3  18
ATOM     18  C   UNL     1       2.683   6.319  19.597  0.00  0.00    +0.000 C 
BRANCH  18  19
ATOM     19  C   UNL     1       1.975   7.620  19.880  0.00  0.00    +0.000 A 
ATOM     20  C   UNL     1       1.781   8.584  18.882  0.00  0.00    +0.000 A 
ATOM     21  C   UNL     1       1.038   9.738  19.142  0.00  0.00    +0.000 A 
ATOM     22  C   UNL     1       0.457   9.948  20.401  0.00  0.00    +0.000 A 
ATOM     23  C   UNL     1      -0.332  11.080  20.660  0.00  0.00    +0.000 A 
ATOM     24  C   UNL     1      -0.920  11.267  21.912  0.00  0.00    +0.000 A 
ATOM     25  C   UNL     1      -0.713  10.334  22.923  0.00  0.00    +0.000 A 
ATOM     26  C   UNL     1       0.073   9.206  22.681  0.00  0.00    +0.000 A 
ATOM     27  C   UNL     1       0.657   8.994  21.422  0.00  0.00    +0.000 A 
ATOM     28  C   UNL     1       1.414   7.843  21.149  0.00  0.00    +0.000 A 
ENDBRANCH  18  19
ENDBRANCH   3  18
TORSDOF 5
ENDMDL
MODEL 6
REMARK VINA RESULT:      -8.4      1.165      1.829
REMARK  Name = 
REMARK  6 active torsions:
REMARK  status: ('A' for Active; 'I' for Inactive)
REMARK    1  A    between atoms: C_1  and  N_2
REMARK    2  A    between atoms: N_2  and  C_3
REMARK    3  A    between atoms: N_2  and  C_18
REMARK    4  A    between atoms: C_3  and  C_4
REMARK    5  A    between atoms: N_6  and  C_7
REMARK    6  A    between atoms: C_7  and  C_8
REMARK                            x       y       z     vdW  Elec       q    Type
REMARK                         _______ _______ _______ _____ _____    ______ ____
ROOT
ATOM      1  C   UNL     1       1.997   3.970  17.865  0.00  0.00    +0.000 C 
ATOM      2  O   UNL     1       1.047   3.183  17.870  0.00  0.00    +0.000 OA
ATOM      3  N   UNL     1       1.746   5.297  18.065  0.00  0.00    +0.000 N 
ATOM      4  H   UNL     1       0.766   5.516  18.189  0.00  0.00    +0.000 HD
ENDROOT
BRANCH   1   5
ATOM      5  C   UNL     1       3.439   3.497  17.655  0.00  0.00    +0.000 C 
BRANCH   5   7
ATOM      6  C   UNL     1       4.588   2.521  19.684  0.00  0.00    +0.000 C 
ATOM      7  N   UNL     1       4.333   3.682  18.821  0.00  0.00    +0.000 N 
BRANCH   7   8
ATOM      8  C   UNL     1       5.518   4.389  18.531  0.00  0.00    +0.000 A 
ATOM      9  N   UNL     1       6.202   5.020  19.523  0.00  0.00    +0.000 NA
ATOM     10  C   UNL     1       7.332   5.700  19.240  0.00  0.00    +0.000 A 
ATOM     11  N   UNL     1       7.909   5.871  18.048  0.00  0.00    +0.000 NA
ATOM     12  C   UNL     1       7.222   5.281  17.059  0.00  0.00    +0.000 A 
ATOM     13  N   UNL     1       7.569   5.320  15.736  0.00  0.00    +0.000 NA
ATOM     14  C   UNL     1       6.626   4.650  15.118  0.00  0.00    +0.000 A 
ATOM     15  N   UNL     1       5.689   4.177  15.994  0.00  0.00    +0.000 N 
ATOM     16  C   UNL     1       6.057   4.556  17.256  0.00  0.00    +0.000 A 
ATOM     17  H   UNL     1       4.867   3.653  15.742  0.00  0.00    +0.000 HD
ENDBRANCH   7   8
ENDBRANCH   5   7
ENDBRANCH   1   5
BRANCH   3  18
ATOM     18  C   UNL     1       2.708   6.375  18.132  0.00  0.00    +0.000 C 
BRANCH  18  19
ATOM     19  C   UNL     1       2.134   7.646  18.706  0.00  0.00    +0.000 A 
ATOM     20  C   UNL     1       1.852   8.756  17.899  0.00  0.00    +0.000 A 
ATOM     21  C   UNL     1       1.231   9.886  18.435  0.00  0.00    +0.000 A 
ATOM     22  C   UNL     1       0.863   9.929  19.787  0.00  0.00    +0.000 A 
ATOM     23  C   UNL     1       0.196  11.040  20.327  0.00  0.00    +0.000 A 
ATOM     24  C   UNL     1      -0.181  11.061  21.670  0.00  0.00    +0.000 A 
ATOM     25  C   UNL     1       0.118   9.979  22.493  0.00  0.00    +0.000 A 
ATOM     26  C   UNL     1       0.784   8.869  21.971  0.00  0.00    +0.000 A 
ATOM     27  C   UNL     1       1.156   8.826  20.618  0.00  0.00    +0.000 A 
ATOM     28  C   UNL     1       1.788   7.699  20.066  0.00  0.00    +0.000 A 
ENDBRANCH  18  19
ENDBRANCH   3  18
TORSDOF 5
ENDMDL
MODEL 7
REMARK VINA RESULT:      -8.4      0.978      2.115
REMARK  Name = 
REMARK  6 active torsions:
REMARK  status: ('A' for Active; 'I' for Inactive)
REMARK    1  A    between atoms: C_1  and  N_2
REMARK    2  A    between atoms: N_2  and  C_3
REMARK    3  A    between atoms: N_2  and  C_18
REMARK    4  A    between atoms: C_3  and  C_4
REMARK    5  A    between atoms: N_6  and  C_7
REMARK    6  A    between atoms: C_7  and  C_8
REMARK                            x       y       z     vdW  Elec       q    Type
REMARK                         _______ _______ _______ _____ _____    ______ ____
ROOT
ATOM      1  C   UNL     1       1.584   4.087  18.764  0.00  0.00    +0.000 C 
ATOM      2  O   UNL     1       0.678   3.263  18.911  0.00  0.00    +0.000 OA
ATOM      3  N   UNL     1       1.696   5.104  19.668  0.00  0.00    +0.000 N 
ATOM      4  H   UNL     1       0.988   5.091  20.391  0.00  0.00    +0.000 HD
ENDROOT
BRANCH   1   5
ATOM      5  C   UNL     1       2.588   3.988  17.610  0.00  0.00    +0.000 C 
BRANCH   5   7
ATOM      6  C   UNL     1       3.834   1.806  17.877  0.00  0.00    +0.000 C 
ATOM      7  N   UNL     1       3.843   3.273  17.934  0.00  0.00    +0.000 N 
BRANCH   7   8
ATOM      8  C   UNL     1       4.989   3.813  17.314  0.00  0.00    +0.000 A 
ATOM      9  N   UNL     1       5.227   3.588  15.994  0.00  0.00    +0.000 NA
ATOM     10  C   UNL     1       6.328   4.101  15.407  0.00  0.00    +0.000 A 
ATOM     11  N   UNL     1       7.291   4.833  15.971  0.00  0.00    +0.000 NA
ATOM     12  C   UNL     1       7.083   5.031  17.279  0.00  0.00    +0.000 A 
ATOM     13  N   UNL     1       7.924   5.721  18.109  0.00  0.00    +0.000 NA
ATOM     14  C   UNL     1       7.365   5.651  19.294  0.00  0.00    +0.000 A 
ATOM     15  N   UNL     1       6.194   4.948  19.256  0.00  0.00    +0.000 N 
ATOM     16  C   UNL     1       5.978   4.549  17.965  0.00  0.00    +0.000 A 
ATOM     17  H   UNL     1       5.606   4.752  20.050  0.00  0.00    +0.000 HD
ENDBRANCH   7   8
ENDBRANCH   5   7
ENDBRANCH   1   5
BRANCH   3  18
ATOM     18  C   UNL     1       2.697   6.146  19.702  0.00  0.00    +0.000 C 
BRANCH  18  19
ATOM     19  C   UNL     1       2.128   7.523  19.466  0.00  0.00    +0.000 A 
ATOM     20  C   UNL     1       2.165   8.127  18.202  0.00  0.00    +0.000 A 
ATOM     21  C   UNL     1       1.547   9.361  17.985  0.00  0.00    +0.000 A 
ATOM     22  C   UNL     1       0.862  10.012  19.020  0.00  0.00    +0.000 A 
ATOM     23  C   UNL     1       0.195  11.228  18.802  0.00  0.00    +0.000 A 
ATOM     24  C   UNL     1      -0.499  11.856  19.838  0.00  0.00    +0.000 A 
ATOM     25  C   UNL     1      -0.521  11.283  21.106  0.00  0.00    +0.000 A 
ATOM     26  C   UNL     1       0.140  10.076  21.339  0.00  0.00    +0.000 A 
ATOM     27  C   UNL     1       0.829   9.424  20.303  0.00  0.00    +0.000 A 
ATOM     28  C   UNL     1       1.463   8.187  20.509  0.00  0.00    +0.000 A 
ENDBRANCH  18  19
ENDBRANCH   3  18
TORSDOF 5
ENDMDL
MODEL 8
REMARK VINA RESULT:      -8.2      1.119      1.433
REMARK  Name = 
REMARK  6 active torsions:
REMARK  status: ('A' for Active; 'I' for Inactive)
REMARK    1  A    between atoms: C_1  and  N_2
REMARK    2  A    between atoms: N_2  and  C_3
REMARK    3  A    between atoms: N_2  and  C_18
REMARK    4  A    between atoms: C_3  and  C_4
REMARK    5  A    between atoms: N_6  and  C_7
REMARK    6  A    between atoms: C_7  and  C_8
REMARK                            x       y       z     vdW  Elec       q    Type
REMARK                         _______ _______ _______ _____ _____    ______ ____
ROOT
ATOM      1  C   UNL     1       1.815   4.111  18.365  0.00  0.00    +0.000 C 
ATOM      2  O   UNL     1       0.967   3.277  18.038  0.00  0.00    +0.000 OA
ATOM      3  N   UNL     1       1.613   4.834  19.505  0.00  0.00    +0.000 N 
ATOM      4  H   UNL     1       0.747   4.618  19.981  0.00  0.00    +0.000 HD
ENDROOT
BRANCH   1   5
ATOM      5  C   UNL     1       3.085   4.341  17.539  0.00  0.00    +0.000 C 
BRANCH   5   7
ATOM      6  C   UNL     1       4.770   2.970  18.830  0.00  0.00    +0.000 C 
ATOM      7  N   UNL     1       4.350   4.276  18.307  0.00  0.00    +0.000 N 
BRANCH   7   8
ATOM      8  C   UNL     1       5.422   4.970  17.709  0.00  0.00    +0.000 A 
ATOM      9  N   UNL     1       6.021   6.003  18.361  0.00  0.00    +0.000 NA
ATOM     10  C   UNL     1       7.041   6.669  17.782  0.00  0.00    +0.000 A 
ATOM     11  N   UNL     1       7.577   6.460  16.577  0.00  0.00    +0.000 NA
ATOM     12  C   UNL     1       6.970   5.467  15.914  0.00  0.00    +0.000 A 
ATOM     13  N   UNL     1       7.296   5.059  14.648  0.00  0.00    +0.000 NA
ATOM     14  C   UNL     1       6.449   4.095  14.374  0.00  0.00    +0.000 A 
ATOM     15  N   UNL     1       5.597   3.863  15.417  0.00  0.00    +0.000 N 
ATOM     16  C   UNL     1       5.920   4.723  16.430  0.00  0.00    +0.000 A 
ATOM     17  H   UNL     1       4.853   3.183  15.422  0.00  0.00    +0.000 HD
ENDBRANCH   7   8
ENDBRANCH   5   7
ENDBRANCH   1   5
BRANCH   3  18
ATOM     18  C   UNL     1       2.489   5.828  20.085  0.00  0.00    +0.000 C 
BRANCH  18  19
ATOM     19  C   UNL     1       2.076   7.242  19.763  0.00  0.00    +0.000 A 
ATOM     20  C   UNL     1       2.316   7.810  18.505  0.00  0.00    +0.000 A 
ATOM     21  C   UNL     1       1.839   9.087  18.198  0.00  0.00    +0.000 A 
ATOM     22  C   UNL     1       1.098   9.820  19.135  0.00  0.00    +0.000 A 
ATOM     23  C   UNL     1       0.572  11.084  18.822  0.00  0.00    +0.000 A 
ATOM     24  C   UNL     1      -0.181  11.794  19.758  0.00  0.00    +0.000 A 
ATOM     25  C   UNL     1      -0.404  11.256  21.022  0.00  0.00    +0.000 A 
ATOM     26  C   UNL     1       0.116  10.003  21.349  0.00  0.00    +0.000 A 
ATOM     27  C   UNL     1       0.861   9.268  20.413  0.00  0.00    +0.000 A 
ATOM     28  C   UNL     1       1.355   7.987  20.710  0.00  0.00    +0.000 A 
ENDBRANCH  18  19
ENDBRANCH   3  18
TORSDOF 5
ENDMDL
MODEL 9
REMARK VINA RESULT:      -8.2      1.923      3.290
REMARK  Name = 
REMARK  6 active torsions:
REMARK  status: ('A' for Active; 'I' for Inactive)
REMARK    1  A    between atoms: C_1  and  N_2
REMARK    2  A    between atoms: N_2  and  C_3
REMARK    3  A    between atoms: N_2  and  C_18
REMARK    4  A    between atoms: C_3  and  C_4
REMARK    5  A    between atoms: N_6  and  C_7
REMARK    6  A    between atoms: C_7  and  C_8
REMARK                            x       y       z     vdW  Elec       q    Type
REMARK                         _______ _______ _______ _____ _____    ______ ____
ROOT
ATOM      1  C   UNL     1       2.257   5.136  20.502  0.00  0.00    +0.000 C 
ATOM      2  O   UNL     1       2.353   4.207  21.307  0.00  0.00    +0.000 OA
ATOM      3  N   UNL     1       2.018   6.392  20.979  0.00  0.00    +0.000 N 
ATOM      4  H   UNL     1       1.926   6.439  21.986  0.00  0.00    +0.000 HD
ENDROOT
BRANCH   1   5
ATOM      5  C   UNL     1       2.412   4.918  18.993  0.00  0.00    +0.000 C 
BRANCH   5   7
ATOM      6  C   UNL     1       3.623   2.996  17.885  0.00  0.00    +0.000 C 
ATOM      7  N   UNL     1       3.687   4.287  18.581  0.00  0.00    +0.000 N 
BRANCH   7   8
ATOM      8  C   UNL     1       4.592   5.173  17.959  0.00  0.00    +0.000 A 
ATOM      9  N   UNL     1       4.277   5.755  16.771  0.00  0.00    +0.000 NA
ATOM     10  C   UNL     1       5.148   6.595  16.176  0.00  0.00    +0.000 A 
ATOM     11  N   UNL     1       6.362   6.954  16.602  0.00  0.00    +0.000 NA
ATOM     12  C   UNL     1       6.694   6.358  17.755  0.00  0.00    +0.000 A 
ATOM     13  N   UNL     1       7.890   6.521  18.403  0.00  0.00    +0.000 NA
ATOM     14  C   UNL     1       7.811   5.748  19.459  0.00  0.00    +0.000 A 
ATOM     15  N   UNL     1       6.609   5.100  19.520  0.00  0.00    +0.000 N 
ATOM     16  C   UNL     1       5.862   5.487  18.441  0.00  0.00    +0.000 A 
ATOM     17  H   UNL     1       6.336   4.442  20.233  0.00  0.00    +0.000 HD
ENDBRANCH   7   8
ENDBRANCH   5   7
ENDBRANCH   1   5
BRANCH   3  18
ATOM     18  C   UNL     1       1.907   7.617  20.219  0.00  0.00    +0.000 C 
BRANCH  18  19
ATOM     19  C   UNL     1       1.004   8.637  20.867  0.00  0.00    +0.000 A 
ATOM     20  C   UNL     1       0.884   8.733  22.260  0.00  0.00    +0.000 A 
ATOM     21  C   UNL     1       0.118   9.748  22.839  0.00  0.00    +0.000 A 
ATOM     22  C   UNL     1      -0.532  10.700  22.043  0.00  0.00    +0.000 A 
ATOM     23  C   UNL     1      -1.265  11.753  22.614  0.00  0.00    +0.000 A 
ATOM     24  C   UNL     1      -1.890  12.705  21.808  0.00  0.00    +0.000 A 
ATOM     25  C   UNL     1      -1.804  12.607  20.423  0.00  0.00    +0.000 A 
ATOM     26  C   UNL     1      -1.083  11.564  19.840  0.00  0.00    +0.000 A 
ATOM     27  C   UNL     1      -0.434  10.608  20.637  0.00  0.00    +0.000 A 
ATOM     28  C   UNL     1       0.333   9.576  20.068  0.00  0.00    +0.000 A 
ENDBRANCH  18  19
ENDBRANCH   3  18
TORSDOF 5
ENDMDL
