MODEL 1
REMARK VINA RESULT:      -8.8      0.000      0.000
REMARK  Name = 
REMARK  3 active torsions:
REMARK  status: ('A' for Active; 'I' for Inactive)
REMARK    1  A    between atoms: C_2  and  C_18
REMARK    2  A    between atoms: C_6  and  C_7
REMARK    3  A    between atoms: C_11  and  N_12
REMARK                            x       y       z     vdW  Elec       q    Type
REMARK                         _______ _______ _______ _____ _____    ______ ____
ROOT
ATOM      1  O   UNL     1       8.382   7.299  19.256  0.00  0.00    +0.000 OA
ATOM      2  C   UNL     1       8.236   8.041  18.294  0.00  0.00    +0.000 C 
ATOM      3  N   UNL     1       7.367   7.880  17.226  0.00  0.00    +0.000 N 
ATOM      4  C   UNL     1       6.426   6.889  17.107  0.00  0.00    +0.000 A 
ATOM      5  N   UNL     1       6.059   5.922  17.917  0.00  0.00    +0.000 NA
ATOM      6  C   UNL     1       5.015   5.298  17.254  0.00  0.00    +0.000 A 
ATOM      7  N   UNL     1       4.742   5.842  16.057  0.00  0.00    +0.000 NA
ATOM      8  N   UNL     1       5.635   6.832  15.993  0.00  0.00    +0.000 N 
ATOM      9  H   UNL     1       7.461   8.560  16.480  0.00  0.00    +0.000 HD
ATOM     10  H   UNL     1       5.637   7.439  15.185  0.00  0.00    +0.000 HD
ENDROOT
BRANCH   2  11
ATOM     11  C   UNL     1       8.943   9.403  18.185  0.00  0.00    +0.000 C 
ATOM     12  C   UNL     1       8.102  10.566  17.653  0.00  0.00    +0.000 C 
ATOM     13  C   UNL     1       8.925  11.667  18.228  0.00  0.00    +0.000 A 
ATOM     14  C   UNL     1       9.043  12.996  17.866  0.00  0.00    +0.000 A 
ATOM     15  C   UNL     1       9.918  13.805  18.601  0.00  0.00    +0.000 A 
ATOM     16  C   UNL     1      10.627  13.288  19.700  0.00  0.00    +0.000 A 
ATOM     17  C   UNL     1      10.486  11.950  20.067  0.00  0.00    +0.000 A 
ATOM     18  C   UNL     1       9.654  11.163  19.300  0.00  0.00    +0.000 A 
ATOM     19  O   UNL     1       9.492   9.810  19.472  0.00  0.00    +0.000 OA
ENDBRANCH   2  11
BRANCH   6  20
ATOM     20  C   UNL     1       4.237   4.186  17.807  0.00  0.00    +0.000 A 
ATOM     21  C   UNL     1       3.282   3.518  17.025  0.00  0.00    +0.000 A 
ATOM     22  C   UNL     1       2.574   2.423  17.538  0.00  0.00    +0.000 A 
ATOM     23  C   UNL     1       2.813   1.980  18.839  0.00  0.00    +0.000 A 
ATOM     24  C   UNL     1       3.758   2.646  19.629  0.00  0.00    +0.000 A 
ATOM     25  C   UNL     1       4.465   3.745  19.121  0.00  0.00    +0.000 A 
BRANCH  24  26
ATOM     26  N   UNL     1       4.022   2.178  20.996  0.00  0.00    +0.000 N 
ATOM     27  O   UNL     1       3.118   2.309  21.835  0.00  0.00    +0.000 OA
ATOM     28  O   UNL     1       5.129   1.674  21.233  0.00  0.00    +0.000 OA
ENDBRANCH  24  26
ENDBRANCH   6  20
TORSDOF 3
ENDMDL
MODEL 2
REMARK VINA RESULT:      -8.5      8.403     10.781
REMARK  Name = 
REMARK  3 active torsions:
REMARK  status: ('A' for Active; 'I' for Inactive)
REMARK    1  A    between atoms: C_2  and  C_18
REMARK    2  A    between atoms: C_6  and  C_7
REMARK    3  A    between atoms: C_11  and  N_12
REMARK                            x       y       z     vdW  Elec       q    Type
REMARK                         _______ _______ _______ _____ _____    ______ ____
ROOT
ATOM      1  O   UNL     1       1.583   8.518  18.885  0.00  0.00    +0.000 OA
ATOM      2  C   UNL     1       1.923   7.794  19.810  0.00  0.00    +0.000 C 
ATOM      3  N   UNL     1       1.692   7.987  21.164  0.00  0.00    +0.000 N 
ATOM      4  C   UNL     1       0.940   8.996  21.708  0.00  0.00    +0.000 A 
ATOM      5  N   UNL     1       0.231   9.957  21.161  0.00  0.00    +0.000 NA
ATOM      6  C   UNL     1      -0.347  10.610  22.237  0.00  0.00    +0.000 A 
ATOM      7  N   UNL     1      -0.001  10.090  23.426  0.00  0.00    +0.000 NA
ATOM      8  N   UNL     1       0.800   9.085  23.065  0.00  0.00    +0.000 N 
ATOM      9  H   UNL     1       2.136   7.316  21.782  0.00  0.00    +0.000 HD
ATOM     10  H   UNL     1       1.193   8.490  23.781  0.00  0.00    +0.000 HD
ENDROOT
BRANCH   2  11
ATOM     11  C   UNL     1       2.581   6.421  19.588  0.00  0.00    +0.000 C 
ATOM     12  C   UNL     1       2.194   5.313  20.572  0.00  0.00    +0.000 C 
ATOM     13  C   UNL     1       2.561   4.160  19.703  0.00  0.00    +0.000 A 
ATOM     14  C   UNL     1       2.874   2.850  20.019  0.00  0.00    +0.000 A 
ATOM     15  C   UNL     1       3.192   1.977  18.971  0.00  0.00    +0.000 A 
ATOM     16  C   UNL     1       3.156   2.411  17.634  0.00  0.00    +0.000 A 
ATOM     17  C   UNL     1       2.820   3.730  17.327  0.00  0.00    +0.000 A 
ATOM     18  C   UNL     1       2.557   4.582  18.379  0.00  0.00    +0.000 A 
ATOM     19  O   UNL     1       2.314   5.927  18.243  0.00  0.00    +0.000 OA
ENDBRANCH   2  11
BRANCH   6  20
ATOM     20  C   UNL     1      -1.287  11.728  22.113  0.00  0.00    +0.000 A 
ATOM     21  C   UNL     1      -1.207  12.618  21.032  0.00  0.00    +0.000 A 
ATOM     22  C   UNL     1      -2.136  13.657  20.888  0.00  0.00    +0.000 A 
ATOM     23  C   UNL     1      -3.160  13.818  21.821  0.00  0.00    +0.000 A 
ATOM     24  C   UNL     1      -3.243  12.939  22.908  0.00  0.00    +0.000 A 
ATOM     25  C   UNL     1      -2.312  11.902  23.059  0.00  0.00    +0.000 A 
BRANCH  24  26
ATOM     26  N   UNL     1      -4.325  13.096  23.889  0.00  0.00    +0.000 N 
ATOM     27  O   UNL     1      -4.827  14.222  24.019  0.00  0.00    +0.000 OA
ATOM     28  O   UNL     1      -4.679  12.094  24.527  0.00  0.00    +0.000 OA
ENDBRANCH  24  26
ENDBRANCH   6  20
TORSDOF 3
ENDMDL
MODEL 3
REMARK VINA RESULT:      -8.4      6.380      7.576
REMARK  Name = 
REMARK  3 active torsions:
REMARK  status: ('A' for Active; 'I' for Inactive)
REMARK    1  A    between atoms: C_2  and  C_18
REMARK    2  A    between atoms: C_6  and  C_7
REMARK    3  A    between atoms: C_11  and  N_12
REMARK                            x       y       z     vdW  Elec       q    Type
REMARK                         _______ _______ _______ _____ _____    ______ ____
ROOT
ATOM      1  O   UNL     1       1.923   9.801  18.023  0.00  0.00    +0.000 OA
ATOM      2  C   UNL     1       1.345   9.427  19.035  0.00  0.00    +0.000 C 
ATOM      3  N   UNL     1       1.508   8.225  19.707  0.00  0.00    +0.000 N 
ATOM      4  C   UNL     1       2.438   7.263  19.404  0.00  0.00    +0.000 A 
ATOM      5  N   UNL     1       3.401   7.220  18.511  0.00  0.00    +0.000 NA
ATOM      6  C   UNL     1       4.033   6.011  18.749  0.00  0.00    +0.000 A 
ATOM      7  N   UNL     1       3.478   5.305  19.747  0.00  0.00    +0.000 NA
ATOM      8  N   UNL     1       2.488   6.111  20.138  0.00  0.00    +0.000 N 
ATOM      9  H   UNL     1       0.867   8.065  20.476  0.00  0.00    +0.000 HD
ATOM     10  H   UNL     1       1.906   5.831  20.915  0.00  0.00    +0.000 HD
ENDROOT
BRANCH   2  11
ATOM     11  C   UNL     1       0.393  10.338  19.829  0.00  0.00    +0.000 C 
ATOM     12  C   UNL     1      -0.145   9.777  21.148  0.00  0.00    +0.000 C 
ATOM     13  C   UNL     1      -0.491  11.083  21.775  0.00  0.00    +0.000 A 
ATOM     14  C   UNL     1      -1.377  11.395  22.790  0.00  0.00    +0.000 A 
ATOM     15  C   UNL     1      -1.498  12.738  23.170  0.00  0.00    +0.000 A 
ATOM     16  C   UNL     1      -0.713  13.734  22.563  0.00  0.00    +0.000 A 
ATOM     17  C   UNL     1       0.192  13.403  21.553  0.00  0.00    +0.000 A 
ATOM     18  C   UNL     1       0.259  12.082  21.165  0.00  0.00    +0.000 A 
ATOM     19  O   UNL     1       1.021  11.620  20.119  0.00  0.00    +0.000 OA
ENDBRANCH   2  11
BRANCH   6  20
ATOM     20  C   UNL     1       5.224   5.549  18.029  0.00  0.00    +0.000 A 
ATOM     21  C   UNL     1       6.385   5.179  18.723  0.00  0.00    +0.000 A 
ATOM     22  C   UNL     1       7.505   4.691  18.038  0.00  0.00    +0.000 A 
ATOM     23  C   UNL     1       7.479   4.565  16.649  0.00  0.00    +0.000 A 
ATOM     24  C   UNL     1       6.328   4.941  15.947  0.00  0.00    +0.000 A 
ATOM     25  C   UNL     1       5.206   5.434  16.629  0.00  0.00    +0.000 A 
BRANCH  24  26
ATOM     26  N   UNL     1       6.289   4.801  14.485  0.00  0.00    +0.000 N 
ATOM     27  O   UNL     1       5.324   4.200  13.989  0.00  0.00    +0.000 OA
ATOM     28  O   UNL     1       7.218   5.294  13.830  0.00  0.00    +0.000 OA
ENDBRANCH  24  26
ENDBRANCH   6  20
TORSDOF 3
ENDMDL
MODEL 4
REMARK VINA RESULT:      -8.3      6.585      7.894
REMARK  Name = 
REMARK  3 active torsions:
REMARK  status: ('A' for Active; 'I' for Inactive)
REMARK    1  A    between atoms: C_2  and  C_18
REMARK    2  A    between atoms: C_6  and  C_7
REMARK    3  A    between atoms: C_11  and  N_12
REMARK                            x       y       z     vdW  Elec       q    Type
REMARK                         _______ _______ _______ _____ _____    ______ ____
ROOT
ATOM      1  O   UNL     1       2.048  10.035  17.440  0.00  0.00    +0.000 OA
ATOM      2  C   UNL     1       1.451   9.783  18.478  0.00  0.00    +0.000 C 
ATOM      3  N   UNL     1       1.564   8.647  19.264  0.00  0.00    +0.000 N 
ATOM      4  C   UNL     1       2.457   7.625  19.064  0.00  0.00    +0.000 A 
ATOM      5  N   UNL     1       3.421   7.459  18.188  0.00  0.00    +0.000 NA
ATOM      6  C   UNL     1       4.004   6.255  18.547  0.00  0.00    +0.000 A 
ATOM      7  N   UNL     1       3.418   5.671  19.605  0.00  0.00    +0.000 NA
ATOM      8  N   UNL     1       2.458   6.548  19.907  0.00  0.00    +0.000 N 
ATOM      9  H   UNL     1       0.914   8.587  20.040  0.00  0.00    +0.000 HD
ATOM     10  H   UNL     1       1.863   6.368  20.703  0.00  0.00    +0.000 HD
ENDROOT
BRANCH   2  11
ATOM     11  C   UNL     1       0.532  10.803  19.172  0.00  0.00    +0.000 C 
ATOM     12  C   UNL     1      -0.871  10.969  18.583  0.00  0.00    +0.000 C 
ATOM     13  C   UNL     1      -1.516  11.538  19.799  0.00  0.00    +0.000 A 
ATOM     14  C   UNL     1      -2.656  12.307  19.945  0.00  0.00    +0.000 A 
ATOM     15  C   UNL     1      -3.018  12.709  21.237  0.00  0.00    +0.000 A 
ATOM     16  C   UNL     1      -2.266  12.309  22.355  0.00  0.00    +0.000 A 
ATOM     17  C   UNL     1      -1.128  11.518  22.196  0.00  0.00    +0.000 A 
ATOM     18  C   UNL     1      -0.766  11.174  20.911  0.00  0.00    +0.000 A 
ATOM     19  O   UNL     1       0.380  10.489  20.587  0.00  0.00    +0.000 OA
ENDBRANCH   2  11
BRANCH   6  20
ATOM     20  C   UNL     1       5.179   5.680  17.885  0.00  0.00    +0.000 A 
ATOM     21  C   UNL     1       6.275   5.225  18.633  0.00  0.00    +0.000 A 
ATOM     22  C   UNL     1       7.377   4.631  18.003  0.00  0.00    +0.000 A 
ATOM     23  C   UNL     1       7.396   4.481  16.617  0.00  0.00    +0.000 A 
ATOM     24  C   UNL     1       6.310   4.939  15.861  0.00  0.00    +0.000 A 
ATOM     25  C   UNL     1       5.208   5.540  16.487  0.00  0.00    +0.000 A 
BRANCH  24  26
ATOM     26  N   UNL     1       6.319   4.775  14.401  0.00  0.00    +0.000 N 
ATOM     27  O   UNL     1       5.369   4.169  13.884  0.00  0.00    +0.000 OA
ATOM     28  O   UNL     1       7.271   5.254  13.769  0.00  0.00    +0.000 OA
ENDBRANCH  24  26
ENDBRANCH   6  20
TORSDOF 3
ENDMDL
MODEL 5
REMARK VINA RESULT:      -8.3      7.351      8.416
REMARK  Name = 
REMARK  3 active torsions:
REMARK  status: ('A' for Active; 'I' for Inactive)
REMARK    1  A    between atoms: C_2  and  C_18
REMARK    2  A    between atoms: C_6  and  C_7
REMARK    3  A    between atoms: C_11  and  N_12
REMARK                            x       y       z     vdW  Elec       q    Type
REMARK                         _______ _______ _______ _____ _____    ______ ____
ROOT
ATOM      1  O   UNL     1       0.654   8.555  21.737  0.00  0.00    +0.000 OA
ATOM      2  C   UNL     1       0.252   9.480  21.045  0.00  0.00    +0.000 C 
ATOM      3  N   UNL     1       0.657   9.816  19.762  0.00  0.00    +0.000 N 
ATOM      4  C   UNL     1       1.531   9.094  18.989  0.00  0.00    +0.000 A 
ATOM      5  N   UNL     1       2.141   7.948  19.187  0.00  0.00    +0.000 NA
ATOM      6  C   UNL     1       2.834   7.721  18.009  0.00  0.00    +0.000 A 
ATOM      7  N   UNL     1       2.680   8.700  17.102  0.00  0.00    +0.000 NA
ATOM      8  N   UNL     1       1.862   9.540  17.739  0.00  0.00    +0.000 N 
ATOM      9  H   UNL     1       0.268  10.675  19.392  0.00  0.00    +0.000 HD
ATOM     10  H   UNL     1       1.552  10.376  17.264  0.00  0.00    +0.000 HD
ENDROOT
BRANCH   2  11
ATOM     11  C   UNL     1      -0.921  10.381  21.468  0.00  0.00    +0.000 C 
ATOM     12  C   UNL     1      -0.979  10.777  22.945  0.00  0.00    +0.000 C 
ATOM     13  C   UNL     1      -1.828  11.990  22.778  0.00  0.00    +0.000 A 
ATOM     14  C   UNL     1      -2.636  12.662  23.677  0.00  0.00    +0.000 A 
ATOM     15  C   UNL     1      -3.333  13.788  23.222  0.00  0.00    +0.000 A 
ATOM     16  C   UNL     1      -3.184  14.244  21.900  0.00  0.00    +0.000 A 
ATOM     17  C   UNL     1      -2.351  13.568  21.009  0.00  0.00    +0.000 A 
ATOM     18  C   UNL     1      -1.712  12.436  21.467  0.00  0.00    +0.000 A 
ATOM     19  O   UNL     1      -0.945  11.608  20.683  0.00  0.00    +0.000 OA
ENDBRANCH   2  11
BRANCH   6  20
ATOM     20  C   UNL     1       3.621   6.515  17.736  0.00  0.00    +0.000 A 
ATOM     21  C   UNL     1       3.030   5.244  17.788  0.00  0.00    +0.000 A 
ATOM     22  C   UNL     1       3.771   4.095  17.479  0.00  0.00    +0.000 A 
ATOM     23  C   UNL     1       5.112   4.202  17.112  0.00  0.00    +0.000 A 
ATOM     24  C   UNL     1       5.712   5.466  17.066  0.00  0.00    +0.000 A 
ATOM     25  C   UNL     1       4.976   6.618  17.380  0.00  0.00    +0.000 A 
BRANCH  24  26
ATOM     26  N   UNL     1       7.121   5.588  16.670  0.00  0.00    +0.000 N 
ATOM     27  O   UNL     1       7.751   4.542  16.452  0.00  0.00    +0.000 OA
ATOM     28  O   UNL     1       7.600   6.727  16.570  0.00  0.00    +0.000 OA
ENDBRANCH  24  26
ENDBRANCH   6  20
TORSDOF 3
ENDMDL
MODEL 6
REMARK VINA RESULT:      -8.3      8.100      8.843
REMARK  Name = 
REMARK  3 active torsions:
REMARK  status: ('A' for Active; 'I' for Inactive)
REMARK    1  A    between atoms: C_2  and  C_18
REMARK    2  A    between atoms: C_6  and  C_7
REMARK    3  A    between atoms: C_11  and  N_12
REMARK                            x       y       z     vdW  Elec       q    Type
REMARK                         _______ _______ _______ _____ _____    ______ ____
ROOT
ATOM      1  O   UNL     1       0.526   9.789  22.977  0.00  0.00    +0.000 OA
ATOM      2  C   UNL     1       0.128  10.519  22.079  0.00  0.00    +0.000 C 
ATOM      3  N   UNL     1       0.389  10.409  20.722  0.00  0.00    +0.000 N 
ATOM      4  C   UNL     1       1.075   9.383  20.123  0.00  0.00    +0.000 A 
ATOM      5  N   UNL     1       1.590   8.273  20.600  0.00  0.00    +0.000 NA
ATOM      6  C   UNL     1       2.093   7.623  19.484  0.00  0.00    +0.000 A 
ATOM      7  N   UNL     1       1.917   8.308  18.342  0.00  0.00    +0.000 NA
ATOM      8  N   UNL     1       1.278   9.399  18.771  0.00  0.00    +0.000 N 
ATOM      9  H   UNL     1       0.040  11.169  20.148  0.00  0.00    +0.000 HD
ATOM     10  H   UNL     1       0.992  10.095  18.097  0.00  0.00    +0.000 HD
ENDROOT
BRANCH   2  11
ATOM     11  C   UNL     1      -0.883  11.653  22.321  0.00  0.00    +0.000 C 
ATOM     12  C   UNL     1      -1.706  12.102  21.111  0.00  0.00    +0.000 C 
ATOM     13  C   UNL     1      -2.830  12.717  21.871  0.00  0.00    +0.000 A 
ATOM     14  C   UNL     1      -3.759  13.673  21.502  0.00  0.00    +0.000 A 
ATOM     15  C   UNL     1      -4.710  14.068  22.450  0.00  0.00    +0.000 A 
ATOM     16  C   UNL     1      -4.744  13.481  23.728  0.00  0.00    +0.000 A 
ATOM     17  C   UNL     1      -3.813  12.504  24.081  0.00  0.00    +0.000 A 
ATOM     18  C   UNL     1      -2.858  12.165  23.147  0.00  0.00    +0.000 A 
ATOM     19  O   UNL     1      -1.817  11.300  23.382  0.00  0.00    +0.000 OA
ENDBRANCH   2  11
BRANCH   6  20
ATOM     20  C   UNL     1       2.713   6.296  19.516  0.00  0.00    +0.000 A 
ATOM     21  C   UNL     1       3.888   6.034  18.794  0.00  0.00    +0.000 A 
ATOM     22  C   UNL     1       4.508   4.779  18.864  0.00  0.00    +0.000 A 
ATOM     23  C   UNL     1       3.964   3.770  19.658  0.00  0.00    +0.000 A 
ATOM     24  C   UNL     1       2.787   4.020  20.374  0.00  0.00    +0.000 A 
ATOM     25  C   UNL     1       2.160   5.272  20.303  0.00  0.00    +0.000 A 
BRANCH  24  26
ATOM     26  N   UNL     1       2.214   2.965  21.221  0.00  0.00    +0.000 N 
ATOM     27  O   UNL     1       2.961   2.417  22.044  0.00  0.00    +0.000 OA
ATOM     28  O   UNL     1       1.016   2.686  21.069  0.00  0.00    +0.000 OA
ENDBRANCH  24  26
ENDBRANCH   6  20
TORSDOF 3
ENDMDL
MODEL 7
REMARK VINA RESULT:      -8.2      6.840      7.908
REMARK  Name = 
REMARK  3 active torsions:
REMARK  status: ('A' for Active; 'I' for Inactive)
REMARK    1  A    between atoms: C_2  and  C_18
REMARK    2  A    between atoms: C_6  and  C_7
REMARK    3  A    between atoms: C_11  and  N_12
REMARK                            x       y       z     vdW  Elec       q    Type
REMARK                         _______ _______ _______ _____ _____    ______ ____
ROOT
ATOM      1  O   UNL     1       1.163  10.036  18.096  0.00  0.00    +0.000 OA
ATOM      2  C   UNL     1       0.913   9.934  19.290  0.00  0.00    +0.000 C 
ATOM      3  N   UNL     1       1.178   8.855  20.120  0.00  0.00    +0.000 N 
ATOM      4  C   UNL     1       1.871   7.727  19.763  0.00  0.00    +0.000 A 
ATOM      5  N   UNL     1       2.485   7.386  18.653  0.00  0.00    +0.000 NA
ATOM      6  C   UNL     1       3.051   6.154  18.940  0.00  0.00    +0.000 A 
ATOM      7  N   UNL     1       2.790   5.723  20.185  0.00  0.00    +0.000 NA
ATOM      8  N   UNL     1       2.055   6.724  20.674  0.00  0.00    +0.000 N 
ATOM      9  H   UNL     1       0.809   8.928  21.062  0.00  0.00    +0.000 HD
ATOM     10  H   UNL     1       1.734   6.673  21.631  0.00  0.00    +0.000 HD
ENDROOT
BRANCH   2  11
ATOM     11  C   UNL     1       0.353  11.101  20.121  0.00  0.00    +0.000 C 
ATOM     12  C   UNL     1      -0.719  11.963  19.451  0.00  0.00    +0.000 C 
ATOM     13  C   UNL     1      -1.316  12.516  20.698  0.00  0.00    +0.000 A 
ATOM     14  C   UNL     1      -2.062  13.661  20.916  0.00  0.00    +0.000 A 
ATOM     15  C   UNL     1      -2.488  13.930  22.223  0.00  0.00    +0.000 A 
ATOM     16  C   UNL     1      -2.198  13.043  23.275  0.00  0.00    +0.000 A 
ATOM     17  C   UNL     1      -1.461  11.883  23.038  0.00  0.00    +0.000 A 
ATOM     18  C   UNL     1      -1.013  11.663  21.753  0.00  0.00    +0.000 A 
ATOM     19  O   UNL     1      -0.192  10.624  21.386  0.00  0.00    +0.000 OA
ENDBRANCH   2  11
BRANCH   6  20
ATOM     20  C   UNL     1       3.899   5.402  18.011  0.00  0.00    +0.000 A 
ATOM     21  C   UNL     1       3.515   4.132  17.555  0.00  0.00    +0.000 A 
ATOM     22  C   UNL     1       4.301   3.434  16.628  0.00  0.00    +0.000 A 
ATOM     23  C   UNL     1       5.481   3.998  16.143  0.00  0.00    +0.000 A 
ATOM     24  C   UNL     1       5.877   5.261  16.599  0.00  0.00    +0.000 A 
ATOM     25  C   UNL     1       5.095   5.960  17.530  0.00  0.00    +0.000 A 
BRANCH  24  26
ATOM     26  N   UNL     1       7.113   5.865  16.085  0.00  0.00    +0.000 N 
ATOM     27  O   UNL     1       7.582   5.410  15.031  0.00  0.00    +0.000 OA
ATOM     28  O   UNL     1       7.615   6.797  16.729  0.00  0.00    +0.000 OA
ENDBRANCH  24  26
ENDBRANCH   6  20
TORSDOF 3
ENDMDL
MODEL 8
REMARK VINA RESULT:      -8.2      8.670     10.457
REMARK  Name = 
REMARK  3 active torsions:
REMARK  status: ('A' for Active; 'I' for Inactive)
REMARK    1  A    between atoms: C_2  and  C_18
REMARK    2  A    between atoms: C_6  and  C_7
REMARK    3  A    between atoms: C_11  and  N_12
REMARK                            x       y       z     vdW  Elec       q    Type
REMARK                         _______ _______ _______ _____ _____    ______ ____
ROOT
ATOM      1  O   UNL     1       1.202   9.896  18.575  0.00  0.00    +0.000 OA
ATOM      2  C   UNL     1       1.518   8.898  19.210  0.00  0.00    +0.000 C 
ATOM      3  N   UNL     1       1.351   8.672  20.567  0.00  0.00    +0.000 N 
ATOM      4  C   UNL     1       0.699   9.506  21.440  0.00  0.00    +0.000 A 
ATOM      5  N   UNL     1       0.047  10.632  21.259  0.00  0.00    +0.000 NA
ATOM      6  C   UNL     1      -0.439  10.950  22.517  0.00  0.00    +0.000 A 
ATOM      7  N   UNL     1      -0.093  10.064  23.464  0.00  0.00    +0.000 NA
ATOM      8  N   UNL     1       0.614   9.174  22.763  0.00  0.00    +0.000 N 
ATOM      9  H   UNL     1       1.763   7.816  20.921  0.00  0.00    +0.000 HD
ATOM     10  H   UNL     1       0.986   8.362  23.236  0.00  0.00    +0.000 HD
ENDROOT
BRANCH   2  11
ATOM     11  C   UNL     1       2.059   7.625  18.536  0.00  0.00    +0.000 C 
ATOM     12  C   UNL     1       3.302   7.793  17.659  0.00  0.00    +0.000 C 
ATOM     13  C   UNL     1       3.755   6.375  17.708  0.00  0.00    +0.000 A 
ATOM     14  C   UNL     1       4.570   5.653  16.855  0.00  0.00    +0.000 A 
ATOM     15  C   UNL     1       4.817   4.309  17.160  0.00  0.00    +0.000 A 
ATOM     16  C   UNL     1       4.282   3.722  18.320  0.00  0.00    +0.000 A 
ATOM     17  C   UNL     1       3.476   4.466  19.182  0.00  0.00    +0.000 A 
ATOM     18  C   UNL     1       3.210   5.773  18.837  0.00  0.00    +0.000 A 
ATOM     19  O   UNL     1       2.354   6.598  19.526  0.00  0.00    +0.000 OA
ENDBRANCH   2  11
BRANCH   6  20
ATOM     20  C   UNL     1      -1.294  12.107  22.800  0.00  0.00    +0.000 A 
ATOM     21  C   UNL     1      -0.825  13.414  22.598  0.00  0.00    +0.000 A 
ATOM     22  C   UNL     1      -1.658  14.518  22.821  0.00  0.00    +0.000 A 
ATOM     23  C   UNL     1      -2.973  14.330  23.247  0.00  0.00    +0.000 A 
ATOM     24  C   UNL     1      -3.447  13.030  23.459  0.00  0.00    +0.000 A 
ATOM     25  C   UNL     1      -2.614  11.923  23.242  0.00  0.00    +0.000 A 
BRANCH  24  26
ATOM     26  N   UNL     1      -4.834  12.824  23.898  0.00  0.00    +0.000 N 
ATOM     27  O   UNL     1      -5.720  13.483  23.334  0.00  0.00    +0.000 OA
ATOM     28  O   UNL     1      -5.041  12.002  24.801  0.00  0.00    +0.000 OA
ENDBRANCH  24  26
ENDBRANCH   6  20
TORSDOF 3
ENDMDL
MODEL 9
REMARK VINA RESULT:      -8.2      8.031      8.933
REMARK  Name = 
REMARK  3 active torsions:
REMARK  status: ('A' for Active; 'I' for Inactive)
REMARK    1  A    between atoms: C_2  and  C_18
REMARK    2  A    between atoms: C_6  and  C_7
REMARK    3  A    between atoms: C_11  and  N_12
REMARK                            x       y       z     vdW  Elec       q    Type
REMARK                         _______ _______ _______ _____ _____    ______ ____
ROOT
ATOM      1  O   UNL     1       0.762   9.793  22.233  0.00  0.00    +0.000 OA
ATOM      2  C   UNL     1       0.323  10.660  21.490  0.00  0.00    +0.000 C 
ATOM      3  N   UNL     1       0.527  10.786  20.124  0.00  0.00    +0.000 N 
ATOM      4  C   UNL     1       1.191   9.884  19.331  0.00  0.00    +0.000 A 
ATOM      5  N   UNL     1       1.730   8.714  19.591  0.00  0.00    +0.000 NA
ATOM      6  C   UNL     1       2.187   8.269  18.362  0.00  0.00    +0.000 A 
ATOM      7  N   UNL     1       1.960   9.135  17.361  0.00  0.00    +0.000 NA
ATOM      8  N   UNL     1       1.336  10.131  17.995  0.00  0.00    +0.000 N 
ATOM      9  H   UNL     1       0.152  11.628  19.702  0.00  0.00    +0.000 HD
ATOM     10  H   UNL     1       1.019  10.928  17.461  0.00  0.00    +0.000 HD
ENDROOT
BRANCH   2  11
ATOM     11  C   UNL     1      -0.681  11.726  21.962  0.00  0.00    +0.000 C 
ATOM     12  C   UNL     1      -1.609  12.309  20.895  0.00  0.00    +0.000 C 
ATOM     13  C   UNL     1      -2.674  12.789  21.819  0.00  0.00    +0.000 A 
ATOM     14  C   UNL     1      -3.645  13.761  21.658  0.00  0.00    +0.000 A 
ATOM     15  C   UNL     1      -4.519  14.003  22.724  0.00  0.00    +0.000 A 
ATOM     16  C   UNL     1      -4.437  13.251  23.910  0.00  0.00    +0.000 A 
ATOM     17  C   UNL     1      -3.465  12.260  24.053  0.00  0.00    +0.000 A 
ATOM     18  C   UNL     1      -2.587  12.073  23.007  0.00  0.00    +0.000 A 
ATOM     19  O   UNL     1      -1.517  11.211  23.039  0.00  0.00    +0.000 OA
ENDBRANCH   2  11
BRANCH   6  20
ATOM     20  C   UNL     1       2.813   6.962  18.141  0.00  0.00    +0.000 A 
ATOM     21  C   UNL     1       2.174   5.781  18.548  0.00  0.00    +0.000 A 
ATOM     22  C   UNL     1       2.750   4.529  18.293  0.00  0.00    +0.000 A 
ATOM     23  C   UNL     1       3.971   4.441  17.625  0.00  0.00    +0.000 A 
ATOM     24  C   UNL     1       4.620   5.615  17.223  0.00  0.00    +0.000 A 
ATOM     25  C   UNL     1       4.050   6.870  17.482  0.00  0.00    +0.000 A 
BRANCH  24  26
ATOM     26  N   UNL     1       5.902   5.530  16.510  0.00  0.00    +0.000 N 
ATOM     27  O   UNL     1       6.329   6.560  15.968  0.00  0.00    +0.000 OA
ATOM     28  O   UNL     1       6.485   4.436  16.494  0.00  0.00    +0.000 OA
ENDBRANCH  24  26
ENDBRANCH   6  20
TORSDOF 3
ENDMDL
