MODEL 1
REMARK VINA RESULT:      -7.1      0.000      0.000
REMARK  Name = 
REMARK  4 active torsions:
REMARK  status: ('A' for Active; 'I' for Inactive)
REMARK    1  A    between atoms: C_2  and  C_25
REMARK    2  A    between atoms: N_3  and  C_4
REMARK    3  A    between atoms: N_7  and  C_8
REMARK    4  A    between atoms: C_15  and  C_16
REMARK                            x       y       z     vdW  Elec       q    Type
REMARK                         _______ _______ _______ _____ _____    ______ ____
ROOT
ATOM      1  C   UNL     1       4.394  15.001  19.124  0.00  0.00    +0.000 C 
ATOM      2  C   UNL     1       5.113  14.920  17.778  0.00  0.00    +0.000 C 
ATOM      3  C   UNL     1       6.631  14.768  17.782  0.00  0.00    +0.000 C 
ATOM      4  N   UNL     1       7.132  15.605  18.855  0.00  0.00    +0.000 N 
ATOM      5  C   UNL     1       6.719  15.086  20.167  0.00  0.00    +0.000 C 
ATOM      6  C   UNL     1       5.244  15.409  20.329  0.00  0.00    +0.000 C 
ENDROOT
BRANCH   4   7
ATOM      7  C   UNL     1       8.311  16.331  18.750  0.00  0.00    +0.000 A 
ATOM      8  N   UNL     1       8.136  17.637  18.388  0.00  0.00    +0.000 NA
ATOM      9  C   UNL     1       9.167  18.461  18.219  0.00  0.00    +0.000 A 
ATOM     10  N   UNL     1      10.440  18.169  18.397  0.00  0.00    +0.000 NA
ATOM     11  C   UNL     1      10.636  16.883  18.725  0.00  0.00    +0.000 A 
ATOM     12  S   UNL     1      12.243  16.388  18.968  0.00  0.00    +0.000 S 
ATOM     13  C   UNL     1      11.769  14.787  19.209  0.00  0.00    +0.000 A 
ATOM     14  C   UNL     1      10.398  14.595  19.131  0.00  0.00    +0.000 A 
ATOM     15  C   UNL     1       9.682  15.870  18.885  0.00  0.00    +0.000 A 
BRANCH  14  16
ATOM     16  C   UNL     1       9.942  13.200  19.252  0.00  0.00    +0.000 A 
ATOM     17  C   UNL     1       9.563  12.450  18.122  0.00  0.00    +0.000 A 
ATOM     18  C   UNL     1       9.217  11.096  18.230  0.00  0.00    +0.000 A 
ATOM     19  C   UNL     1       9.260  10.465  19.467  0.00  0.00    +0.000 A 
ATOM     20  C   UNL     1       9.525  11.223  20.601  0.00  0.00    +0.000 A 
ATOM     21  C   UNL     1       9.827  12.593  20.498  0.00  0.00    +0.000 A 
ENDBRANCH  14  16
ENDBRANCH   4   7
BRANCH   1  24
ATOM     22  O   UNL     1       1.650  14.744  18.640  0.00  0.00    +0.000 OA
ATOM     23  C   UNL     1       2.286  13.766  19.010  0.00  0.00    +0.000 C 
ATOM     24  N   UNL     1       3.641  13.785  19.332  0.00  0.00    +0.000 N 
ATOM     25  H   UNL     1       4.163  12.918  19.301  0.00  0.00    +0.000 HD
BRANCH  23  26
ATOM     26  C   UNL     1       1.658  12.433  19.076  0.00  0.00    +0.000 A 
ATOM     27  C   UNL     1       2.076  11.420  18.218  0.00  0.00    +0.000 A 
ATOM     28  C   UNL     1       1.500  10.160  18.343  0.00  0.00    +0.000 A 
ATOM     29  C   UNL     1       0.532   9.971  19.323  0.00  0.00    +0.000 A 
ATOM     30  N   UNL     1       0.093  10.941  20.155  0.00  0.00    +0.000 NA
ATOM     31  C   UNL     1       0.655  12.155  19.997  0.00  0.00    +0.000 A 
ENDBRANCH  23  26
ENDBRANCH   1  24
TORSDOF 4
ENDMDL
MODEL 2
REMARK VINA RESULT:      -7.0      7.035      9.886
REMARK  Name = 
REMARK  4 active torsions:
REMARK  status: ('A' for Active; 'I' for Inactive)
REMARK    1  A    between atoms: C_2  and  C_25
REMARK    2  A    between atoms: N_3  and  C_4
REMARK    3  A    between atoms: N_7  and  C_8
REMARK    4  A    between atoms: C_15  and  C_16
REMARK                            x       y       z     vdW  Elec       q    Type
REMARK                         _______ _______ _______ _____ _____    ______ ____
ROOT
ATOM      1  C   UNL     1       1.266   9.183  21.249  0.00  0.00    +0.000 C 
ATOM      2  C   UNL     1       1.082   9.404  22.750  0.00  0.00    +0.000 C 
ATOM      3  C   UNL     1      -0.299   9.811  23.254  0.00  0.00    +0.000 C 
ATOM      4  N   UNL     1      -0.840  10.742  22.283  0.00  0.00    +0.000 N 
ATOM      5  C   UNL     1      -1.110  10.073  21.003  0.00  0.00    +0.000 C 
ATOM      6  C   UNL     1       0.230   9.837  20.331  0.00  0.00    +0.000 C 
ENDROOT
BRANCH   4   7
ATOM      7  C   UNL     1      -1.597  11.847  22.648  0.00  0.00    +0.000 A 
ATOM      8  N   UNL     1      -2.686  11.552  23.419  0.00  0.00    +0.000 NA
ATOM      9  C   UNL     1      -3.529  12.497  23.831  0.00  0.00    +0.000 A 
ATOM     10  N   UNL     1      -3.429  13.791  23.599  0.00  0.00    +0.000 NA
ATOM     11  C   UNL     1      -2.382  14.098  22.819  0.00  0.00    +0.000 A 
ATOM     12  S   UNL     1      -2.160  15.740  22.442  0.00  0.00    +0.000 S 
ATOM     13  C   UNL     1      -0.854  15.386  21.434  0.00  0.00    +0.000 A 
ATOM     14  C   UNL     1      -0.547  14.035  21.374  0.00  0.00    +0.000 A 
ATOM     15  C   UNL     1      -1.436  13.235  22.251  0.00  0.00    +0.000 A 
BRANCH  14  16
ATOM     16  C   UNL     1       0.532  13.668  20.443  0.00  0.00    +0.000 A 
ATOM     17  C   UNL     1       0.254  13.198  19.144  0.00  0.00    +0.000 A 
ATOM     18  C   UNL     1       1.284  12.937  18.229  0.00  0.00    +0.000 A 
ATOM     19  C   UNL     1       2.607  13.155  18.592  0.00  0.00    +0.000 A 
ATOM     20  C   UNL     1       2.897  13.511  19.903  0.00  0.00    +0.000 A 
ATOM     21  C   UNL     1       1.865  13.729  20.835  0.00  0.00    +0.000 A 
ENDBRANCH  14  16
ENDBRANCH   4   7
BRANCH   1  24
ATOM     22  O   UNL     1       2.414   8.133  18.923  0.00  0.00    +0.000 OA
ATOM     23  C   UNL     1       2.079   7.371  19.820  0.00  0.00    +0.000 C 
ATOM     24  N   UNL     1       1.451   7.771  20.998  0.00  0.00    +0.000 N 
ATOM     25  H   UNL     1       1.508   7.170  21.811  0.00  0.00    +0.000 HD
BRANCH  23  26
ATOM     26  C   UNL     1       2.391   5.932  19.750  0.00  0.00    +0.000 A 
ATOM     27  C   UNL     1       1.661   5.020  20.507  0.00  0.00    +0.000 A 
ATOM     28  C   UNL     1       1.946   3.665  20.377  0.00  0.00    +0.000 A 
ATOM     29  C   UNL     1       2.950   3.283  19.494  0.00  0.00    +0.000 A 
ATOM     30  N   UNL     1       3.688   4.148  18.764  0.00  0.00    +0.000 NA
ATOM     31  C   UNL     1       3.402   5.454  18.925  0.00  0.00    +0.000 A 
ENDBRANCH  23  26
ENDBRANCH   1  24
TORSDOF 4
ENDMDL
MODEL 3
REMARK VINA RESULT:      -6.9      6.342     11.321
REMARK  Name = 
REMARK  4 active torsions:
REMARK  status: ('A' for Active; 'I' for Inactive)
REMARK    1  A    between atoms: C_2  and  C_25
REMARK    2  A    between atoms: N_3  and  C_4
REMARK    3  A    between atoms: N_7  and  C_8
REMARK    4  A    between atoms: C_15  and  C_16
REMARK                            x       y       z     vdW  Elec       q    Type
REMARK                         _______ _______ _______ _____ _____    ______ ____
ROOT
ATOM      1  C   UNL     1       7.072   6.848  17.147  0.00  0.00    +0.000 C 
ATOM      2  C   UNL     1       5.786   6.700  16.335  0.00  0.00    +0.000 C 
ATOM      3  C   UNL     1       4.524   6.247  17.063  0.00  0.00    +0.000 C 
ATOM      4  N   UNL     1       4.933   5.236  18.018  0.00  0.00    +0.000 N 
ATOM      5  C   UNL     1       5.767   5.818  19.079  0.00  0.00    +0.000 C 
ATOM      6  C   UNL     1       7.133   6.089  18.474  0.00  0.00    +0.000 C 
ENDROOT
BRANCH   4   7
ATOM      7  C   UNL     1       4.165   4.112  18.294  0.00  0.00    +0.000 A 
ATOM      8  N   UNL     1       4.646   2.956  17.746  0.00  0.00    +0.000 NA
ATOM      9  C   UNL     1       4.012   1.794  17.895  0.00  0.00    +0.000 A 
ATOM     10  N   UNL     1       2.906   1.589  18.582  0.00  0.00    +0.000 NA
ATOM     11  C   UNL     1       2.402   2.717  19.104  0.00  0.00    +0.000 A 
ATOM     12  S   UNL     1       0.967   2.574  20.002  0.00  0.00    +0.000 S 
ATOM     13  C   UNL     1       0.877   4.245  20.222  0.00  0.00    +0.000 A 
ATOM     14  C   UNL     1       1.929   4.939  19.644  0.00  0.00    +0.000 A 
ATOM     15  C   UNL     1       2.899   4.023  18.998  0.00  0.00    +0.000 A 
BRANCH  14  16
ATOM     16  C   UNL     1       1.851   6.407  19.738  0.00  0.00    +0.000 A 
ATOM     17  C   UNL     1       2.115   7.230  18.626  0.00  0.00    +0.000 A 
ATOM     18  C   UNL     1       1.951   8.620  18.695  0.00  0.00    +0.000 A 
ATOM     19  C   UNL     1       1.505   9.209  19.871  0.00  0.00    +0.000 A 
ATOM     20  C   UNL     1       1.348   8.420  21.003  0.00  0.00    +0.000 A 
ATOM     21  C   UNL     1       1.558   7.030  20.947  0.00  0.00    +0.000 A 
ENDBRANCH  14  16
ENDBRANCH   4   7
BRANCH   1  24
ATOM     22  O   UNL     1       8.793   7.908  19.083  0.00  0.00    +0.000 OA
ATOM     23  C   UNL     1       8.304   8.654  18.245  0.00  0.00    +0.000 C 
ATOM     24  N   UNL     1       7.396   8.252  17.267  0.00  0.00    +0.000 N 
ATOM     25  H   UNL     1       7.297   8.814  16.430  0.00  0.00    +0.000 HD
BRANCH  23  26
ATOM     26  C   UNL     1       8.710  10.069  18.159  0.00  0.00    +0.000 A 
ATOM     27  C   UNL     1       9.945  10.474  18.655  0.00  0.00    +0.000 A 
ATOM     28  C   UNL     1      10.318  11.806  18.510  0.00  0.00    +0.000 A 
ATOM     29  C   UNL     1       9.437  12.673  17.874  0.00  0.00    +0.000 A 
ATOM     30  N   UNL     1       8.224  12.312  17.402  0.00  0.00    +0.000 NA
ATOM     31  C   UNL     1       7.882  11.020  17.574  0.00  0.00    +0.000 A 
ENDBRANCH  23  26
ENDBRANCH   1  24
TORSDOF 4
ENDMDL
MODEL 4
REMARK VINA RESULT:      -6.9      6.501      9.375
REMARK  Name = 
REMARK  4 active torsions:
REMARK  status: ('A' for Active; 'I' for Inactive)
REMARK    1  A    between atoms: C_2  and  C_25
REMARK    2  A    between atoms: N_3  and  C_4
REMARK    3  A    between atoms: N_7  and  C_8
REMARK    4  A    between atoms: C_15  and  C_16
REMARK                            x       y       z     vdW  Elec       q    Type
REMARK                         _______ _______ _______ _____ _____    ______ ____
ROOT
ATOM      1  C   UNL     1       1.005  10.294  19.297  0.00  0.00    +0.000 C 
ATOM      2  C   UNL     1       1.066  10.918  20.691  0.00  0.00    +0.000 C 
ATOM      3  C   UNL     1      -0.248  11.296  21.368  0.00  0.00    +0.000 C 
ATOM      4  N   UNL     1      -1.109  11.840  20.335  0.00  0.00    +0.000 N 
ATOM      5  C   UNL     1      -1.492  10.803  19.367  0.00  0.00    +0.000 C 
ATOM      6  C   UNL     1      -0.277  10.534  18.497  0.00  0.00    +0.000 C 
ENDROOT
BRANCH   4   7
ATOM      7  C   UNL     1      -1.962  12.912  20.560  0.00  0.00    +0.000 A 
ATOM      8  N   UNL     1      -3.258  12.555  20.810  0.00  0.00    +0.000 NA
ATOM      9  C   UNL     1      -4.207  13.465  21.020  0.00  0.00    +0.000 A 
ATOM     10  N   UNL     1      -4.044  14.772  21.051  0.00  0.00    +0.000 NA
ATOM     11  C   UNL     1      -2.785  15.145  20.779  0.00  0.00    +0.000 A 
ATOM     12  S   UNL     1      -2.459  16.813  20.778  0.00  0.00    +0.000 S 
ATOM     13  C   UNL     1      -0.865  16.555  20.290  0.00  0.00    +0.000 A 
ATOM     14  C   UNL     1      -0.540  15.215  20.136  0.00  0.00    +0.000 A 
ATOM     15  C   UNL     1      -1.682  14.334  20.477  0.00  0.00    +0.000 A 
BRANCH  14  16
ATOM     16  C   UNL     1       0.816  14.943  19.631  0.00  0.00    +0.000 A 
ATOM     17  C   UNL     1       1.939  15.629  20.133  0.00  0.00    +0.000 A 
ATOM     18  C   UNL     1       3.237  15.304  19.716  0.00  0.00    +0.000 A 
ATOM     19  C   UNL     1       3.435  14.277  18.802  0.00  0.00    +0.000 A 
ATOM     20  C   UNL     1       2.330  13.670  18.219  0.00  0.00    +0.000 A 
ATOM     21  C   UNL     1       1.024  14.029  18.604  0.00  0.00    +0.000 A 
ENDBRANCH  14  16
ENDBRANCH   4   7
BRANCH   1  24
ATOM     22  O   UNL     1       2.416   8.910  17.316  0.00  0.00    +0.000 OA
ATOM     23  C   UNL     1       2.123   8.333  18.355  0.00  0.00    +0.000 C 
ATOM     24  N   UNL     1       1.379   8.901  19.387  0.00  0.00    +0.000 N 
ATOM     25  H   UNL     1       1.459   8.512  20.319  0.00  0.00    +0.000 HD
BRANCH  23  26
ATOM     26  C   UNL     1       2.614   6.970  18.631  0.00  0.00    +0.000 A 
ATOM     27  C   UNL     1       3.404   6.308  17.695  0.00  0.00    +0.000 A 
ATOM     28  C   UNL     1       3.894   5.045  18.010  0.00  0.00    +0.000 A 
ATOM     29  C   UNL     1       3.571   4.501  19.248  0.00  0.00    +0.000 A 
ATOM     30  N   UNL     1       2.789   5.112  20.166  0.00  0.00    +0.000 NA
ATOM     31  C   UNL     1       2.313   6.326  19.825  0.00  0.00    +0.000 A 
ENDBRANCH  23  26
ENDBRANCH   1  24
TORSDOF 4
ENDMDL
MODEL 5
REMARK VINA RESULT:      -6.8      7.023      9.824
REMARK  Name = 
REMARK  4 active torsions:
REMARK  status: ('A' for Active; 'I' for Inactive)
REMARK    1  A    between atoms: C_2  and  C_25
REMARK    2  A    between atoms: N_3  and  C_4
REMARK    3  A    between atoms: N_7  and  C_8
REMARK    4  A    between atoms: C_15  and  C_16
REMARK                            x       y       z     vdW  Elec       q    Type
REMARK                         _______ _______ _______ _____ _____    ______ ____
ROOT
ATOM      1  C   UNL     1       1.308   9.377  21.150  0.00  0.00    +0.000 C 
ATOM      2  C   UNL     1       1.048   9.428  22.655  0.00  0.00    +0.000 C 
ATOM      3  C   UNL     1      -0.353   9.799  23.131  0.00  0.00    +0.000 C 
ATOM      4  N   UNL     1      -0.831  10.845  22.247  0.00  0.00    +0.000 N 
ATOM      5  C   UNL     1      -1.041  10.332  20.886  0.00  0.00    +0.000 C 
ATOM      6  C   UNL     1       0.331  10.150  20.262  0.00  0.00    +0.000 C 
ENDROOT
BRANCH   4   7
ATOM      7  C   UNL     1      -1.593  11.915  22.697  0.00  0.00    +0.000 A 
ATOM      8  N   UNL     1      -2.671  11.556  23.457  0.00  0.00    +0.000 NA
ATOM      9  C   UNL     1      -3.518  12.461  23.943  0.00  0.00    +0.000 A 
ATOM     10  N   UNL     1      -3.430  13.769  23.803  0.00  0.00    +0.000 NA
ATOM     11  C   UNL     1      -2.395  14.141  23.036  0.00  0.00    +0.000 A 
ATOM     12  S   UNL     1      -2.190  15.807  22.775  0.00  0.00    +0.000 S 
ATOM     13  C   UNL     1      -0.892  15.537  21.730  0.00  0.00    +0.000 A 
ATOM     14  C   UNL     1      -0.576  14.197  21.572  0.00  0.00    +0.000 A 
ATOM     15  C   UNL     1      -1.448  13.328  22.398  0.00  0.00    +0.000 A 
BRANCH  14  16
ATOM     16  C   UNL     1       0.497  13.906  20.605  0.00  0.00    +0.000 A 
ATOM     17  C   UNL     1       1.852  13.908  20.988  0.00  0.00    +0.000 A 
ATOM     18  C   UNL     1       2.862  13.542  20.089  0.00  0.00    +0.000 A 
ATOM     19  C   UNL     1       2.534  13.154  18.796  0.00  0.00    +0.000 A 
ATOM     20  C   UNL     1       1.213  13.255  18.376  0.00  0.00    +0.000 A 
ATOM     21  C   UNL     1       0.204  13.667  19.267  0.00  0.00    +0.000 A 
ENDBRANCH  14  16
ENDBRANCH   4   7
BRANCH   1  24
ATOM     22  O   UNL     1       2.402   8.582  18.700  0.00  0.00    +0.000 OA
ATOM     23  C   UNL     1       2.090   7.729  19.520  0.00  0.00    +0.000 C 
ATOM     24  N   UNL     1       1.490   8.000  20.748  0.00  0.00    +0.000 N 
ATOM     25  H   UNL     1       1.567   7.317  21.492  0.00  0.00    +0.000 HD
BRANCH  23  26
ATOM     26  C   UNL     1       2.403   6.305  19.293  0.00  0.00    +0.000 A 
ATOM     27  C   UNL     1       2.732   5.857  18.017  0.00  0.00    +0.000 A 
ATOM     28  C   UNL     1       3.073   4.520  17.847  0.00  0.00    +0.000 A 
ATOM     29  C   UNL     1       3.069   3.690  18.963  0.00  0.00    +0.000 A 
ATOM     30  N   UNL     1       2.734   4.094  20.208  0.00  0.00    +0.000 NA
ATOM     31  C   UNL     1       2.390   5.390  20.338  0.00  0.00    +0.000 A 
ENDBRANCH  23  26
ENDBRANCH   1  24
TORSDOF 4
ENDMDL
MODEL 6
REMARK VINA RESULT:      -6.8      6.449      9.309
REMARK  Name = 
REMARK  4 active torsions:
REMARK  status: ('A' for Active; 'I' for Inactive)
REMARK    1  A    between atoms: C_2  and  C_25
REMARK    2  A    between atoms: N_3  and  C_4
REMARK    3  A    between atoms: N_7  and  C_8
REMARK    4  A    between atoms: C_15  and  C_16
REMARK                            x       y       z     vdW  Elec       q    Type
REMARK                         _______ _______ _______ _____ _____    ______ ____
ROOT
ATOM      1  C   UNL     1       1.009  10.251  19.308  0.00  0.00    +0.000 C 
ATOM      2  C   UNL     1       1.099  10.913  20.683  0.00  0.00    +0.000 C 
ATOM      3  C   UNL     1      -0.198  11.342  21.361  0.00  0.00    +0.000 C 
ATOM      4  N   UNL     1      -1.057  11.877  20.322  0.00  0.00    +0.000 N 
ATOM      5  C   UNL     1      -1.475  10.822  19.387  0.00  0.00    +0.000 C 
ATOM      6  C   UNL     1      -0.276  10.499  18.514  0.00  0.00    +0.000 C 
ENDROOT
BRANCH   4   7
ATOM      7  C   UNL     1      -1.882  12.975  20.524  0.00  0.00    +0.000 A 
ATOM      8  N   UNL     1      -3.192  12.658  20.752  0.00  0.00    +0.000 NA
ATOM      9  C   UNL     1      -4.117  13.597  20.939  0.00  0.00    +0.000 A 
ATOM     10  N   UNL     1      -3.916  14.899  20.965  0.00  0.00    +0.000 NA
ATOM     11  C   UNL     1      -2.642  15.233  20.714  0.00  0.00    +0.000 A 
ATOM     12  S   UNL     1      -2.267  16.890  20.709  0.00  0.00    +0.000 S 
ATOM     13  C   UNL     1      -0.672  16.582  20.253  0.00  0.00    +0.000 A 
ATOM     14  C   UNL     1      -0.384  15.232  20.113  0.00  0.00    +0.000 A 
ATOM     15  C   UNL     1      -1.558  14.388  20.438  0.00  0.00    +0.000 A 
BRANCH  14  16
ATOM     16  C   UNL     1       0.972  14.917  19.635  0.00  0.00    +0.000 A 
ATOM     17  C   UNL     1       1.192  13.964  18.621  0.00  0.00    +0.000 A 
ATOM     18  C   UNL     1       2.474  13.733  18.105  0.00  0.00    +0.000 A 
ATOM     19  C   UNL     1       3.556  14.461  18.583  0.00  0.00    +0.000 A 
ATOM     20  C   UNL     1       3.369  15.321  19.658  0.00  0.00    +0.000 A 
ATOM     21  C   UNL     1       2.088  15.520  20.207  0.00  0.00    +0.000 A 
ENDBRANCH  14  16
ENDBRANCH   4   7
BRANCH   1  24
ATOM     22  O   UNL     1       2.471   8.809  17.408  0.00  0.00    +0.000 OA
ATOM     23  C   UNL     1       2.124   8.254  18.442  0.00  0.00    +0.000 C 
ATOM     24  N   UNL     1       1.350   8.852  19.434  0.00  0.00    +0.000 N 
ATOM     25  H   UNL     1       1.383   8.477  20.374  0.00  0.00    +0.000 HD
BRANCH  23  26
ATOM     26  C   UNL     1       2.575   6.886  18.759  0.00  0.00    +0.000 A 
ATOM     27  C   UNL     1       2.219   6.293  19.966  0.00  0.00    +0.000 A 
ATOM     28  C   UNL     1       2.617   4.983  20.210  0.00  0.00    +0.000 A 
ATOM     29  C   UNL     1       3.354   4.324  19.232  0.00  0.00    +0.000 A 
ATOM     30  N   UNL     1       3.731   4.882  18.061  0.00  0.00    +0.000 NA
ATOM     31  C   UNL     1       3.348   6.158  17.861  0.00  0.00    +0.000 A 
ENDBRANCH  23  26
ENDBRANCH   1  24
TORSDOF 4
ENDMDL
MODEL 7
REMARK VINA RESULT:      -6.8      5.655      9.996
REMARK  Name = 
REMARK  4 active torsions:
REMARK  status: ('A' for Active; 'I' for Inactive)
REMARK    1  A    between atoms: C_2  and  C_25
REMARK    2  A    between atoms: N_3  and  C_4
REMARK    3  A    between atoms: N_7  and  C_8
REMARK    4  A    between atoms: C_15  and  C_16
REMARK                            x       y       z     vdW  Elec       q    Type
REMARK                         _______ _______ _______ _____ _____    ______ ____
ROOT
ATOM      1  C   UNL     1       1.316   9.147  18.899  0.00  0.00    +0.000 C 
ATOM      2  C   UNL     1       1.381   8.566  20.311  0.00  0.00    +0.000 C 
ATOM      3  C   UNL     1       2.245   7.330  20.541  0.00  0.00    +0.000 C 
ATOM      4  N   UNL     1       2.070   6.476  19.383  0.00  0.00    +0.000 N 
ATOM      5  C   UNL     1       2.646   7.094  18.180  0.00  0.00    +0.000 C 
ATOM      6  C   UNL     1       1.703   8.207  17.755  0.00  0.00    +0.000 C 
ENDROOT
BRANCH   4   7
ATOM      7  C   UNL     1       2.009   5.093  19.475  0.00  0.00    +0.000 A 
ATOM      8  N   UNL     1       0.890   4.621  20.103  0.00  0.00    +0.000 NA
ATOM      9  C   UNL     1       0.692   3.319  20.296  0.00  0.00    +0.000 A 
ATOM     10  N   UNL     1       1.483   2.340  19.903  0.00  0.00    +0.000 NA
ATOM     11  C   UNL     1       2.601   2.783  19.310  0.00  0.00    +0.000 A 
ATOM     12  S   UNL     1       3.704   1.607  18.773  0.00  0.00    +0.000 S 
ATOM     13  C   UNL     1       4.807   2.789  18.288  0.00  0.00    +0.000 A 
ATOM     14  C   UNL     1       4.364   4.085  18.502  0.00  0.00    +0.000 A 
ATOM     15  C   UNL     1       2.999   4.107  19.079  0.00  0.00    +0.000 A 
BRANCH  14  16
ATOM     16  C   UNL     1       5.327   5.149  18.171  0.00  0.00    +0.000 A 
ATOM     17  C   UNL     1       6.438   5.417  18.995  0.00  0.00    +0.000 A 
ATOM     18  C   UNL     1       7.401   6.368  18.630  0.00  0.00    +0.000 A 
ATOM     19  C   UNL     1       7.277   7.056  17.430  0.00  0.00    +0.000 A 
ATOM     20  C   UNL     1       6.130   6.879  16.666  0.00  0.00    +0.000 A 
ATOM     21  C   UNL     1       5.141   5.957  17.055  0.00  0.00    +0.000 A 
ENDBRANCH  14  16
ENDBRANCH   4   7
BRANCH   1  24
ATOM     22  O   UNL     1       0.075  11.648  19.088  0.00  0.00    +0.000 OA
ATOM     23  C   UNL     1       1.296  11.590  19.024  0.00  0.00    +0.000 C 
ATOM     24  N   UNL     1       2.020  10.409  18.874  0.00  0.00    +0.000 N 
ATOM     25  H   UNL     1       2.992  10.392  19.159  0.00  0.00    +0.000 HD
BRANCH  23  26
ATOM     26  C   UNL     1       2.123  12.801  19.177  0.00  0.00    +0.000 A 
ATOM     27  C   UNL     1       2.749  13.366  18.070  0.00  0.00    +0.000 A 
ATOM     28  C   UNL     1       3.478  14.538  18.241  0.00  0.00    +0.000 A 
ATOM     29  C   UNL     1       3.547  15.093  19.514  0.00  0.00    +0.000 A 
ATOM     30  N   UNL     1       2.967  14.555  20.610  0.00  0.00    +0.000 NA
ATOM     31  C   UNL     1       2.284  13.409  20.416  0.00  0.00    +0.000 A 
ENDBRANCH  23  26
ENDBRANCH   1  24
TORSDOF 4
ENDMDL
MODEL 8
REMARK VINA RESULT:      -6.8      8.069     10.729
REMARK  Name = 
REMARK  4 active torsions:
REMARK  status: ('A' for Active; 'I' for Inactive)
REMARK    1  A    between atoms: C_2  and  C_25
REMARK    2  A    between atoms: N_3  and  C_4
REMARK    3  A    between atoms: N_7  and  C_8
REMARK    4  A    between atoms: C_15  and  C_16
REMARK                            x       y       z     vdW  Elec       q    Type
REMARK                         _______ _______ _______ _____ _____    ______ ____
ROOT
ATOM      1  C   UNL     1       1.117   8.573  19.212  0.00  0.00    +0.000 C 
ATOM      2  C   UNL     1       0.679   9.798  18.410  0.00  0.00    +0.000 C 
ATOM      3  C   UNL     1       0.628  11.145  19.124  0.00  0.00    +0.000 C 
ATOM      4  N   UNL     1       0.113  10.893  20.456  0.00  0.00    +0.000 N 
ATOM      5  C   UNL     1       1.065  10.105  21.250  0.00  0.00    +0.000 C 
ATOM      6  C   UNL     1       1.002   8.678  20.735  0.00  0.00    +0.000 C 
ENDROOT
BRANCH   4   7
ATOM      7  C   UNL     1      -0.755  11.765  21.100  0.00  0.00    +0.000 A 
ATOM      8  N   UNL     1      -0.369  12.106  22.366  0.00  0.00    +0.000 NA
ATOM      9  C   UNL     1      -1.105  12.913  23.128  0.00  0.00    +0.000 A 
ATOM     10  N   UNL     1      -2.235  13.499  22.785  0.00  0.00    +0.000 NA
ATOM     11  C   UNL     1      -2.646  13.154  21.556  0.00  0.00    +0.000 A 
ATOM     12  S   UNL     1      -4.101  13.840  21.011  0.00  0.00    +0.000 S 
ATOM     13  C   UNL     1      -4.047  12.947  19.580  0.00  0.00    +0.000 A 
ATOM     14  C   UNL     1      -2.930  12.132  19.475  0.00  0.00    +0.000 A 
ATOM     15  C   UNL     1      -2.035  12.279  20.647  0.00  0.00    +0.000 A 
BRANCH  14  16
ATOM     16  C   UNL     1      -2.881  11.271  18.281  0.00  0.00    +0.000 A 
ATOM     17  C   UNL     1      -3.355   9.945  18.311  0.00  0.00    +0.000 A 
ATOM     18  C   UNL     1      -3.391   9.159  17.152  0.00  0.00    +0.000 A 
ATOM     19  C   UNL     1      -2.968   9.690  15.940  0.00  0.00    +0.000 A 
ATOM     20  C   UNL     1      -2.396  10.956  15.920  0.00  0.00    +0.000 A 
ATOM     21  C   UNL     1      -2.318  11.729  17.094  0.00  0.00    +0.000 A 
ENDBRANCH  14  16
ENDBRANCH   4   7
BRANCH   1  24
ATOM     22  O   UNL     1       1.992   5.916  19.175  0.00  0.00    +0.000 OA
ATOM     23  C   UNL     1       2.728   6.794  18.743  0.00  0.00    +0.000 C 
ATOM     24  N   UNL     1       2.423   8.153  18.758  0.00  0.00    +0.000 N 
ATOM     25  H   UNL     1       2.896   8.768  18.107  0.00  0.00    +0.000 HD
BRANCH  23  26
ATOM     26  C   UNL     1       4.005   6.459  18.086  0.00  0.00    +0.000 A 
ATOM     27  C   UNL     1       4.845   5.497  18.638  0.00  0.00    +0.000 A 
ATOM     28  C   UNL     1       6.016   5.167  17.964  0.00  0.00    +0.000 A 
ATOM     29  C   UNL     1       6.294   5.817  16.767  0.00  0.00    +0.000 A 
ATOM     30  N   UNL     1       5.508   6.770  16.219  0.00  0.00    +0.000 NA
ATOM     31  C   UNL     1       4.390   7.081  16.904  0.00  0.00    +0.000 A 
ENDBRANCH  23  26
ENDBRANCH   1  24
TORSDOF 4
ENDMDL
MODEL 9
REMARK VINA RESULT:      -6.7      5.684     10.090
REMARK  Name = 
REMARK  4 active torsions:
REMARK  status: ('A' for Active; 'I' for Inactive)
REMARK    1  A    between atoms: C_2  and  C_25
REMARK    2  A    between atoms: N_3  and  C_4
REMARK    3  A    between atoms: N_7  and  C_8
REMARK    4  A    between atoms: C_15  and  C_16
REMARK                            x       y       z     vdW  Elec       q    Type
REMARK                         _______ _______ _______ _____ _____    ______ ____
ROOT
ATOM      1  C   UNL     1       1.358   9.097  18.882  0.00  0.00    +0.000 C 
ATOM      2  C   UNL     1       1.269   8.528  20.298  0.00  0.00    +0.000 C 
ATOM      3  C   UNL     1       2.105   7.296  20.633  0.00  0.00    +0.000 C 
ATOM      4  N   UNL     1       2.059   6.432  19.469  0.00  0.00    +0.000 N 
ATOM      5  C   UNL     1       2.761   7.041  18.331  0.00  0.00    +0.000 C 
ATOM      6  C   UNL     1       1.870   8.147  17.796  0.00  0.00    +0.000 C 
ENDROOT
BRANCH   4   7
ATOM      7  C   UNL     1       1.990   5.049  19.566  0.00  0.00    +0.000 A 
ATOM      8  N   UNL     1       0.974   4.592  20.358  0.00  0.00    +0.000 NA
ATOM      9  C   UNL     1       0.786   3.292  20.576  0.00  0.00    +0.000 A 
ATOM     10  N   UNL     1       1.491   2.302  20.064  0.00  0.00    +0.000 NA
ATOM     11  C   UNL     1       2.512   2.731  19.306  0.00  0.00    +0.000 A 
ATOM     12  S   UNL     1       3.499   1.541  18.603  0.00  0.00    +0.000 S 
ATOM     13  C   UNL     1       4.534   2.707  17.957  0.00  0.00    +0.000 A 
ATOM     14  C   UNL     1       4.150   4.009  18.240  0.00  0.00    +0.000 A 
ATOM     15  C   UNL     1       2.891   4.049  19.021  0.00  0.00    +0.000 A 
BRANCH  14  16
ATOM     16  C   UNL     1       5.068   5.059  17.768  0.00  0.00    +0.000 A 
ATOM     17  C   UNL     1       4.916   5.653  16.500  0.00  0.00    +0.000 A 
ATOM     18  C   UNL     1       5.734   6.715  16.091  0.00  0.00    +0.000 A 
ATOM     19  C   UNL     1       6.707   7.212  16.948  0.00  0.00    +0.000 A 
ATOM     20  C   UNL     1       6.939   6.562  18.154  0.00  0.00    +0.000 A 
ATOM     21  C   UNL     1       6.147   5.466  18.546  0.00  0.00    +0.000 A 
ENDBRANCH  14  16
ENDBRANCH   4   7
BRANCH   1  24
ATOM     22  O   UNL     1       0.102  11.597  18.845  0.00  0.00    +0.000 OA
ATOM     23  C   UNL     1       1.321  11.541  18.947  0.00  0.00    +0.000 C 
ATOM     24  N   UNL     1       2.059  10.360  18.923  0.00  0.00    +0.000 N 
ATOM     25  H   UNL     1       2.983  10.352  19.338  0.00  0.00    +0.000 HD
BRANCH  23  26
ATOM     26  C   UNL     1       2.119  12.759  19.182  0.00  0.00    +0.000 A 
ATOM     27  C   UNL     1       2.225  13.289  20.464  0.00  0.00    +0.000 A 
ATOM     28  C   UNL     1       3.029  14.407  20.660  0.00  0.00    +0.000 A 
ATOM     29  C   UNL     1       3.692  14.943  19.562  0.00  0.00    +0.000 A 
ATOM     30  N   UNL     1       3.591  14.462  18.304  0.00  0.00    +0.000 NA
ATOM     31  C   UNL     1       2.790  13.391  18.142  0.00  0.00    +0.000 A 
ENDBRANCH  23  26
ENDBRANCH   1  24
TORSDOF 4
ENDMDL
