MODEL 1
REMARK VINA RESULT:      -8.1      0.000      0.000
REMARK  Name = 
REMARK  6 active torsions:
REMARK  status: ('A' for Active; 'I' for Inactive)
REMARK    1  A    between atoms: C_1  and  C_2
REMARK    2  A    between atoms: C_5  and  C_6
REMARK    3  A    between atoms: C_9  and  C_10
REMARK    4  A    between atoms: C_10  and  C_11
REMARK    5  A    between atoms: C_11  and  C_12
REMARK    6  A    between atoms: N_14  and  C_15
REMARK                            x       y       z     vdW  Elec       q    Type
REMARK                         _______ _______ _______ _____ _____    ______ ____
ROOT
ATOM      1  C   UNL     1       2.441   3.476  21.456  0.00  0.00    +0.000 C 
ENDROOT
BRANCH   1   2
ATOM      2  C   UNL     1       1.816   4.577  20.635  0.00  0.00    +0.000 C 
ATOM      3  O   UNL     1       0.799   4.362  19.984  0.00  0.00    +0.000 OA
ATOM      4  N   UNL     1       2.510   5.776  20.684  0.00  0.00    +0.000 N 
ATOM      5  H   UNL     1       3.438   5.769  21.091  0.00  0.00    +0.000 HD
BRANCH   4   6
ATOM      6  C   UNL     1       2.111   6.951  20.010  0.00  0.00    +0.000 A 
ATOM      7  C   UNL     1       2.386   7.159  18.637  0.00  0.00    +0.000 A 
ATOM      8  C   UNL     1       2.075   8.359  18.002  0.00  0.00    +0.000 A 
ATOM      9  C   UNL     1       1.484   9.339  18.758  0.00  0.00    +0.000 A 
ATOM     10  C   UNL     1       1.172   9.139  20.083  0.00  0.00    +0.000 A 
ATOM     11  C   UNL     1       1.448   7.950  20.732  0.00  0.00    +0.000 A 
ATOM     12  O   UNL     1       0.606  10.244  20.644  0.00  0.00    +0.000 OA
ATOM     13  C   UNL     1       0.674  11.175  19.540  0.00  0.00    +0.000 C 
ATOM     14  O   UNL     1       1.157  10.580  18.319  0.00  0.00    +0.000 OA
ENDBRANCH   4   6
ENDBRANCH   1   2
BRANCH   1  15
ATOM     15  C   UNL     1       3.142   2.497  20.514  0.00  0.00    +0.000 C 
BRANCH  15  19
ATOM     16  C   UNL     1       5.325   3.954  18.125  0.00  0.00    +0.000 A 
ATOM     17  N   UNL     1       5.864   4.456  19.250  0.00  0.00    +0.000 NA
ATOM     18  O   UNL     1       5.054   3.948  20.260  0.00  0.00    +0.000 OA
ATOM     19  C   UNL     1       4.112   3.182  19.644  0.00  0.00    +0.000 A 
ATOM     20  N   UNL     1       4.223   3.158  18.338  0.00  0.00    +0.000 NA
BRANCH  16  25
ATOM     21  C   UNL     1       7.296   5.075  12.826  0.00  0.00    +0.000 C 
ATOM     22  C   UNL     1       6.804   4.756  14.204  0.00  0.00    +0.000 A 
ATOM     23  C   UNL     1       7.610   4.986  15.323  0.00  0.00    +0.000 A 
ATOM     24  C   UNL     1       7.132   4.715  16.606  0.00  0.00    +0.000 A 
ATOM     25  C   UNL     1       5.840   4.211  16.789  0.00  0.00    +0.000 A 
ATOM     26  C   UNL     1       5.039   3.966  15.666  0.00  0.00    +0.000 A 
ATOM     27  C   UNL     1       5.515   4.239  14.384  0.00  0.00    +0.000 A 
ENDBRANCH  16  25
ENDBRANCH  15  19
ENDBRANCH   1  15
TORSDOF 5
ENDMDL
MODEL 2
REMARK VINA RESULT:      -7.8      2.224      3.054
REMARK  Name = 
REMARK  6 active torsions:
REMARK  status: ('A' for Active; 'I' for Inactive)
REMARK    1  A    between atoms: C_1  and  C_2
REMARK    2  A    between atoms: C_5  and  C_6
REMARK    3  A    between atoms: C_9  and  C_10
REMARK    4  A    between atoms: C_10  and  C_11
REMARK    5  A    between atoms: C_11  and  C_12
REMARK    6  A    between atoms: N_14  and  C_15
REMARK                            x       y       z     vdW  Elec       q    Type
REMARK                         _______ _______ _______ _____ _____    ______ ____
ROOT
ATOM      1  C   UNL     1       2.584   2.302  19.485  0.00  0.00    +0.000 C 
ENDROOT
BRANCH   1   2
ATOM      2  C   UNL     1       2.006   3.677  19.256  0.00  0.00    +0.000 C 
ATOM      3  O   UNL     1       1.028   3.824  18.531  0.00  0.00    +0.000 OA
ATOM      4  N   UNL     1       2.697   4.690  19.903  0.00  0.00    +0.000 N 
ATOM      5  H   UNL     1       3.600   4.466  20.303  0.00  0.00    +0.000 HD
BRANCH   4   6
ATOM      6  C   UNL     1       2.336   6.055  19.849  0.00  0.00    +0.000 A 
ATOM      7  C   UNL     1       1.613   6.681  20.893  0.00  0.00    +0.000 A 
ATOM      8  C   UNL     1       1.178   8.000  20.791  0.00  0.00    +0.000 A 
ATOM      9  C   UNL     1       1.479   8.678  19.637  0.00  0.00    +0.000 A 
ATOM     10  C   UNL     1       2.215   8.097  18.630  0.00  0.00    +0.000 A 
ATOM     11  C   UNL     1       2.680   6.798  18.715  0.00  0.00    +0.000 A 
ATOM     12  O   UNL     1       2.384   8.941  17.573  0.00  0.00    +0.000 OA
ATOM     13  C   UNL     1       1.605  10.078  18.006  0.00  0.00    +0.000 C 
ATOM     14  O   UNL     1       1.096   9.947  19.348  0.00  0.00    +0.000 OA
ENDBRANCH   4   6
ENDBRANCH   1   2
BRANCH   1  15
ATOM     15  C   UNL     1       3.444   1.922  18.280  0.00  0.00    +0.000 C 
BRANCH  15  19
ATOM     16  C   UNL     1       5.416   4.752  17.444  0.00  0.00    +0.000 A 
ATOM     17  N   UNL     1       4.863   4.508  16.243  0.00  0.00    +0.000 NA
ATOM     18  O   UNL     1       4.072   3.385  16.466  0.00  0.00    +0.000 OA
ATOM     19  C   UNL     1       4.218   3.070  17.783  0.00  0.00    +0.000 A 
ATOM     20  N   UNL     1       5.038   3.866  18.426  0.00  0.00    +0.000 NA
BRANCH  16  25
ATOM     21  C   UNL     1       8.969   9.149  18.568  0.00  0.00    +0.000 C 
ATOM     22  C   UNL     1       8.071   7.991  18.258  0.00  0.00    +0.000 A 
ATOM     23  C   UNL     1       8.231   6.766  18.914  0.00  0.00    +0.000 A 
ATOM     24  C   UNL     1       7.369   5.702  18.642  0.00  0.00    +0.000 A 
ATOM     25  C   UNL     1       6.334   5.848  17.711  0.00  0.00    +0.000 A 
ATOM     26  C   UNL     1       6.186   7.070  17.044  0.00  0.00    +0.000 A 
ATOM     27  C   UNL     1       7.045   8.135  17.317  0.00  0.00    +0.000 A 
ENDBRANCH  16  25
ENDBRANCH  15  19
ENDBRANCH   1  15
TORSDOF 5
ENDMDL
MODEL 3
REMARK VINA RESULT:      -7.8      6.489      8.055
REMARK  Name = 
REMARK  6 active torsions:
REMARK  status: ('A' for Active; 'I' for Inactive)
REMARK    1  A    between atoms: C_1  and  C_2
REMARK    2  A    between atoms: C_5  and  C_6
REMARK    3  A    between atoms: C_9  and  C_10
REMARK    4  A    between atoms: C_10  and  C_11
REMARK    5  A    between atoms: C_11  and  C_12
REMARK    6  A    between atoms: N_14  and  C_15
REMARK                            x       y       z     vdW  Elec       q    Type
REMARK                         _______ _______ _______ _____ _____    ______ ____
ROOT
ATOM      1  C   UNL     1       8.621   8.458  18.584  0.00  0.00    +0.000 C 
ENDROOT
BRANCH   1   2
ATOM      2  C   UNL     1       8.677   9.943  18.322  0.00  0.00    +0.000 C 
ATOM      3  O   UNL     1       7.874  10.467  17.559  0.00  0.00    +0.000 OA
ATOM      4  N   UNL     1       9.706  10.591  18.988  0.00  0.00    +0.000 N 
ATOM      5  H   UNL     1      10.420  10.021  19.424  0.00  0.00    +0.000 HD
BRANCH   4   6
ATOM      6  C   UNL     1       9.949  11.981  18.909  0.00  0.00    +0.000 A 
ATOM      7  C   UNL     1       9.478  12.882  19.894  0.00  0.00    +0.000 A 
ATOM      8  C   UNL     1       9.638  14.259  19.762  0.00  0.00    +0.000 A 
ATOM      9  C   UNL     1      10.275  14.716  18.637  0.00  0.00    +0.000 A 
ATOM     10  C   UNL     1      10.774  13.853  17.689  0.00  0.00    +0.000 A 
ATOM     11  C   UNL     1      10.651  12.481  17.806  0.00  0.00    +0.000 A 
ATOM     12  O   UNL     1      11.354  14.518  16.651  0.00  0.00    +0.000 OA
ATOM     13  C   UNL     1      11.087  15.889  17.024  0.00  0.00    +0.000 C 
ATOM     14  O   UNL     1      10.475  16.020  18.322  0.00  0.00    +0.000 OA
ENDBRANCH   4   6
ENDBRANCH   1   2
BRANCH   1  15
ATOM     15  C   UNL     1       7.760   7.800  17.506  0.00  0.00    +0.000 C 
BRANCH  15  19
ATOM     16  C   UNL     1       5.539   5.257  18.599  0.00  0.00    +0.000 A 
ATOM     17  N   UNL     1       6.568   5.022  19.432  0.00  0.00    +0.000 NA
ATOM     18  O   UNL     1       7.514   5.974  19.064  0.00  0.00    +0.000 OA
ATOM     19  C   UNL     1       6.957   6.695  18.052  0.00  0.00    +0.000 A 
ATOM     20  N   UNL     1       5.755   6.293  17.719  0.00  0.00    +0.000 NA
BRANCH  16  25
ATOM     21  C   UNL     1       0.612   2.270  18.743  0.00  0.00    +0.000 C 
ATOM     22  C   UNL     1       1.892   3.044  18.671  0.00  0.00    +0.000 A 
ATOM     23  C   UNL     1       1.897   4.383  18.268  0.00  0.00    +0.000 A 
ATOM     24  C   UNL     1       3.090   5.106  18.235  0.00  0.00    +0.000 A 
ATOM     25  C   UNL     1       4.297   4.501  18.605  0.00  0.00    +0.000 A 
ATOM     26  C   UNL     1       4.292   3.155  18.992  0.00  0.00    +0.000 A 
ATOM     27  C   UNL     1       3.099   2.433  19.029  0.00  0.00    +0.000 A 
ENDBRANCH  16  25
ENDBRANCH  15  19
ENDBRANCH   1  15
TORSDOF 5
ENDMDL
MODEL 4
REMARK VINA RESULT:      -7.7      3.803      5.311
REMARK  Name = 
REMARK  6 active torsions:
REMARK  status: ('A' for Active; 'I' for Inactive)
REMARK    1  A    between atoms: C_1  and  C_2
REMARK    2  A    between atoms: C_5  and  C_6
REMARK    3  A    between atoms: C_9  and  C_10
REMARK    4  A    between atoms: C_10  and  C_11
REMARK    5  A    between atoms: C_11  and  C_12
REMARK    6  A    between atoms: N_14  and  C_15
REMARK                            x       y       z     vdW  Elec       q    Type
REMARK                         _______ _______ _______ _____ _____    ______ ____
ROOT
ATOM      1  C   UNL     1       7.666   5.690  19.292  0.00  0.00    +0.000 C 
ENDROOT
BRANCH   1   2
ATOM      2  C   UNL     1       6.203   5.323  19.285  0.00  0.00    +0.000 C 
ATOM      3  O   UNL     1       5.379   6.051  19.827  0.00  0.00    +0.000 OA
ATOM      4  N   UNL     1       5.930   4.119  18.654  0.00  0.00    +0.000 N 
ATOM      5  H   UNL     1       6.712   3.517  18.426  0.00  0.00    +0.000 HD
BRANCH   4   6
ATOM      6  C   UNL     1       4.634   3.575  18.510  0.00  0.00    +0.000 A 
ATOM      7  C   UNL     1       4.020   3.425  17.243  0.00  0.00    +0.000 A 
ATOM      8  C   UNL     1       2.707   2.979  17.115  0.00  0.00    +0.000 A 
ATOM      9  C   UNL     1       2.025   2.683  18.269  0.00  0.00    +0.000 A 
ATOM     10  C   UNL     1       2.620   2.784  19.505  0.00  0.00    +0.000 A 
ATOM     11  C   UNL     1       3.929   3.202  19.659  0.00  0.00    +0.000 A 
ATOM     12  O   UNL     1       1.760   2.456  20.510  0.00  0.00    +0.000 OA
ATOM     13  C   UNL     1       0.546   2.218  19.763  0.00  0.00    +0.000 C 
ATOM     14  O   UNL     1       0.731   2.282  18.335  0.00  0.00    +0.000 OA
ENDBRANCH   4   6
ENDBRANCH   1   2
BRANCH   1  15
ATOM     15  C   UNL     1       7.934   6.663  18.143  0.00  0.00    +0.000 C 
BRANCH  15  19
ATOM     16  C   UNL     1       6.457   5.467  15.146  0.00  0.00    +0.000 A 
ATOM     17  N   UNL     1       5.648   6.513  15.387  0.00  0.00    +0.000 NA
ATOM     18  O   UNL     1       6.143   7.047  16.572  0.00  0.00    +0.000 OA
ATOM     19  C   UNL     1       7.208   6.275  16.923  0.00  0.00    +0.000 A 
ATOM     20  N   UNL     1       7.438   5.287  16.094  0.00  0.00    +0.000 NA
BRANCH  16  25
ATOM     21  C   UNL     1       6.019   1.892  10.646  0.00  0.00    +0.000 C 
ATOM     22  C   UNL     1       6.114   2.844  11.799  0.00  0.00    +0.000 A 
ATOM     23  C   UNL     1       5.025   3.042  12.654  0.00  0.00    +0.000 A 
ATOM     24  C   UNL     1       5.132   3.908  13.744  0.00  0.00    +0.000 A 
ATOM     25  C   UNL     1       6.330   4.586  13.996  0.00  0.00    +0.000 A 
ATOM     26  C   UNL     1       7.414   4.398  13.129  0.00  0.00    +0.000 A 
ATOM     27  C   UNL     1       7.309   3.531  12.041  0.00  0.00    +0.000 A 
ENDBRANCH  16  25
ENDBRANCH  15  19
ENDBRANCH   1  15
TORSDOF 5
ENDMDL
MODEL 5
REMARK VINA RESULT:      -7.7      5.829      7.698
REMARK  Name = 
REMARK  6 active torsions:
REMARK  status: ('A' for Active; 'I' for Inactive)
REMARK    1  A    between atoms: C_1  and  C_2
REMARK    2  A    between atoms: C_5  and  C_6
REMARK    3  A    between atoms: C_9  and  C_10
REMARK    4  A    between atoms: C_10  and  C_11
REMARK    5  A    between atoms: C_11  and  C_12
REMARK    6  A    between atoms: N_14  and  C_15
REMARK                            x       y       z     vdW  Elec       q    Type
REMARK                         _______ _______ _______ _____ _____    ______ ____
ROOT
ATOM      1  C   UNL     1       7.404   6.341  17.549  0.00  0.00    +0.000 C 
ENDROOT
BRANCH   1   2
ATOM      2  C   UNL     1       6.307   5.467  18.104  0.00  0.00    +0.000 C 
ATOM      3  O   UNL     1       6.570   4.360  18.562  0.00  0.00    +0.000 OA
ATOM      4  N   UNL     1       5.042   6.027  18.010  0.00  0.00    +0.000 N 
ATOM      5  H   UNL     1       4.932   6.852  17.434  0.00  0.00    +0.000 HD
BRANCH   4   6
ATOM      6  C   UNL     1       3.863   5.403  18.476  0.00  0.00    +0.000 A 
ATOM      7  C   UNL     1       3.212   5.820  19.662  0.00  0.00    +0.000 A 
ATOM      8  C   UNL     1       2.106   5.141  20.166  0.00  0.00    +0.000 A 
ATOM      9  C   UNL     1       1.663   4.047  19.467  0.00  0.00    +0.000 A 
ATOM     10  C   UNL     1       2.259   3.652  18.291  0.00  0.00    +0.000 A 
ATOM     11  C   UNL     1       3.344   4.322  17.756  0.00  0.00    +0.000 A 
ATOM     12  O   UNL     1       1.671   2.538  17.773  0.00  0.00    +0.000 OA
ATOM     13  C   UNL     1       0.697   2.242  18.799  0.00  0.00    +0.000 C 
ATOM     14  O   UNL     1       0.635   3.242  19.835  0.00  0.00    +0.000 OA
ENDBRANCH   4   6
ENDBRANCH   1   2
BRANCH   1  15
ATOM     15  C   UNL     1       8.160   6.981  18.713  0.00  0.00    +0.000 C 
BRANCH  15  19
ATOM     16  C   UNL     1       8.967  10.427  18.466  0.00  0.00    +0.000 A 
ATOM     17  N   UNL     1       8.044  10.348  17.492  0.00  0.00    +0.000 NA
ATOM     18  O   UNL     1       7.672   9.008  17.498  0.00  0.00    +0.000 OA
ATOM     19  C   UNL     1       8.401   8.414  18.483  0.00  0.00    +0.000 A 
ATOM     20  N   UNL     1       9.218   9.232  19.099  0.00  0.00    +0.000 NA
BRANCH  16  25
ATOM     21  C   UNL     1      11.791  15.252  19.873  0.00  0.00    +0.000 C 
ATOM     22  C   UNL     1      11.031  14.008  19.526  0.00  0.00    +0.000 A 
ATOM     23  C   UNL     1       9.979  14.047  18.605  0.00  0.00    +0.000 A 
ATOM     24  C   UNL     1       9.296  12.878  18.264  0.00  0.00    +0.000 A 
ATOM     25  C   UNL     1       9.656  11.653  18.838  0.00  0.00    +0.000 A 
ATOM     26  C   UNL     1      10.699  11.620  19.773  0.00  0.00    +0.000 A 
ATOM     27  C   UNL     1      11.384  12.787  20.112  0.00  0.00    +0.000 A 
ENDBRANCH  16  25
ENDBRANCH  15  19
ENDBRANCH   1  15
TORSDOF 5
ENDMDL
MODEL 6
REMARK VINA RESULT:      -7.7      6.509      8.123
REMARK  Name = 
REMARK  6 active torsions:
REMARK  status: ('A' for Active; 'I' for Inactive)
REMARK    1  A    between atoms: C_1  and  C_2
REMARK    2  A    between atoms: C_5  and  C_6
REMARK    3  A    between atoms: C_9  and  C_10
REMARK    4  A    between atoms: C_10  and  C_11
REMARK    5  A    between atoms: C_11  and  C_12
REMARK    6  A    between atoms: N_14  and  C_15
REMARK                            x       y       z     vdW  Elec       q    Type
REMARK                         _______ _______ _______ _____ _____    ______ ____
ROOT
ATOM      1  C   UNL     1       8.209   7.946  18.553  0.00  0.00    +0.000 C 
ENDROOT
BRANCH   1   2
ATOM      2  C   UNL     1       8.618   9.398  18.590  0.00  0.00    +0.000 C 
ATOM      3  O   UNL     1       8.254  10.167  17.707  0.00  0.00    +0.000 OA
ATOM      4  N   UNL     1       9.430   9.724  19.666  0.00  0.00    +0.000 N 
ATOM      5  H   UNL     1       9.823   8.965  20.208  0.00  0.00    +0.000 HD
BRANCH   4   6
ATOM      6  C   UNL     1       9.926  11.023  19.919  0.00  0.00    +0.000 A 
ATOM      7  C   UNL     1       9.364  11.859  20.913  0.00  0.00    +0.000 A 
ATOM      8  C   UNL     1       9.795  13.172  21.093  0.00  0.00    +0.000 A 
ATOM      9  C   UNL     1      10.793  13.627  20.269  0.00  0.00    +0.000 A 
ATOM     10  C   UNL     1      11.377  12.815  19.326  0.00  0.00    +0.000 A 
ATOM     11  C   UNL     1      10.986  11.502  19.142  0.00  0.00    +0.000 A 
ATOM     12  O   UNL     1      12.333  13.473  18.611  0.00  0.00    +0.000 OA
ATOM     13  C   UNL     1      12.219  14.803  19.165  0.00  0.00    +0.000 C 
ATOM     14  O   UNL     1      11.299  14.886  20.272  0.00  0.00    +0.000 OA
ENDBRANCH   4   6
ENDBRANCH   1   2
BRANCH   1  15
ATOM     15  C   UNL     1       7.788   7.591  17.127  0.00  0.00    +0.000 C 
BRANCH  15  19
ATOM     16  C   UNL     1       4.781   5.737  17.458  0.00  0.00    +0.000 A 
ATOM     17  N   UNL     1       4.894   5.731  16.119  0.00  0.00    +0.000 NA
ATOM     18  O   UNL     1       6.055   6.462  15.884  0.00  0.00    +0.000 OA
ATOM     19  C   UNL     1       6.531   6.827  17.106  0.00  0.00    +0.000 A 
ATOM     20  N   UNL     1       5.785   6.420  18.104  0.00  0.00    +0.000 NA
BRANCH  16  25
ATOM     21  C   UNL     1       0.571   3.055  20.342  0.00  0.00    +0.000 C 
ATOM     22  C   UNL     1       1.648   3.781  19.595  0.00  0.00    +0.000 A 
ATOM     23  C   UNL     1       2.537   4.627  20.265  0.00  0.00    +0.000 A 
ATOM     24  C   UNL     1       3.557   5.275  19.567  0.00  0.00    +0.000 A 
ATOM     25  C   UNL     1       3.703   5.087  18.187  0.00  0.00    +0.000 A 
ATOM     26  C   UNL     1       2.800   4.252  17.516  0.00  0.00    +0.000 A 
ATOM     27  C   UNL     1       1.783   3.601  18.214  0.00  0.00    +0.000 A 
ENDBRANCH  16  25
ENDBRANCH  15  19
ENDBRANCH   1  15
TORSDOF 5
ENDMDL
MODEL 7
REMARK VINA RESULT:      -7.7      7.088      8.551
REMARK  Name = 
REMARK  6 active torsions:
REMARK  status: ('A' for Active; 'I' for Inactive)
REMARK    1  A    between atoms: C_1  and  C_2
REMARK    2  A    between atoms: C_5  and  C_6
REMARK    3  A    between atoms: C_9  and  C_10
REMARK    4  A    between atoms: C_10  and  C_11
REMARK    5  A    between atoms: C_11  and  C_12
REMARK    6  A    between atoms: N_14  and  C_15
REMARK                            x       y       z     vdW  Elec       q    Type
REMARK                         _______ _______ _______ _____ _____    ______ ____
ROOT
ATOM      1  C   UNL     1       8.895   9.337  18.962  0.00  0.00    +0.000 C 
ENDROOT
BRANCH   1   2
ATOM      2  C   UNL     1       9.584  10.673  19.081  0.00  0.00    +0.000 C 
ATOM      3  O   UNL     1       9.961  11.081  20.174  0.00  0.00    +0.000 OA
ATOM      4  N   UNL     1       9.703  11.352  17.877  0.00  0.00    +0.000 N 
ATOM      5  H   UNL     1       9.176  11.005  17.085  0.00  0.00    +0.000 HD
BRANCH   4   6
ATOM      6  C   UNL     1      10.324  12.613  17.736  0.00  0.00    +0.000 A 
ATOM      7  C   UNL     1      11.710  12.742  17.484  0.00  0.00    +0.000 A 
ATOM      8  C   UNL     1      12.333  13.987  17.442  0.00  0.00    +0.000 A 
ATOM      9  C   UNL     1      11.549  15.093  17.651  0.00  0.00    +0.000 A 
ATOM     10  C   UNL     1      10.193  14.988  17.857  0.00  0.00    +0.000 A 
ATOM     11  C   UNL     1       9.545  13.767  17.881  0.00  0.00    +0.000 A 
ATOM     12  O   UNL     1       9.614  16.205  18.056  0.00  0.00    +0.000 OA
ATOM     13  C   UNL     1      10.774  17.066  18.029  0.00  0.00    +0.000 C 
ATOM     14  O   UNL     1      11.993  16.375  17.692  0.00  0.00    +0.000 OA
ENDBRANCH   4   6
ENDBRANCH   1   2
BRANCH   1  15
ATOM     15  C   UNL     1       8.191   9.266  17.606  0.00  0.00    +0.000 C 
BRANCH  15  19
ATOM     16  C   UNL     1       6.121   6.392  17.395  0.00  0.00    +0.000 A 
ATOM     17  N   UNL     1       7.259   5.878  16.897  0.00  0.00    +0.000 NA
ATOM     18  O   UNL     1       8.144   6.952  16.923  0.00  0.00    +0.000 OA
ATOM     19  C   UNL     1       7.453   8.003  17.443  0.00  0.00    +0.000 A 
ATOM     20  N   UNL     1       6.208   7.721  17.739  0.00  0.00    +0.000 NA
BRANCH  16  25
ATOM     21  C   UNL     1       1.295   3.338  18.177  0.00  0.00    +0.000 C 
ATOM     22  C   UNL     1       2.535   4.145  17.946  0.00  0.00    +0.000 A 
ATOM     23  C   UNL     1       2.562   5.513  18.237  0.00  0.00    +0.000 A 
ATOM     24  C   UNL     1       3.732   6.252  18.048  0.00  0.00    +0.000 A 
ATOM     25  C   UNL     1       4.891   5.633  17.567  0.00  0.00    +0.000 A 
ATOM     26  C   UNL     1       4.857   4.267  17.261  0.00  0.00    +0.000 A 
ATOM     27  C   UNL     1       3.690   3.527  17.452  0.00  0.00    +0.000 A 
ENDBRANCH  16  25
ENDBRANCH  15  19
ENDBRANCH   1  15
TORSDOF 5
ENDMDL
MODEL 8
REMARK VINA RESULT:      -7.7      5.221      7.385
REMARK  Name = 
REMARK  6 active torsions:
REMARK  status: ('A' for Active; 'I' for Inactive)
REMARK    1  A    between atoms: C_1  and  C_2
REMARK    2  A    between atoms: C_5  and  C_6
REMARK    3  A    between atoms: C_9  and  C_10
REMARK    4  A    between atoms: C_10  and  C_11
REMARK    5  A    between atoms: C_11  and  C_12
REMARK    6  A    between atoms: N_14  and  C_15
REMARK                            x       y       z     vdW  Elec       q    Type
REMARK                         _______ _______ _______ _____ _____    ______ ____
ROOT
ATOM      1  C   UNL     1       7.219   5.768  16.709  0.00  0.00    +0.000 C 
ENDROOT
BRANCH   1   2
ATOM      2  C   UNL     1       6.493   4.861  17.673  0.00  0.00    +0.000 C 
ATOM      3  O   UNL     1       7.109   4.282  18.561  0.00  0.00    +0.000 OA
ATOM      4  N   UNL     1       5.134   4.752  17.423  0.00  0.00    +0.000 N 
ATOM      5  H   UNL     1       4.783   5.116  16.546  0.00  0.00    +0.000 HD
BRANCH   4   6
ATOM      6  C   UNL     1       4.246   3.973  18.199  0.00  0.00    +0.000 A 
ATOM      7  C   UNL     1       3.719   2.746  17.731  0.00  0.00    +0.000 A 
ATOM      8  C   UNL     1       2.771   2.032  18.459  0.00  0.00    +0.000 A 
ATOM      9  C   UNL     1       2.365   2.561  19.658  0.00  0.00    +0.000 A 
ATOM     10  C   UNL     1       2.896   3.732  20.147  0.00  0.00    +0.000 A 
ATOM     11  C   UNL     1       3.856   4.449  19.456  0.00  0.00    +0.000 A 
ATOM     12  O   UNL     1       2.342   4.081  21.342  0.00  0.00    +0.000 OA
ATOM     13  C   UNL     1       1.354   3.038  21.498  0.00  0.00    +0.000 C 
ATOM     14  O   UNL     1       1.420   2.028  20.472  0.00  0.00    +0.000 OA
ENDBRANCH   4   6
ENDBRANCH   1   2
BRANCH   1  15
ATOM     15  C   UNL     1       6.628   7.174  16.817  0.00  0.00    +0.000 C 
BRANCH  15  19
ATOM     16  C   UNL     1       8.675   9.626  18.361  0.00  0.00    +0.000 A 
ATOM     17  N   UNL     1       9.016   8.559  19.103  0.00  0.00    +0.000 NA
ATOM     18  O   UNL     1       8.239   7.531  18.578  0.00  0.00    +0.000 OA
ATOM     19  C   UNL     1       7.515   8.079  17.564  0.00  0.00    +0.000 A 
ATOM     20  N   UNL     1       7.733   9.361  17.395  0.00  0.00    +0.000 NA
BRANCH  16  25
ATOM     21  C   UNL     1      10.997  14.862  19.013  0.00  0.00    +0.000 C 
ATOM     22  C   UNL     1      10.366  13.512  18.860  0.00  0.00    +0.000 A 
ATOM     23  C   UNL     1       9.342  13.303  17.932  0.00  0.00    +0.000 A 
ATOM     24  C   UNL     1       8.780  12.034  17.774  0.00  0.00    +0.000 A 
ATOM     25  C   UNL     1       9.236  10.956  18.541  0.00  0.00    +0.000 A 
ATOM     26  C   UNL     1      10.251  11.172  19.482  0.00  0.00    +0.000 A 
ATOM     27  C   UNL     1      10.815  12.439  19.639  0.00  0.00    +0.000 A 
ENDBRANCH  16  25
ENDBRANCH  15  19
ENDBRANCH   1  15
TORSDOF 5
ENDMDL
MODEL 9
REMARK VINA RESULT:      -7.7      5.861      7.773
REMARK  Name = 
REMARK  6 active torsions:
REMARK  status: ('A' for Active; 'I' for Inactive)
REMARK    1  A    between atoms: C_1  and  C_2
REMARK    2  A    between atoms: C_5  and  C_6
REMARK    3  A    between atoms: C_9  and  C_10
REMARK    4  A    between atoms: C_10  and  C_11
REMARK    5  A    between atoms: C_11  and  C_12
REMARK    6  A    between atoms: N_14  and  C_15
REMARK                            x       y       z     vdW  Elec       q    Type
REMARK                         _______ _______ _______ _____ _____    ______ ____
ROOT
ATOM      1  C   UNL     1       7.915   6.614  18.480  0.00  0.00    +0.000 C 
ENDROOT
BRANCH   1   2
ATOM      2  C   UNL     1       6.842   5.567  18.307  0.00  0.00    +0.000 C 
ATOM      3  O   UNL     1       7.108   4.487  17.793  0.00  0.00    +0.000 OA
ATOM      4  N   UNL     1       5.590   5.970  18.748  0.00  0.00    +0.000 N 
ATOM      5  H   UNL     1       5.458   6.950  18.963  0.00  0.00    +0.000 HD
BRANCH   4   6
ATOM      6  C   UNL     1       4.435   5.157  18.702  0.00  0.00    +0.000 A 
ATOM      7  C   UNL     1       3.547   5.177  17.600  0.00  0.00    +0.000 A 
ATOM      8  C   UNL     1       2.361   4.447  17.603  0.00  0.00    +0.000 A 
ATOM      9  C   UNL     1       2.083   3.698  18.719  0.00  0.00    +0.000 A 
ATOM     10  C   UNL     1       2.954   3.635  19.781  0.00  0.00    +0.000 A 
ATOM     11  C   UNL     1       4.149   4.332  19.795  0.00  0.00    +0.000 A 
ATOM     12  O   UNL     1       2.476   2.848  20.785  0.00  0.00    +0.000 OA
ATOM     13  C   UNL     1       1.177   2.495  20.257  0.00  0.00    +0.000 C 
ATOM     14  O   UNL     1       0.958   2.966  18.913  0.00  0.00    +0.000 OA
ENDBRANCH   4   6
ENDBRANCH   1   2
BRANCH   1  15
ATOM     15  C   UNL     1       7.584   7.809  17.585  0.00  0.00    +0.000 C 
BRANCH  15  19
ATOM     16  C   UNL     1       9.141  10.908  18.335  0.00  0.00    +0.000 A 
ATOM     17  N   UNL     1       9.515  10.207  19.419  0.00  0.00    +0.000 NA
ATOM     18  O   UNL     1       8.929   8.960  19.224  0.00  0.00    +0.000 OA
ATOM     19  C   UNL     1       8.268   9.031  18.036  0.00  0.00    +0.000 A 
ATOM     20  N   UNL     1       8.354  10.202  17.454  0.00  0.00    +0.000 NA
BRANCH  16  25
ATOM     21  C   UNL     1      10.610  16.373  17.237  0.00  0.00    +0.000 C 
ATOM     22  C   UNL     1      10.237  14.957  17.555  0.00  0.00    +0.000 A 
ATOM     23  C   UNL     1       9.041  14.665  18.218  0.00  0.00    +0.000 A 
ATOM     24  C   UNL     1       8.685  13.342  18.483  0.00  0.00    +0.000 A 
ATOM     25  C   UNL     1       9.520  12.290  18.087  0.00  0.00    +0.000 A 
ATOM     26  C   UNL     1      10.725  12.586  17.437  0.00  0.00    +0.000 A 
ATOM     27  C   UNL     1      11.080  13.908  17.169  0.00  0.00    +0.000 A 
ENDBRANCH  16  25
ENDBRANCH  15  19
ENDBRANCH   1  15
TORSDOF 5
ENDMDL
