MODEL 1
REMARK VINA RESULT:      -8.1      0.000      0.000
REMARK  Name = 
REMARK  5 active torsions:
REMARK  status: ('A' for Active; 'I' for Inactive)
REMARK    1  A    between atoms: C_1  and  C_2
REMARK    2  A    between atoms: C_5  and  C_6
REMARK    3  A    between atoms: N_15  and  C_16
REMARK    4  A    between atoms: C_18  and  N_19
REMARK    5  A    between atoms: C_20  and  C_22
REMARK                            x       y       z     vdW  Elec       q    Type
REMARK                         _______ _______ _______ _____ _____    ______ ____
ROOT
ATOM      1  C   UNL     1      -0.228   9.450  21.739  0.00  0.00    +0.000 C 
ATOM      2  C   UNL     1       0.682   8.826  20.718  0.00  0.00    +0.000 A 
ATOM      3  C   UNL     1       1.500   7.765  21.165  0.00  0.00    +0.000 A 
ATOM      4  C   UNL     1       2.342   7.083  20.291  0.00  0.00    +0.000 A 
ATOM      5  C   UNL     1       2.419   7.458  18.952  0.00  0.00    +0.000 A 
ATOM      6  C   UNL     1       1.671   8.569  18.533  0.00  0.00    +0.000 A 
ATOM      7  C   UNL     1       0.757   9.233  19.365  0.00  0.00    +0.000 A 
ENDROOT
BRANCH   5   8
ATOM      8  C   UNL     1       3.272   6.679  18.040  0.00  0.00    +0.000 A 
ATOM      9  N   UNL     1       4.329   7.177  17.416  0.00  0.00    +0.000 NA
ATOM     10  C   UNL     1       4.924   6.133  16.757  0.00  0.00    +0.000 A 
ATOM     11  C   UNL     1       6.081   6.128  15.968  0.00  0.00    +0.000 A 
ATOM     12  C   UNL     1       6.491   4.915  15.416  0.00  0.00    +0.000 A 
ATOM     13  F   UNL     1       7.598   4.884  14.662  0.00  0.00    +0.000 F 
ATOM     14  C   UNL     1       5.789   3.734  15.633  0.00  0.00    +0.000 A 
ATOM     15  C   UNL     1       4.631   3.725  16.415  0.00  0.00    +0.000 A 
ATOM     16  C   UNL     1       4.225   4.952  16.964  0.00  0.00    +0.000 A 
ATOM     17  N   UNL     1       3.178   5.317  17.784  0.00  0.00    +0.000 N 
ATOM     18  C   UNL     1       2.225   4.395  18.353  0.00  0.00    +0.000 C 
ENDBRANCH   5   8
BRANCH   7  19
ATOM     19  N   UNL     1      -0.030  10.308  18.853  0.00  0.00    +0.000 N 
ATOM     20  C   UNL     1       0.258  11.678  18.981  0.00  0.00    +0.000 C 
ATOM     21  O   UNL     1       1.335  12.140  19.350  0.00  0.00    +0.000 OA
ATOM     22  H   UNL     1      -0.827  10.049  18.286  0.00  0.00    +0.000 HD
BRANCH  20  23
ATOM     23  C   UNL     1      -0.924  12.603  18.619  0.00  0.00    +0.000 C 
ATOM     24  C   UNL     1      -1.481  13.344  19.844  0.00  0.00    +0.000 C 
ATOM     25  C   UNL     1      -2.818  12.821  20.362  0.00  0.00    +0.000 C 
ATOM     26  N   UNL     1      -3.788  12.687  19.285  0.00  0.00    +0.000 NA
ATOM     27  C   UNL     1      -3.354  11.627  18.385  0.00  0.00    +0.000 C 
ATOM     28  C   UNL     1      -2.004  11.930  17.731  0.00  0.00    +0.000 C 
ATOM     29  H   UNL     1      -3.876  13.566  18.774  0.00  0.00    +0.000 HD
ENDBRANCH  20  23
ENDBRANCH   7  19
TORSDOF 3
ENDMDL
MODEL 2
REMARK VINA RESULT:      -8.0      0.952      1.313
REMARK  Name = 
REMARK  5 active torsions:
REMARK  status: ('A' for Active; 'I' for Inactive)
REMARK    1  A    between atoms: C_1  and  C_2
REMARK    2  A    between atoms: C_5  and  C_6
REMARK    3  A    between atoms: N_15  and  C_16
REMARK    4  A    between atoms: C_18  and  N_19
REMARK    5  A    between atoms: C_20  and  C_22
REMARK                            x       y       z     vdW  Elec       q    Type
REMARK                         _______ _______ _______ _____ _____    ______ ____
ROOT
ATOM      1  C   UNL     1      -0.325   9.705  21.716  0.00  0.00    +0.000 C 
ATOM      2  C   UNL     1       0.593   9.052  20.722  0.00  0.00    +0.000 A 
ATOM      3  C   UNL     1       1.297   7.910  21.166  0.00  0.00    +0.000 A 
ATOM      4  C   UNL     1       2.134   7.198  20.311  0.00  0.00    +0.000 A 
ATOM      5  C   UNL     1       2.321   7.621  18.997  0.00  0.00    +0.000 A 
ATOM      6  C   UNL     1       1.689   8.805  18.587  0.00  0.00    +0.000 A 
ATOM      7  C   UNL     1       0.782   9.506  19.395  0.00  0.00    +0.000 A 
ENDROOT
BRANCH   5   8
ATOM      8  C   UNL     1       3.164   6.813  18.100  0.00  0.00    +0.000 A 
ATOM      9  N   UNL     1       4.229   7.284  17.470  0.00  0.00    +0.000 NA
ATOM     10  C   UNL     1       4.810   6.220  16.831  0.00  0.00    +0.000 A 
ATOM     11  C   UNL     1       5.968   6.183  16.045  0.00  0.00    +0.000 A 
ATOM     12  C   UNL     1       6.360   4.955  15.515  0.00  0.00    +0.000 A 
ATOM     13  F   UNL     1       7.468   4.893  14.764  0.00  0.00    +0.000 F 
ATOM     14  C   UNL     1       5.640   3.789  15.750  0.00  0.00    +0.000 A 
ATOM     15  C   UNL     1       4.479   3.811  16.530  0.00  0.00    +0.000 A 
ATOM     16  C   UNL     1       4.092   5.053  17.057  0.00  0.00    +0.000 A 
ATOM     17  N   UNL     1       3.048   5.448  17.868  0.00  0.00    +0.000 N 
ATOM     18  C   UNL     1       2.081   4.551  18.450  0.00  0.00    +0.000 C 
ENDBRANCH   5   8
BRANCH   7  19
ATOM     19  N   UNL     1       0.114  10.662  18.889  0.00  0.00    +0.000 N 
ATOM     20  C   UNL     1       0.503  11.998  19.094  0.00  0.00    +0.000 C 
ATOM     21  O   UNL     1       1.590  12.354  19.541  0.00  0.00    +0.000 OA
ATOM     22  H   UNL     1      -0.667  10.493  18.269  0.00  0.00    +0.000 HD
BRANCH  20  23
ATOM     23  C   UNL     1      -0.578  13.031  18.708  0.00  0.00    +0.000 C 
ATOM     24  C   UNL     1      -0.016  14.458  18.621  0.00  0.00    +0.000 C 
ATOM     25  C   UNL     1      -0.395  15.374  19.780  0.00  0.00    +0.000 C 
ATOM     26  N   UNL     1      -1.827  15.338  20.037  0.00  0.00    +0.000 NA
ATOM     27  C   UNL     1      -2.187  14.018  20.539  0.00  0.00    +0.000 C 
ATOM     28  C   UNL     1      -1.890  12.908  19.528  0.00  0.00    +0.000 C 
ATOM     29  H   UNL     1      -2.348  15.543  19.184  0.00  0.00    +0.000 HD
ENDBRANCH  20  23
ENDBRANCH   7  19
TORSDOF 3
ENDMDL
MODEL 3
REMARK VINA RESULT:      -8.0      3.874      8.853
REMARK  Name = 
REMARK  5 active torsions:
REMARK  status: ('A' for Active; 'I' for Inactive)
REMARK    1  A    between atoms: C_1  and  C_2
REMARK    2  A    between atoms: C_5  and  C_6
REMARK    3  A    between atoms: N_15  and  C_16
REMARK    4  A    between atoms: C_18  and  N_19
REMARK    5  A    between atoms: C_20  and  C_22
REMARK                            x       y       z     vdW  Elec       q    Type
REMARK                         _______ _______ _______ _____ _____    ______ ____
ROOT
ATOM      1  C   UNL     1       3.699   2.900  19.821  0.00  0.00    +0.000 C 
ATOM      2  C   UNL     1       3.064   4.256  19.945  0.00  0.00    +0.000 A 
ATOM      3  C   UNL     1       1.954   4.357  20.813  0.00  0.00    +0.000 A 
ATOM      4  C   UNL     1       1.323   5.577  21.041  0.00  0.00    +0.000 A 
ATOM      5  C   UNL     1       1.757   6.727  20.386  0.00  0.00    +0.000 A 
ATOM      6  C   UNL     1       2.803   6.605  19.458  0.00  0.00    +0.000 A 
ATOM      7  C   UNL     1       3.510   5.410  19.258  0.00  0.00    +0.000 A 
ENDROOT
BRANCH   5   8
ATOM      8  C   UNL     1       1.109   8.012  20.694  0.00  0.00    +0.000 A 
ATOM      9  N   UNL     1       0.585   8.308  21.874  0.00  0.00    +0.000 NA
ATOM     10  C   UNL     1       0.184   9.617  21.809  0.00  0.00    +0.000 A 
ATOM     11  C   UNL     1      -0.412  10.411  22.796  0.00  0.00    +0.000 A 
ATOM     12  C   UNL     1      -0.711  11.734  22.479  0.00  0.00    +0.000 A 
ATOM     13  F   UNL     1      -1.277  12.516  23.410  0.00  0.00    +0.000 F 
ATOM     14  C   UNL     1      -0.431  12.272  21.227  0.00  0.00    +0.000 A 
ATOM     15  C   UNL     1       0.160  11.490  20.230  0.00  0.00    +0.000 A 
ATOM     16  C   UNL     1       0.455  10.158  20.559  0.00  0.00    +0.000 A 
ATOM     17  N   UNL     1       1.045   9.124  19.863  0.00  0.00    +0.000 N 
ATOM     18  C   UNL     1       1.592   9.241  18.533  0.00  0.00    +0.000 C 
ENDBRANCH   5   8
BRANCH   7  19
ATOM     19  N   UNL     1       4.616   5.373  18.354  0.00  0.00    +0.000 N 
ATOM     20  C   UNL     1       5.975   5.434  18.708  0.00  0.00    +0.000 C 
ATOM     21  O   UNL     1       6.413   5.301  19.848  0.00  0.00    +0.000 OA
ATOM     22  H   UNL     1       4.392   5.214  17.380  0.00  0.00    +0.000 HD
BRANCH  20  23
ATOM     23  C   UNL     1       6.920   5.700  17.516  0.00  0.00    +0.000 C 
ATOM     24  C   UNL     1       6.375   6.779  16.569  0.00  0.00    +0.000 C 
ATOM     25  C   UNL     1       5.817   6.259  15.248  0.00  0.00    +0.000 C 
ATOM     26  N   UNL     1       6.750   5.349  14.600  0.00  0.00    +0.000 NA
ATOM     27  C   UNL     1       6.866   4.137  15.402  0.00  0.00    +0.000 C 
ATOM     28  C   UNL     1       7.415   4.413  16.803  0.00  0.00    +0.000 C 
ATOM     29  H   UNL     1       7.665   5.790  14.499  0.00  0.00    +0.000 HD
ENDBRANCH  20  23
ENDBRANCH   7  19
TORSDOF 3
ENDMDL
MODEL 4
REMARK VINA RESULT:      -8.0      3.942      9.006
REMARK  Name = 
REMARK  5 active torsions:
REMARK  status: ('A' for Active; 'I' for Inactive)
REMARK    1  A    between atoms: C_1  and  C_2
REMARK    2  A    between atoms: C_5  and  C_6
REMARK    3  A    between atoms: N_15  and  C_16
REMARK    4  A    between atoms: C_18  and  N_19
REMARK    5  A    between atoms: C_20  and  C_22
REMARK                            x       y       z     vdW  Elec       q    Type
REMARK                         _______ _______ _______ _____ _____    ______ ____
ROOT
ATOM      1  C   UNL     1       4.234   6.546  16.893  0.00  0.00    +0.000 C 
ATOM      2  C   UNL     1       3.270   7.338  17.731  0.00  0.00    +0.000 A 
ATOM      3  C   UNL     1       3.172   8.718  17.449  0.00  0.00    +0.000 A 
ATOM      4  C   UNL     1       2.273   9.534  18.129  0.00  0.00    +0.000 A 
ATOM      5  C   UNL     1       1.468   9.007  19.136  0.00  0.00    +0.000 A 
ATOM      6  C   UNL     1       1.632   7.655  19.474  0.00  0.00    +0.000 A 
ATOM      7  C   UNL     1       2.472   6.786  18.762  0.00  0.00    +0.000 A 
ENDROOT
BRANCH   5   8
ATOM      8  C   UNL     1       0.485   9.881  19.796  0.00  0.00    +0.000 A 
ATOM      9  N   UNL     1       0.617  10.335  21.033  0.00  0.00    +0.000 NA
ATOM     10  C   UNL     1      -0.425  11.198  21.249  0.00  0.00    +0.000 A 
ATOM     11  C   UNL     1      -0.730  11.952  22.389  0.00  0.00    +0.000 A 
ATOM     12  C   UNL     1      -1.852  12.777  22.346  0.00  0.00    +0.000 A 
ATOM     13  F   UNL     1      -2.161  13.513  23.423  0.00  0.00    +0.000 F 
ATOM     14  C   UNL     1      -2.658  12.866  21.216  0.00  0.00    +0.000 A 
ATOM     15  C   UNL     1      -2.369  12.116  20.072  0.00  0.00    +0.000 A 
ATOM     16  C   UNL     1      -1.237  11.287  20.126  0.00  0.00    +0.000 A 
ATOM     17  N   UNL     1      -0.643  10.444  19.210  0.00  0.00    +0.000 N 
ATOM     18  C   UNL     1      -1.080  10.281  17.845  0.00  0.00    +0.000 C 
ENDBRANCH   5   8
BRANCH   7  19
ATOM     19  N   UNL     1       2.535   5.402  19.109  0.00  0.00    +0.000 N 
ATOM     20  C   UNL     1       1.826   4.361  18.485  0.00  0.00    +0.000 C 
ATOM     21  O   UNL     1       1.229   4.456  17.416  0.00  0.00    +0.000 OA
ATOM     22  H   UNL     1       3.208   5.149  19.820  0.00  0.00    +0.000 HD
BRANCH  20  23
ATOM     23  C   UNL     1       1.842   3.033  19.274  0.00  0.00    +0.000 C 
ATOM     24  C   UNL     1       1.133   3.153  20.631  0.00  0.00    +0.000 C 
ATOM     25  C   UNL     1       2.059   3.199  21.843  0.00  0.00    +0.000 C 
ATOM     26  N   UNL     1       3.038   2.123  21.803  0.00  0.00    +0.000 NA
ATOM     27  C   UNL     1       3.951   2.353  20.690  0.00  0.00    +0.000 C 
ATOM     28  C   UNL     1       3.236   2.352  19.337  0.00  0.00    +0.000 C 
ATOM     29  H   UNL     1       2.572   1.221  21.693  0.00  0.00    +0.000 HD
ENDBRANCH  20  23
ENDBRANCH   7  19
TORSDOF 3
ENDMDL
MODEL 5
REMARK VINA RESULT:      -7.9      3.911      8.951
REMARK  Name = 
REMARK  5 active torsions:
REMARK  status: ('A' for Active; 'I' for Inactive)
REMARK    1  A    between atoms: C_1  and  C_2
REMARK    2  A    between atoms: C_5  and  C_6
REMARK    3  A    between atoms: N_15  and  C_16
REMARK    4  A    between atoms: C_18  and  N_19
REMARK    5  A    between atoms: C_20  and  C_22
REMARK                            x       y       z     vdW  Elec       q    Type
REMARK                         _______ _______ _______ _____ _____    ______ ____
ROOT
ATOM      1  C   UNL     1       4.272   6.382  16.824  0.00  0.00    +0.000 C 
ATOM      2  C   UNL     1       3.354   7.205  17.683  0.00  0.00    +0.000 A 
ATOM      3  C   UNL     1       3.286   8.586  17.393  0.00  0.00    +0.000 A 
ATOM      4  C   UNL     1       2.431   9.431  18.093  0.00  0.00    +0.000 A 
ATOM      5  C   UNL     1       1.639   8.933  19.125  0.00  0.00    +0.000 A 
ATOM      6  C   UNL     1       1.775   7.580  19.468  0.00  0.00    +0.000 A 
ATOM      7  C   UNL     1       2.570   6.683  18.739  0.00  0.00    +0.000 A 
ENDROOT
BRANCH   5   8
ATOM      8  C   UNL     1       0.700   9.839  19.806  0.00  0.00    +0.000 A 
ATOM      9  N   UNL     1      -0.191  10.587  19.173  0.00  0.00    +0.000 NA
ATOM     10  C   UNL     1      -0.949  11.197  20.137  0.00  0.00    +0.000 A 
ATOM     11  C   UNL     1      -2.032  12.073  19.991  0.00  0.00    +0.000 A 
ATOM     12  C   UNL     1      -2.650  12.548  21.147  0.00  0.00    +0.000 A 
ATOM     13  F   UNL     1      -3.692  13.382  21.032  0.00  0.00    +0.000 F 
ATOM     14  C   UNL     1      -2.222  12.174  22.416  0.00  0.00    +0.000 A 
ATOM     15  C   UNL     1      -1.140  11.304  22.578  0.00  0.00    +0.000 A 
ATOM     16  C   UNL     1      -0.523  10.834  21.408  0.00  0.00    +0.000 A 
ATOM     17  N   UNL     1       0.526   9.968  21.179  0.00  0.00    +0.000 N 
ATOM     18  C   UNL     1       1.231   9.247  22.210  0.00  0.00    +0.000 C 
ENDBRANCH   5   8
BRANCH   7  19
ATOM     19  N   UNL     1       2.605   5.300  19.094  0.00  0.00    +0.000 N 
ATOM     20  C   UNL     1       1.833   4.278  18.514  0.00  0.00    +0.000 C 
ATOM     21  O   UNL     1       1.190   4.385  17.473  0.00  0.00    +0.000 OA
ATOM     22  H   UNL     1       3.302   5.030  19.776  0.00  0.00    +0.000 HD
BRANCH  20  23
ATOM     23  C   UNL     1       1.843   2.956  19.312  0.00  0.00    +0.000 C 
ATOM     24  C   UNL     1       1.123   3.086  20.663  0.00  0.00    +0.000 C 
ATOM     25  C   UNL     1       2.040   3.141  21.882  0.00  0.00    +0.000 C 
ATOM     26  N   UNL     1       3.019   2.065  21.857  0.00  0.00    +0.000 NA
ATOM     27  C   UNL     1       3.941   2.287  20.750  0.00  0.00    +0.000 C 
ATOM     28  C   UNL     1       3.237   2.276  19.391  0.00  0.00    +0.000 C 
ATOM     29  H   UNL     1       2.555   1.162  21.750  0.00  0.00    +0.000 HD
ENDBRANCH  20  23
ENDBRANCH   7  19
TORSDOF 3
ENDMDL
MODEL 6
REMARK VINA RESULT:      -7.8      2.422      4.375
REMARK  Name = 
REMARK  5 active torsions:
REMARK  status: ('A' for Active; 'I' for Inactive)
REMARK    1  A    between atoms: C_1  and  C_2
REMARK    2  A    between atoms: C_5  and  C_6
REMARK    3  A    between atoms: N_15  and  C_16
REMARK    4  A    between atoms: C_18  and  N_19
REMARK    5  A    between atoms: C_20  and  C_22
REMARK                            x       y       z     vdW  Elec       q    Type
REMARK                         _______ _______ _______ _____ _____    ______ ____
ROOT
ATOM      1  C   UNL     1       2.120   3.907  21.461  0.00  0.00    +0.000 C 
ATOM      2  C   UNL     1       2.979   4.129  20.248  0.00  0.00    +0.000 A 
ATOM      3  C   UNL     1       3.631   2.994  19.718  0.00  0.00    +0.000 A 
ATOM      4  C   UNL     1       4.409   3.078  18.567  0.00  0.00    +0.000 A 
ATOM      5  C   UNL     1       4.588   4.302  17.927  0.00  0.00    +0.000 A 
ATOM      6  C   UNL     1       4.012   5.442  18.507  0.00  0.00    +0.000 A 
ATOM      7  C   UNL     1       3.162   5.385  19.621  0.00  0.00    +0.000 A 
ENDROOT
BRANCH   5   8
ATOM      8  C   UNL     1       5.366   4.347  16.678  0.00  0.00    +0.000 A 
ATOM      9  N   UNL     1       5.020   3.708  15.571  0.00  0.00    +0.000 NA
ATOM     10  C   UNL     1       5.916   4.082  14.605  0.00  0.00    +0.000 A 
ATOM     11  C   UNL     1       5.977   3.702  13.258  0.00  0.00    +0.000 A 
ATOM     12  C   UNL     1       6.991   4.244  12.471  0.00  0.00    +0.000 A 
ATOM     13  F   UNL     1       7.066   3.900  11.177  0.00  0.00    +0.000 F 
ATOM     14  C   UNL     1       7.923   5.139  12.985  0.00  0.00    +0.000 A 
ATOM     15  C   UNL     1       7.877   5.524  14.328  0.00  0.00    +0.000 A 
ATOM     16  C   UNL     1       6.854   4.971  15.113  0.00  0.00    +0.000 A 
ATOM     17  N   UNL     1       6.488   5.130  16.434  0.00  0.00    +0.000 N 
ATOM     18  C   UNL     1       7.118   6.048  17.351  0.00  0.00    +0.000 C 
ENDBRANCH   5   8
BRANCH   7  19
ATOM     19  N   UNL     1       2.545   6.574  20.116  0.00  0.00    +0.000 N 
ATOM     20  C   UNL     1       2.088   7.653  19.339  0.00  0.00    +0.000 C 
ATOM     21  O   UNL     1       1.946   7.633  18.119  0.00  0.00    +0.000 OA
ATOM     22  H   UNL     1       2.358   6.602  21.110  0.00  0.00    +0.000 HD
BRANCH  20  23
ATOM     23  C   UNL     1       1.769   8.923  20.158  0.00  0.00    +0.000 C 
ATOM     24  C   UNL     1       1.251   8.594  21.566  0.00  0.00    +0.000 C 
ATOM     25  C   UNL     1      -0.247   8.803  21.769  0.00  0.00    +0.000 C 
ATOM     26  N   UNL     1      -0.667  10.115  21.297  0.00  0.00    +0.000 NA
ATOM     27  C   UNL     1      -0.528  10.164  19.847  0.00  0.00    +0.000 C 
ATOM     28  C   UNL     1       0.921   9.973  19.391  0.00  0.00    +0.000 C 
ATOM     29  H   UNL     1      -0.101  10.847  21.728  0.00  0.00    +0.000 HD
ENDBRANCH  20  23
ENDBRANCH   7  19
TORSDOF 3
ENDMDL
MODEL 7
REMARK VINA RESULT:      -7.8      3.832      8.912
REMARK  Name = 
REMARK  5 active torsions:
REMARK  status: ('A' for Active; 'I' for Inactive)
REMARK    1  A    between atoms: C_1  and  C_2
REMARK    2  A    between atoms: C_5  and  C_6
REMARK    3  A    between atoms: N_15  and  C_16
REMARK    4  A    between atoms: C_18  and  N_19
REMARK    5  A    between atoms: C_20  and  C_22
REMARK                            x       y       z     vdW  Elec       q    Type
REMARK                         _______ _______ _______ _____ _____    ______ ____
ROOT
ATOM      1  C   UNL     1       3.663   2.671  20.052  0.00  0.00    +0.000 C 
ATOM      2  C   UNL     1       3.092   4.062  20.028  0.00  0.00    +0.000 A 
ATOM      3  C   UNL     1       2.059   4.336  20.951  0.00  0.00    +0.000 A 
ATOM      4  C   UNL     1       1.495   5.605  21.049  0.00  0.00    +0.000 A 
ATOM      5  C   UNL     1       1.921   6.631  20.209  0.00  0.00    +0.000 A 
ATOM      6  C   UNL     1       2.885   6.330  19.235  0.00  0.00    +0.000 A 
ATOM      7  C   UNL     1       3.528   5.086  19.155  0.00  0.00    +0.000 A 
ENDROOT
BRANCH   5   8
ATOM      8  C   UNL     1       1.349   7.977  20.378  0.00  0.00    +0.000 A 
ATOM      9  N   UNL     1       0.880   8.438  21.527  0.00  0.00    +0.000 NA
ATOM     10  C   UNL     1       0.545   9.750  21.317  0.00  0.00    +0.000 A 
ATOM     11  C   UNL     1       0.023  10.686  22.218  0.00  0.00    +0.000 A 
ATOM     12  C   UNL     1      -0.220  11.977  21.752  0.00  0.00    +0.000 A 
ATOM     13  F   UNL     1      -0.714  12.893  22.597  0.00  0.00    +0.000 F 
ATOM     14  C   UNL     1       0.045  12.347  20.438  0.00  0.00    +0.000 A 
ATOM     15  C   UNL     1       0.562  11.422  19.526  0.00  0.00    +0.000 A 
ATOM     16  C   UNL     1       0.801  10.124  20.005  0.00  0.00    +0.000 A 
ATOM     17  N   UNL     1       1.314   8.984  19.421  0.00  0.00    +0.000 N 
ATOM     18  C   UNL     1       1.822   8.914  18.073  0.00  0.00    +0.000 C 
ENDBRANCH   5   8
BRANCH   7  19
ATOM     19  N   UNL     1       4.556   4.869  18.188  0.00  0.00    +0.000 N 
ATOM     20  C   UNL     1       4.451   4.076  17.032  0.00  0.00    +0.000 C 
ATOM     21  O   UNL     1       3.399   3.642  16.569  0.00  0.00    +0.000 OA
ATOM     22  H   UNL     1       5.410   5.396  18.317  0.00  0.00    +0.000 HD
BRANCH  20  23
ATOM     23  C   UNL     1       5.806   3.769  16.358  0.00  0.00    +0.000 C 
ATOM     24  C   UNL     1       6.953   4.604  16.948  0.00  0.00    +0.000 C 
ATOM     25  C   UNL     1       7.443   5.746  16.063  0.00  0.00    +0.000 C 
ATOM     26  N   UNL     1       7.707   5.288  14.707  0.00  0.00    +0.000 NA
ATOM     27  C   UNL     1       6.448   4.911  14.079  0.00  0.00    +0.000 C 
ATOM     28  C   UNL     1       5.753   3.758  14.807  0.00  0.00    +0.000 C 
ATOM     29  H   UNL     1       8.346   4.492  14.717  0.00  0.00    +0.000 HD
ENDBRANCH  20  23
ENDBRANCH   7  19
TORSDOF 3
ENDMDL
MODEL 8
REMARK VINA RESULT:      -7.7      3.768      8.822
REMARK  Name = 
REMARK  5 active torsions:
REMARK  status: ('A' for Active; 'I' for Inactive)
REMARK    1  A    between atoms: C_1  and  C_2
REMARK    2  A    between atoms: C_5  and  C_6
REMARK    3  A    between atoms: N_15  and  C_16
REMARK    4  A    between atoms: C_18  and  N_19
REMARK    5  A    between atoms: C_20  and  C_22
REMARK                            x       y       z     vdW  Elec       q    Type
REMARK                         _______ _______ _______ _____ _____    ______ ____
ROOT
ATOM      1  C   UNL     1       4.857   6.405  17.310  0.00  0.00    +0.000 C 
ATOM      2  C   UNL     1       3.661   7.217  17.718  0.00  0.00    +0.000 A 
ATOM      3  C   UNL     1       3.643   8.568  17.306  0.00  0.00    +0.000 A 
ATOM      4  C   UNL     1       2.560   9.396  17.586  0.00  0.00    +0.000 A 
ATOM      5  C   UNL     1       1.475   8.912  18.313  0.00  0.00    +0.000 A 
ATOM      6  C   UNL     1       1.536   7.596  18.796  0.00  0.00    +0.000 A 
ATOM      7  C   UNL     1       2.575   6.712  18.472  0.00  0.00    +0.000 A 
ENDROOT
BRANCH   5   8
ATOM      8  C   UNL     1       0.318   9.793  18.540  0.00  0.00    +0.000 A 
ATOM      9  N   UNL     1      -0.749   9.825  17.756  0.00  0.00    +0.000 NA
ATOM     10  C   UNL     1      -1.648  10.672  18.348  0.00  0.00    +0.000 A 
ATOM     11  C   UNL     1      -2.934  11.033  17.929  0.00  0.00    +0.000 A 
ATOM     12  C   UNL     1      -3.661  11.912  18.731  0.00  0.00    +0.000 A 
ATOM     13  F   UNL     1      -4.897  12.268  18.353  0.00  0.00    +0.000 F 
ATOM     14  C   UNL     1      -3.145  12.424  19.916  0.00  0.00    +0.000 A 
ATOM     15  C   UNL     1      -1.861  12.076  20.345  0.00  0.00    +0.000 A 
ATOM     16  C   UNL     1      -1.137  11.192  19.530  0.00  0.00    +0.000 A 
ATOM     17  N   UNL     1       0.115  10.621  19.638  0.00  0.00    +0.000 N 
ATOM     18  C   UNL     1       0.995  10.789  20.768  0.00  0.00    +0.000 C 
ENDBRANCH   5   8
BRANCH   7  19
ATOM     19  N   UNL     1       2.539   5.361  18.933  0.00  0.00    +0.000 N 
ATOM     20  C   UNL     1       1.771   4.319  18.383  0.00  0.00    +0.000 C 
ATOM     21  O   UNL     1       1.200   4.364  17.296  0.00  0.00    +0.000 OA
ATOM     22  H   UNL     1       3.182   5.124  19.678  0.00  0.00    +0.000 HD
BRANCH  20  23
ATOM     23  C   UNL     1       1.685   3.064  19.278  0.00  0.00    +0.000 C 
ATOM     24  C   UNL     1       1.091   3.375  20.661  0.00  0.00    +0.000 C 
ATOM     25  C   UNL     1       2.098   3.399  21.806  0.00  0.00    +0.000 C 
ATOM     26  N   UNL     1       2.937   2.210  21.799  0.00  0.00    +0.000 NA
ATOM     27  C   UNL     1       3.791   2.239  20.618  0.00  0.00    +0.000 C 
ATOM     28  C   UNL     1       2.988   2.223  19.315  0.00  0.00    +0.000 C 
ATOM     29  H   UNL     1       2.361   1.367  21.794  0.00  0.00    +0.000 HD
ENDBRANCH  20  23
ENDBRANCH   7  19
TORSDOF 3
ENDMDL
MODEL 9
REMARK VINA RESULT:      -7.7      3.657      8.973
REMARK  Name = 
REMARK  5 active torsions:
REMARK  status: ('A' for Active; 'I' for Inactive)
REMARK    1  A    between atoms: C_1  and  C_2
REMARK    2  A    between atoms: C_5  and  C_6
REMARK    3  A    between atoms: N_15  and  C_16
REMARK    4  A    between atoms: C_18  and  N_19
REMARK    5  A    between atoms: C_20  and  C_22
REMARK                            x       y       z     vdW  Elec       q    Type
REMARK                         _______ _______ _______ _____ _____    ______ ____
ROOT
ATOM      1  C   UNL     1       3.534   3.462  19.590  0.00  0.00    +0.000 C 
ATOM      2  C   UNL     1       2.857   4.785  19.811  0.00  0.00    +0.000 A 
ATOM      3  C   UNL     1       1.658   4.765  20.559  0.00  0.00    +0.000 A 
ATOM      4  C   UNL     1       0.977   5.940  20.866  0.00  0.00    +0.000 A 
ATOM      5  C   UNL     1       1.451   7.167  20.409  0.00  0.00    +0.000 A 
ATOM      6  C   UNL     1       2.592   7.173  19.593  0.00  0.00    +0.000 A 
ATOM      7  C   UNL     1       3.345   6.021  19.324  0.00  0.00    +0.000 A 
ENDROOT
BRANCH   5   8
ATOM      8  C   UNL     1       0.743   8.397  20.801  0.00  0.00    +0.000 A 
ATOM      9  N   UNL     1       0.269   8.617  22.018  0.00  0.00    +0.000 NA
ATOM     10  C   UNL     1      -0.214   9.899  22.025  0.00  0.00    +0.000 A 
ATOM     11  C   UNL     1      -0.802  10.619  23.073  0.00  0.00    +0.000 A 
ATOM     12  C   UNL     1      -1.200  11.931  22.824  0.00  0.00    +0.000 A 
ATOM     13  F   UNL     1      -1.759  12.641  23.813  0.00  0.00    +0.000 F 
ATOM     14  C   UNL     1      -1.025  12.528  21.580  0.00  0.00    +0.000 A 
ATOM     15  C   UNL     1      -0.444  11.821  20.523  0.00  0.00    +0.000 A 
ATOM     16  C   UNL     1      -0.049  10.500  20.785  0.00  0.00    +0.000 A 
ATOM     17  N   UNL     1       0.563   9.530  20.017  0.00  0.00    +0.000 N 
ATOM     18  C   UNL     1       1.026   9.729  18.666  0.00  0.00    +0.000 C 
ENDBRANCH   5   8
BRANCH   7  19
ATOM     19  N   UNL     1       4.541   6.108  18.549  0.00  0.00    +0.000 N 
ATOM     20  C   UNL     1       4.674   6.749  17.304  0.00  0.00    +0.000 C 
ATOM     21  O   UNL     1       3.848   7.514  16.813  0.00  0.00    +0.000 OA
ATOM     22  H   UNL     1       5.380   5.736  18.975  0.00  0.00    +0.000 HD
BRANCH  20  23
ATOM     23  C   UNL     1       5.983   6.404  16.560  0.00  0.00    +0.000 C 
ATOM     24  C   UNL     1       5.764   5.368  15.447  0.00  0.00    +0.000 C 
ATOM     25  C   UNL     1       6.269   3.963  15.763  0.00  0.00    +0.000 C 
ATOM     26  N   UNL     1       7.638   3.991  16.258  0.00  0.00    +0.000 NA
ATOM     27  C   UNL     1       7.659   4.643  17.561  0.00  0.00    +0.000 C 
ATOM     28  C   UNL     1       7.181   6.095  17.497  0.00  0.00    +0.000 C 
ATOM     29  H   UNL     1       8.242   4.493  15.606  0.00  0.00    +0.000 HD
ENDBRANCH  20  23
ENDBRANCH   7  19
TORSDOF 3
ENDMDL
