MODEL 1
REMARK VINA RESULT:      -8.7      0.000      0.000
REMARK  Name = 
REMARK  5 active torsions:
REMARK  status: ('A' for Active; 'I' for Inactive)
REMARK    1  A    between atoms: C_2  and  C_11
REMARK    2  A    between atoms: N_3  and  C_4
REMARK    3  A    between atoms: C_4  and  C_5
REMARK    4  A    between atoms: C_13  and  N_14
REMARK    5  A    between atoms: C_18  and  C_19
REMARK                            x       y       z     vdW  Elec       q    Type
REMARK                         _______ _______ _______ _____ _____    ______ ____
ROOT
ATOM      1  C   UNL     1       1.388   8.613  20.422  0.00  0.00    +0.000 A 
ATOM      2  C   UNL     1       1.581   7.234  20.318  0.00  0.00    +0.000 A 
ATOM      3  C   UNL     1       2.071   6.693  19.131  0.00  0.00    +0.000 A 
ATOM      4  C   UNL     1       2.263   7.581  18.071  0.00  0.00    +0.000 A 
ATOM      5  C   UNL     1       1.994   8.935  18.238  0.00  0.00    +0.000 A 
ATOM      6  N   UNL     1       1.578   9.472  19.393  0.00  0.00    +0.000 NA
ENDROOT
BRANCH   3   7
ATOM      7  N   UNL     1       2.395   5.357  19.020  0.00  0.00    +0.000 N 
ATOM      8  C   UNL     1       2.527   4.437  20.160  0.00  0.00    +0.000 C 
ATOM      9  C   UNL     1       3.864   3.676  20.121  0.00  0.00    +0.000 C 
ATOM     10  O   UNL     1       4.200   3.139  18.831  0.00  0.00    +0.000 OA
ATOM     11  C   UNL     1       4.174   4.142  17.786  0.00  0.00    +0.000 C 
ATOM     12  C   UNL     1       2.750   4.759  17.721  0.00  0.00    +0.000 C 
BRANCH  11  13
ATOM     13  C   UNL     1       5.363   5.102  17.888  0.00  0.00    +0.000 A 
ATOM     14  C   UNL     1       5.362   6.299  17.141  0.00  0.00    +0.000 A 
ATOM     15  C   UNL     1       6.422   7.211  17.224  0.00  0.00    +0.000 A 
ATOM     16  C   UNL     1       7.485   6.948  18.076  0.00  0.00    +0.000 A 
ATOM     17  F   UNL     1       8.494   7.825  18.158  0.00  0.00    +0.000 F 
ATOM     18  C   UNL     1       7.493   5.791  18.841  0.00  0.00    +0.000 A 
ATOM     19  F   UNL     1       8.512   5.543  19.676  0.00  0.00    +0.000 F 
ATOM     20  C   UNL     1       6.446   4.872  18.755  0.00  0.00    +0.000 A 
ENDBRANCH  11  13
ENDBRANCH   3   7
BRANCH   1  22
ATOM     21  O   UNL     1       1.851   9.320  22.648  0.00  0.00    +0.000 OA
ATOM     22  C   UNL     1       1.026   9.223  21.744  0.00  0.00    +0.000 C 
ATOM     23  N   UNL     1      -0.289   9.637  21.874  0.00  0.00    +0.000 N 
ATOM     24  H   UNL     1      -0.966   9.405  21.161  0.00  0.00    +0.000 HD
BRANCH  23  25
ATOM     25  C   UNL     1      -0.804  10.177  23.111  0.00  0.00    +0.000 C 
BRANCH  25  26
ATOM     26  C   UNL     1      -1.376  11.560  22.922  0.00  0.00    +0.000 A 
ATOM     27  C   UNL     1      -2.661  11.871  23.392  0.00  0.00    +0.000 A 
ATOM     28  C   UNL     1      -3.159  13.172  23.291  0.00  0.00    +0.000 A 
ATOM     29  C   UNL     1      -2.378  14.175  22.719  0.00  0.00    +0.000 A 
ATOM     30  C   UNL     1      -1.107  13.876  22.236  0.00  0.00    +0.000 A 
ATOM     31  C   UNL     1      -0.608  12.575  22.333  0.00  0.00    +0.000 A 
ENDBRANCH  25  26
ENDBRANCH  23  25
ENDBRANCH   1  22
TORSDOF 5
ENDMDL
MODEL 2
REMARK VINA RESULT:      -8.5      4.154      9.760
REMARK  Name = 
REMARK  5 active torsions:
REMARK  status: ('A' for Active; 'I' for Inactive)
REMARK    1  A    between atoms: C_2  and  C_11
REMARK    2  A    between atoms: N_3  and  C_4
REMARK    3  A    between atoms: C_4  and  C_5
REMARK    4  A    between atoms: C_13  and  N_14
REMARK    5  A    between atoms: C_18  and  C_19
REMARK                            x       y       z     vdW  Elec       q    Type
REMARK                         _______ _______ _______ _____ _____    ______ ____
ROOT
ATOM      1  C   UNL     1       6.189   5.218  16.567  0.00  0.00    +0.000 A 
ATOM      2  C   UNL     1       5.086   4.552  17.104  0.00  0.00    +0.000 A 
ATOM      3  C   UNL     1       4.966   4.420  18.486  0.00  0.00    +0.000 A 
ATOM      4  C   UNL     1       6.026   4.904  19.256  0.00  0.00    +0.000 A 
ATOM      5  C   UNL     1       7.118   5.506  18.639  0.00  0.00    +0.000 A 
ATOM      6  N   UNL     1       7.214   5.688  17.315  0.00  0.00    +0.000 NA
ENDROOT
BRANCH   3   7
ATOM      7  N   UNL     1       3.838   3.882  19.071  0.00  0.00    +0.000 N 
ATOM      8  C   UNL     1       2.825   3.096  18.350  0.00  0.00    +0.000 C 
ATOM      9  C   UNL     1       1.406   3.637  18.600  0.00  0.00    +0.000 C 
ATOM     10  O   UNL     1       1.120   3.931  19.977  0.00  0.00    +0.000 OA
ATOM     11  C   UNL     1       2.097   4.819  20.572  0.00  0.00    +0.000 C 
ATOM     12  C   UNL     1       3.499   4.156  20.478  0.00  0.00    +0.000 C 
BRANCH  11  13
ATOM     13  C   UNL     1       1.951   6.254  20.057  0.00  0.00    +0.000 A 
ATOM     14  C   UNL     1       1.370   7.238  20.884  0.00  0.00    +0.000 A 
ATOM     15  C   UNL     1       1.239   8.565  20.455  0.00  0.00    +0.000 A 
ATOM     16  C   UNL     1       1.713   8.929  19.203  0.00  0.00    +0.000 A 
ATOM     17  F   UNL     1       1.592  10.201  18.799  0.00  0.00    +0.000 F 
ATOM     18  C   UNL     1       2.314   7.984  18.386  0.00  0.00    +0.000 A 
ATOM     19  F   UNL     1       2.787   8.338  17.182  0.00  0.00    +0.000 F 
ATOM     20  C   UNL     1       2.438   6.658  18.801  0.00  0.00    +0.000 A 
ENDBRANCH  11  13
ENDBRANCH   3   7
BRANCH   1  22
ATOM     21  O   UNL     1       5.425   6.260  14.567  0.00  0.00    +0.000 OA
ATOM     22  C   UNL     1       6.244   5.514  15.096  0.00  0.00    +0.000 C 
ATOM     23  N   UNL     1       7.252   4.877  14.393  0.00  0.00    +0.000 N 
ATOM     24  H   UNL     1       7.808   4.162  14.840  0.00  0.00    +0.000 HD
BRANCH  23  25
ATOM     25  C   UNL     1       7.387   5.007  12.960  0.00  0.00    +0.000 C 
BRANCH  25  26
ATOM     26  C   UNL     1       6.823   3.810  12.234  0.00  0.00    +0.000 A 
ATOM     27  C   UNL     1       7.677   2.873  11.634  0.00  0.00    +0.000 A 
ATOM     28  C   UNL     1       7.160   1.724  11.033  0.00  0.00    +0.000 A 
ATOM     29  C   UNL     1       5.785   1.499  11.026  0.00  0.00    +0.000 A 
ATOM     30  C   UNL     1       4.925   2.429  11.606  0.00  0.00    +0.000 A 
ATOM     31  C   UNL     1       5.440   3.580  12.204  0.00  0.00    +0.000 A 
ENDBRANCH  25  26
ENDBRANCH  23  25
ENDBRANCH   1  22
TORSDOF 5
ENDMDL
MODEL 3
REMARK VINA RESULT:      -8.5      4.263      7.671
REMARK  Name = 
REMARK  5 active torsions:
REMARK  status: ('A' for Active; 'I' for Inactive)
REMARK    1  A    between atoms: C_2  and  C_11
REMARK    2  A    between atoms: N_3  and  C_4
REMARK    3  A    between atoms: C_4  and  C_5
REMARK    4  A    between atoms: C_13  and  N_14
REMARK    5  A    between atoms: C_18  and  C_19
REMARK                            x       y       z     vdW  Elec       q    Type
REMARK                         _______ _______ _______ _____ _____    ______ ____
ROOT
ATOM      1  C   UNL     1       6.983   6.343  17.562  0.00  0.00    +0.000 A 
ATOM      2  C   UNL     1       5.868   5.745  18.154  0.00  0.00    +0.000 A 
ATOM      3  C   UNL     1       5.037   4.929  17.389  0.00  0.00    +0.000 A 
ATOM      4  C   UNL     1       5.336   4.828  16.029  0.00  0.00    +0.000 A 
ATOM      5  C   UNL     1       6.435   5.502  15.505  0.00  0.00    +0.000 A 
ATOM      6  N   UNL     1       7.273   6.241  16.244  0.00  0.00    +0.000 NA
ENDROOT
BRANCH   3   7
ATOM      7  N   UNL     1       3.998   4.217  17.953  0.00  0.00    +0.000 N 
ATOM      8  C   UNL     1       2.932   3.556  17.184  0.00  0.00    +0.000 C 
ATOM      9  C   UNL     1       1.536   3.954  17.695  0.00  0.00    +0.000 C 
ATOM     10  O   UNL     1       1.400   3.923  19.125  0.00  0.00    +0.000 OA
ATOM     11  C   UNL     1       2.413   4.708  19.799  0.00  0.00    +0.000 C 
ATOM     12  C   UNL     1       3.813   4.157  19.413  0.00  0.00    +0.000 C 
BRANCH  11  13
ATOM     13  C   UNL     1       2.170   6.212  19.636  0.00  0.00    +0.000 A 
ATOM     14  C   UNL     1       2.401   6.827  18.388  0.00  0.00    +0.000 A 
ATOM     15  C   UNL     1       2.169   8.195  18.196  0.00  0.00    +0.000 A 
ATOM     16  C   UNL     1       1.679   8.960  19.245  0.00  0.00    +0.000 A 
ATOM     17  F   UNL     1       1.453  10.267  19.056  0.00  0.00    +0.000 F 
ATOM     18  C   UNL     1       1.417   8.370  20.472  0.00  0.00    +0.000 A 
ATOM     19  F   UNL     1       0.928   9.103  21.482  0.00  0.00    +0.000 F 
ATOM     20  C   UNL     1       1.656   7.009  20.674  0.00  0.00    +0.000 A 
ENDBRANCH  11  13
ENDBRANCH   3   7
BRANCH   1  22
ATOM     21  O   UNL     1       8.571   6.522  19.327  0.00  0.00    +0.000 OA
ATOM     22  C   UNL     1       7.977   7.082  18.411  0.00  0.00    +0.000 C 
ATOM     23  N   UNL     1       8.150   8.421  18.103  0.00  0.00    +0.000 N 
ATOM     24  H   UNL     1       7.535   8.872  17.440  0.00  0.00    +0.000 HD
BRANCH  23  25
ATOM     25  C   UNL     1       9.018   9.279  18.876  0.00  0.00    +0.000 C 
BRANCH  25  26
ATOM     26  C   UNL     1       9.124  10.657  18.272  0.00  0.00    +0.000 A 
ATOM     27  C   UNL     1       7.982  11.317  17.794  0.00  0.00    +0.000 A 
ATOM     28  C   UNL     1       8.067  12.624  17.310  0.00  0.00    +0.000 A 
ATOM     29  C   UNL     1       9.293  13.285  17.299  0.00  0.00    +0.000 A 
ATOM     30  C   UNL     1      10.437  12.636  17.757  0.00  0.00    +0.000 A 
ATOM     31  C   UNL     1      10.355  11.328  18.239  0.00  0.00    +0.000 A 
ENDBRANCH  25  26
ENDBRANCH  23  25
ENDBRANCH   1  22
TORSDOF 5
ENDMDL
MODEL 4
REMARK VINA RESULT:      -8.4      4.302      9.828
REMARK  Name = 
REMARK  5 active torsions:
REMARK  status: ('A' for Active; 'I' for Inactive)
REMARK    1  A    between atoms: C_2  and  C_11
REMARK    2  A    between atoms: N_3  and  C_4
REMARK    3  A    between atoms: C_4  and  C_5
REMARK    4  A    between atoms: C_13  and  N_14
REMARK    5  A    between atoms: C_18  and  C_19
REMARK                            x       y       z     vdW  Elec       q    Type
REMARK                         _______ _______ _______ _____ _____    ______ ____
ROOT
ATOM      1  C   UNL     1       6.287   5.184  16.546  0.00  0.00    +0.000 A 
ATOM      2  C   UNL     1       5.149   4.601  17.107  0.00  0.00    +0.000 A 
ATOM      3  C   UNL     1       5.047   4.480  18.491  0.00  0.00    +0.000 A 
ATOM      4  C   UNL     1       6.154   4.887  19.239  0.00  0.00    +0.000 A 
ATOM      5  C   UNL     1       7.274   5.408  18.599  0.00  0.00    +0.000 A 
ATOM      6  N   UNL     1       7.358   5.581  17.273  0.00  0.00    +0.000 NA
ENDROOT
BRANCH   3   7
ATOM      7  N   UNL     1       3.895   4.026  19.099  0.00  0.00    +0.000 N 
ATOM      8  C   UNL     1       2.878   3.197  18.434  0.00  0.00    +0.000 C 
ATOM      9  C   UNL     1       1.468   3.791  18.600  0.00  0.00    +0.000 C 
ATOM     10  O   UNL     1       1.162   4.221  19.937  0.00  0.00    +0.000 OA
ATOM     11  C   UNL     1       2.148   5.140  20.466  0.00  0.00    +0.000 C 
ATOM     12  C   UNL     1       3.535   4.440  20.466  0.00  0.00    +0.000 C 
BRANCH  11  13
ATOM     13  C   UNL     1       2.048   6.522  19.814  0.00  0.00    +0.000 A 
ATOM     14  C   UNL     1       2.451   6.694  18.473  0.00  0.00    +0.000 A 
ATOM     15  C   UNL     1       2.354   7.938  17.837  0.00  0.00    +0.000 A 
ATOM     16  C   UNL     1       1.828   9.020  18.528  0.00  0.00    +0.000 A 
ATOM     17  F   UNL     1       1.730  10.207  17.914  0.00  0.00    +0.000 F 
ATOM     18  C   UNL     1       1.398   8.867  19.837  0.00  0.00    +0.000 A 
ATOM     19  F   UNL     1       0.875   9.907  20.501  0.00  0.00    +0.000 F 
ATOM     20  C   UNL     1       1.502   7.633  20.481  0.00  0.00    +0.000 A 
ENDBRANCH  11  13
ENDBRANCH   3   7
BRANCH   1  22
ATOM     21  O   UNL     1       5.529   6.239  14.551  0.00  0.00    +0.000 OA
ATOM     22  C   UNL     1       6.334   5.474  15.074  0.00  0.00    +0.000 C 
ATOM     23  N   UNL     1       7.318   4.809  14.363  0.00  0.00    +0.000 N 
ATOM     24  H   UNL     1       7.860   4.081  14.807  0.00  0.00    +0.000 HD
BRANCH  23  25
ATOM     25  C   UNL     1       7.441   4.930  12.928  0.00  0.00    +0.000 C 
BRANCH  25  26
ATOM     26  C   UNL     1       6.859   3.736  12.214  0.00  0.00    +0.000 A 
ATOM     27  C   UNL     1       7.698   2.767  11.644  0.00  0.00    +0.000 A 
ATOM     28  C   UNL     1       7.160   1.621  11.054  0.00  0.00    +0.000 A 
ATOM     29  C   UNL     1       5.780   1.432  11.028  0.00  0.00    +0.000 A 
ATOM     30  C   UNL     1       4.936   2.393  11.577  0.00  0.00    +0.000 A 
ATOM     31  C   UNL     1       5.471   3.541  12.165  0.00  0.00    +0.000 A 
ENDBRANCH  25  26
ENDBRANCH  23  25
ENDBRANCH   1  22
TORSDOF 5
ENDMDL
MODEL 5
REMARK VINA RESULT:      -8.4      4.123      7.631
REMARK  Name = 
REMARK  5 active torsions:
REMARK  status: ('A' for Active; 'I' for Inactive)
REMARK    1  A    between atoms: C_2  and  C_11
REMARK    2  A    between atoms: N_3  and  C_4
REMARK    3  A    between atoms: C_4  and  C_5
REMARK    4  A    between atoms: C_13  and  N_14
REMARK    5  A    between atoms: C_18  and  C_19
REMARK                            x       y       z     vdW  Elec       q    Type
REMARK                         _______ _______ _______ _____ _____    ______ ____
ROOT
ATOM      1  C   UNL     1       6.896   6.231  17.574  0.00  0.00    +0.000 A 
ATOM      2  C   UNL     1       5.804   5.616  18.190  0.00  0.00    +0.000 A 
ATOM      3  C   UNL     1       4.934   4.835  17.432  0.00  0.00    +0.000 A 
ATOM      4  C   UNL     1       5.173   4.786  16.057  0.00  0.00    +0.000 A 
ATOM      5  C   UNL     1       6.253   5.474  15.512  0.00  0.00    +0.000 A 
ATOM      6  N   UNL     1       7.127   6.179  16.242  0.00  0.00    +0.000 NA
ENDROOT
BRANCH   3   7
ATOM      7  N   UNL     1       3.915   4.108  18.012  0.00  0.00    +0.000 N 
ATOM      8  C   UNL     1       2.855   3.420  17.260  0.00  0.00    +0.000 C 
ATOM      9  C   UNL     1       1.457   3.794  17.783  0.00  0.00    +0.000 C 
ATOM     10  O   UNL     1       1.336   3.771  19.215  0.00  0.00    +0.000 OA
ATOM     11  C   UNL     1       2.341   4.582  19.871  0.00  0.00    +0.000 C 
ATOM     12  C   UNL     1       3.747   4.055  19.474  0.00  0.00    +0.000 C 
BRANCH  11  13
ATOM     13  C   UNL     1       2.066   6.080  19.699  0.00  0.00    +0.000 A 
ATOM     14  C   UNL     1       1.582   6.831  20.790  0.00  0.00    +0.000 A 
ATOM     15  C   UNL     1       1.339   8.206  20.677  0.00  0.00    +0.000 A 
ATOM     16  C   UNL     1       1.602   8.851  19.477  0.00  0.00    +0.000 A 
ATOM     17  F   UNL     1       1.375  10.167  19.374  0.00  0.00    +0.000 F 
ATOM     18  C   UNL     1       2.106   8.136  18.401  0.00  0.00    +0.000 A 
ATOM     19  F   UNL     1       2.377   8.760  17.245  0.00  0.00    +0.000 F 
ATOM     20  C   UNL     1       2.340   6.764  18.502  0.00  0.00    +0.000 A 
ENDBRANCH  11  13
ENDBRANCH   3   7
BRANCH   1  22
ATOM     21  O   UNL     1       8.531   6.342  19.301  0.00  0.00    +0.000 OA
ATOM     22  C   UNL     1       7.931   6.930  18.407  0.00  0.00    +0.000 C 
ATOM     23  N   UNL     1       8.135   8.267  18.111  0.00  0.00    +0.000 N 
ATOM     24  H   UNL     1       7.518   8.744  17.469  0.00  0.00    +0.000 HD
BRANCH  23  25
ATOM     25  C   UNL     1       9.046   9.090  18.873  0.00  0.00    +0.000 C 
BRANCH  25  26
ATOM     26  C   UNL     1       9.024  10.525  18.409  0.00  0.00    +0.000 A 
ATOM     27  C   UNL     1      10.144  11.350  18.589  0.00  0.00    +0.000 A 
ATOM     28  C   UNL     1      10.155  12.654  18.088  0.00  0.00    +0.000 A 
ATOM     29  C   UNL     1       9.046  13.146  17.401  0.00  0.00    +0.000 A 
ATOM     30  C   UNL     1       7.923  12.342  17.228  0.00  0.00    +0.000 A 
ATOM     31  C   UNL     1       7.909  11.039  17.731  0.00  0.00    +0.000 A 
ENDBRANCH  25  26
ENDBRANCH  23  25
ENDBRANCH   1  22
TORSDOF 5
ENDMDL
MODEL 6
REMARK VINA RESULT:      -8.4      2.738      3.312
REMARK  Name = 
REMARK  5 active torsions:
REMARK  status: ('A' for Active; 'I' for Inactive)
REMARK    1  A    between atoms: C_2  and  C_11
REMARK    2  A    between atoms: N_3  and  C_4
REMARK    3  A    between atoms: C_4  and  C_5
REMARK    4  A    between atoms: C_13  and  N_14
REMARK    5  A    between atoms: C_18  and  C_19
REMARK                            x       y       z     vdW  Elec       q    Type
REMARK                         _______ _______ _______ _____ _____    ______ ____
ROOT
ATOM      1  C   UNL     1       1.632   8.298  19.231  0.00  0.00    +0.000 A 
ATOM      2  C   UNL     1       2.142   7.156  18.609  0.00  0.00    +0.000 A 
ATOM      3  C   UNL     1       2.328   5.991  19.350  0.00  0.00    +0.000 A 
ATOM      4  C   UNL     1       2.062   6.070  20.718  0.00  0.00    +0.000 A 
ATOM      5  C   UNL     1       1.609   7.263  21.273  0.00  0.00    +0.000 A 
ATOM      6  N   UNL     1       1.372   8.370  20.557  0.00  0.00    +0.000 NA
ENDROOT
BRANCH   3   7
ATOM      7  N   UNL     1       2.711   4.805  18.758  0.00  0.00    +0.000 N 
ATOM      8  C   UNL     1       2.960   3.555  19.491  0.00  0.00    +0.000 C 
ATOM      9  C   UNL     1       4.327   2.950  19.128  0.00  0.00    +0.000 C 
ATOM     10  O   UNL     1       4.607   2.926  17.718  0.00  0.00    +0.000 OA
ATOM     11  C   UNL     1       4.466   4.228  17.100  0.00  0.00    +0.000 C 
ATOM     12  C   UNL     1       3.012   4.729  17.318  0.00  0.00    +0.000 C 
BRANCH  11  13
ATOM     13  C   UNL     1       5.610   5.170  17.487  0.00  0.00    +0.000 A 
ATOM     14  C   UNL     1       5.653   6.475  16.953  0.00  0.00    +0.000 A 
ATOM     15  C   UNL     1       6.672   7.371  17.300  0.00  0.00    +0.000 A 
ATOM     16  C   UNL     1       7.647   6.980  18.206  0.00  0.00    +0.000 A 
ATOM     17  F   UNL     1       8.617   7.843  18.540  0.00  0.00    +0.000 F 
ATOM     18  C   UNL     1       7.608   5.712  18.765  0.00  0.00    +0.000 A 
ATOM     19  F   UNL     1       8.541   5.338  19.653  0.00  0.00    +0.000 F 
ATOM     20  C   UNL     1       6.602   4.810  18.416  0.00  0.00    +0.000 A 
ENDBRANCH  11  13
ENDBRANCH   3   7
BRANCH   1  22
ATOM     21  O   UNL     1       1.979   9.877  17.484  0.00  0.00    +0.000 OA
ATOM     22  C   UNL     1       1.268   9.501  18.411  0.00  0.00    +0.000 C 
ATOM     23  N   UNL     1       0.106  10.154  18.787  0.00  0.00    +0.000 N 
ATOM     24  H   UNL     1      -0.365   9.897  19.643  0.00  0.00    +0.000 HD
BRANCH  23  25
ATOM     25  C   UNL     1      -0.334  11.368  18.139  0.00  0.00    +0.000 C 
BRANCH  25  26
ATOM     26  C   UNL     1      -1.807  11.326  17.815  0.00  0.00    +0.000 A 
ATOM     27  C   UNL     1      -2.259  10.740  16.624  0.00  0.00    +0.000 A 
ATOM     28  C   UNL     1      -3.626  10.628  16.361  0.00  0.00    +0.000 A 
ATOM     29  C   UNL     1      -4.555  11.099  17.286  0.00  0.00    +0.000 A 
ATOM     30  C   UNL     1      -4.119  11.696  18.467  0.00  0.00    +0.000 A 
ATOM     31  C   UNL     1      -2.753  11.812  18.730  0.00  0.00    +0.000 A 
ENDBRANCH  25  26
ENDBRANCH  23  25
ENDBRANCH   1  22
TORSDOF 5
ENDMDL
MODEL 7
REMARK VINA RESULT:      -8.3      0.529      1.209
REMARK  Name = 
REMARK  5 active torsions:
REMARK  status: ('A' for Active; 'I' for Inactive)
REMARK    1  A    between atoms: C_2  and  C_11
REMARK    2  A    between atoms: N_3  and  C_4
REMARK    3  A    between atoms: C_4  and  C_5
REMARK    4  A    between atoms: C_13  and  N_14
REMARK    5  A    between atoms: C_18  and  C_19
REMARK                            x       y       z     vdW  Elec       q    Type
REMARK                         _______ _______ _______ _____ _____    ______ ____
ROOT
ATOM      1  C   UNL     1       1.479   8.610  20.350  0.00  0.00    +0.000 A 
ATOM      2  C   UNL     1       1.709   7.238  20.227  0.00  0.00    +0.000 A 
ATOM      3  C   UNL     1       2.210   6.727  19.031  0.00  0.00    +0.000 A 
ATOM      4  C   UNL     1       2.375   7.635  17.983  0.00  0.00    +0.000 A 
ATOM      5  C   UNL     1       2.070   8.979  18.169  0.00  0.00    +0.000 A 
ATOM      6  N   UNL     1       1.643   9.488  19.333  0.00  0.00    +0.000 NA
ENDROOT
BRANCH   3   7
ATOM      7  N   UNL     1       2.571   5.402  18.900  0.00  0.00    +0.000 N 
ATOM      8  C   UNL     1       2.604   4.438  20.010  0.00  0.00    +0.000 C 
ATOM      9  C   UNL     1       3.952   3.700  20.078  0.00  0.00    +0.000 C 
ATOM     10  O   UNL     1       4.429   3.223  18.809  0.00  0.00    +0.000 OA
ATOM     11  C   UNL     1       4.490   4.268  17.808  0.00  0.00    +0.000 C 
ATOM     12  C   UNL     1       3.068   4.865  17.622  0.00  0.00    +0.000 C 
BRANCH  11  13
ATOM     13  C   UNL     1       5.643   5.242  18.070  0.00  0.00    +0.000 A 
ATOM     14  C   UNL     1       6.637   4.910  19.014  0.00  0.00    +0.000 A 
ATOM     15  C   UNL     1       7.718   5.766  19.264  0.00  0.00    +0.000 A 
ATOM     16  C   UNL     1       7.830   6.952  18.553  0.00  0.00    +0.000 A 
ATOM     17  F   UNL     1       8.869   7.764  18.791  0.00  0.00    +0.000 F 
ATOM     18  C   UNL     1       6.880   7.283  17.600  0.00  0.00    +0.000 A 
ATOM     19  F   UNL     1       6.996   8.421  16.900  0.00  0.00    +0.000 F 
ATOM     20  C   UNL     1       5.795   6.441  17.352  0.00  0.00    +0.000 A 
ENDBRANCH  11  13
ENDBRANCH   3   7
BRANCH   1  22
ATOM     21  O   UNL     1       1.916   9.255  22.599  0.00  0.00    +0.000 OA
ATOM     22  C   UNL     1       1.104   9.191  21.682  0.00  0.00    +0.000 C 
ATOM     23  N   UNL     1      -0.208   9.618  21.802  0.00  0.00    +0.000 N 
ATOM     24  H   UNL     1      -0.877   9.411  21.074  0.00  0.00    +0.000 HD
BRANCH  23  25
ATOM     25  C   UNL     1      -0.736  10.132  23.045  0.00  0.00    +0.000 C 
BRANCH  25  26
ATOM     26  C   UNL     1      -1.311  11.517  22.877  0.00  0.00    +0.000 A 
ATOM     27  C   UNL     1      -2.586  11.825  23.375  0.00  0.00    +0.000 A 
ATOM     28  C   UNL     1      -3.086  13.126  23.292  0.00  0.00    +0.000 A 
ATOM     29  C   UNL     1      -2.317  14.132  22.711  0.00  0.00    +0.000 A 
ATOM     30  C   UNL     1      -1.056  13.837  22.200  0.00  0.00    +0.000 A 
ATOM     31  C   UNL     1      -0.556  12.536  22.279  0.00  0.00    +0.000 A 
ENDBRANCH  25  26
ENDBRANCH  23  25
ENDBRANCH   1  22
TORSDOF 5
ENDMDL
MODEL 8
REMARK VINA RESULT:      -8.2      2.638      3.335
REMARK  Name = 
REMARK  5 active torsions:
REMARK  status: ('A' for Active; 'I' for Inactive)
REMARK    1  A    between atoms: C_2  and  C_11
REMARK    2  A    between atoms: N_3  and  C_4
REMARK    3  A    between atoms: C_4  and  C_5
REMARK    4  A    between atoms: C_13  and  N_14
REMARK    5  A    between atoms: C_18  and  C_19
REMARK                            x       y       z     vdW  Elec       q    Type
REMARK                         _______ _______ _______ _____ _____    ______ ____
ROOT
ATOM      1  C   UNL     1       1.809   8.344  19.292  0.00  0.00    +0.000 A 
ATOM      2  C   UNL     1       2.315   7.184  18.702  0.00  0.00    +0.000 A 
ATOM      3  C   UNL     1       2.286   5.982  19.407  0.00  0.00    +0.000 A 
ATOM      4  C   UNL     1       1.815   6.038  20.720  0.00  0.00    +0.000 A 
ATOM      5  C   UNL     1       1.379   7.247  21.254  0.00  0.00    +0.000 A 
ATOM      6  N   UNL     1       1.350   8.395  20.564  0.00  0.00    +0.000 NA
ENDROOT
BRANCH   3   7
ATOM      7  N   UNL     1       2.658   4.788  18.825  0.00  0.00    +0.000 N 
ATOM      8  C   UNL     1       2.917   3.547  19.571  0.00  0.00    +0.000 C 
ATOM      9  C   UNL     1       4.278   2.935  19.196  0.00  0.00    +0.000 C 
ATOM     10  O   UNL     1       4.536   2.892  17.783  0.00  0.00    +0.000 OA
ATOM     11  C   UNL     1       4.386   4.185  17.149  0.00  0.00    +0.000 C 
ATOM     12  C   UNL     1       2.937   4.692  17.382  0.00  0.00    +0.000 C 
BRANCH  11  13
ATOM     13  C   UNL     1       5.538   5.131  17.505  0.00  0.00    +0.000 A 
ATOM     14  C   UNL     1       5.571   6.430  16.956  0.00  0.00    +0.000 A 
ATOM     15  C   UNL     1       6.597   7.329  17.274  0.00  0.00    +0.000 A 
ATOM     16  C   UNL     1       7.588   6.949  18.167  0.00  0.00    +0.000 A 
ATOM     17  F   UNL     1       8.563   7.814  18.475  0.00  0.00    +0.000 F 
ATOM     18  C   UNL     1       7.558   5.687  18.742  0.00  0.00    +0.000 A 
ATOM     19  F   UNL     1       8.505   5.323  19.617  0.00  0.00    +0.000 F 
ATOM     20  C   UNL     1       6.546   4.781  18.421  0.00  0.00    +0.000 A 
ENDBRANCH  11  13
ENDBRANCH   3   7
BRANCH   1  22
ATOM     21  O   UNL     1       2.166   9.688  17.359  0.00  0.00    +0.000 OA
ATOM     22  C   UNL     1       1.680   9.602  18.483  0.00  0.00    +0.000 C 
ATOM     23  N   UNL     1       1.005  10.643  19.097  0.00  0.00    +0.000 N 
ATOM     24  H   UNL     1       0.752  10.577  20.073  0.00  0.00    +0.000 HD
BRANCH  23  25
ATOM     25  C   UNL     1       0.863  11.939  18.473  0.00  0.00    +0.000 C 
BRANCH  25  26
ATOM     26  C   UNL     1       1.885  12.922  18.988  0.00  0.00    +0.000 A 
ATOM     27  C   UNL     1       2.081  13.091  20.366  0.00  0.00    +0.000 A 
ATOM     28  C   UNL     1       3.082  13.941  20.843  0.00  0.00    +0.000 A 
ATOM     29  C   UNL     1       3.897  14.630  19.946  0.00  0.00    +0.000 A 
ATOM     30  C   UNL     1       3.703  14.482  18.575  0.00  0.00    +0.000 A 
ATOM     31  C   UNL     1       2.700  13.635  18.097  0.00  0.00    +0.000 A 
ENDBRANCH  25  26
ENDBRANCH  23  25
ENDBRANCH   1  22
TORSDOF 5
ENDMDL
MODEL 9
REMARK VINA RESULT:      -8.2      4.340      9.899
REMARK  Name = 
REMARK  5 active torsions:
REMARK  status: ('A' for Active; 'I' for Inactive)
REMARK    1  A    between atoms: C_2  and  C_11
REMARK    2  A    between atoms: N_3  and  C_4
REMARK    3  A    between atoms: C_4  and  C_5
REMARK    4  A    between atoms: C_13  and  N_14
REMARK    5  A    between atoms: C_18  and  C_19
REMARK                            x       y       z     vdW  Elec       q    Type
REMARK                         _______ _______ _______ _____ _____    ______ ____
ROOT
ATOM      1  C   UNL     1       6.499   4.871  16.525  0.00  0.00    +0.000 A 
ATOM      2  C   UNL     1       5.332   4.324  17.063  0.00  0.00    +0.000 A 
ATOM      3  C   UNL     1       5.121   4.368  18.440  0.00  0.00    +0.000 A 
ATOM      4  C   UNL     1       6.154   4.898  19.215  0.00  0.00    +0.000 A 
ATOM      5  C   UNL     1       7.311   5.373  18.606  0.00  0.00    +0.000 A 
ATOM      6  N   UNL     1       7.497   5.387  17.279  0.00  0.00    +0.000 NA
ENDROOT
BRANCH   3   7
ATOM      7  N   UNL     1       3.933   3.954  19.007  0.00  0.00    +0.000 N 
ATOM      8  C   UNL     1       2.915   3.155  18.309  0.00  0.00    +0.000 C 
ATOM      9  C   UNL     1       1.520   3.795  18.422  0.00  0.00    +0.000 C 
ATOM     10  O   UNL     1       1.180   4.241  19.745  0.00  0.00    +0.000 OA
ATOM     11  C   UNL     1       2.176   5.130  20.306  0.00  0.00    +0.000 C 
ATOM     12  C   UNL     1       3.538   4.385  20.358  0.00  0.00    +0.000 C 
BRANCH  11  13
ATOM     13  C   UNL     1       2.143   6.512  19.646  0.00  0.00    +0.000 A 
ATOM     14  C   UNL     1       2.621   6.668  18.328  0.00  0.00    +0.000 A 
ATOM     15  C   UNL     1       2.588   7.912  17.684  0.00  0.00    +0.000 A 
ATOM     16  C   UNL     1       2.052   9.009  18.343  0.00  0.00    +0.000 A 
ATOM     17  F   UNL     1       2.016  10.196  17.722  0.00  0.00    +0.000 F 
ATOM     18  C   UNL     1       1.551   8.871  19.628  0.00  0.00    +0.000 A 
ATOM     19  F   UNL     1       1.018   9.926  20.261  0.00  0.00    +0.000 F 
ATOM     20  C   UNL     1       1.590   7.638  20.280  0.00  0.00    +0.000 A 
ENDBRANCH  11  13
ENDBRANCH   3   7
BRANCH   1  22
ATOM     21  O   UNL     1       7.677   5.453  14.540  0.00  0.00    +0.000 OA
ATOM     22  C   UNL     1       6.659   4.982  15.037  0.00  0.00    +0.000 C 
ATOM     23  N   UNL     1       5.582   4.545  14.283  0.00  0.00    +0.000 N 
ATOM     24  H   UNL     1       4.712   4.304  14.736  0.00  0.00    +0.000 HD
BRANCH  23  25
ATOM     25  C   UNL     1       5.559   4.656  12.843  0.00  0.00    +0.000 C 
BRANCH  25  26
ATOM     26  C   UNL     1       6.011   3.380  12.177  0.00  0.00    +0.000 A 
ATOM     27  C   UNL     1       5.080   2.392  11.824  0.00  0.00    +0.000 A 
ATOM     28  C   UNL     1       5.487   1.247  11.135  0.00  0.00    +0.000 A 
ATOM     29  C   UNL     1       6.827   1.078  10.792  0.00  0.00    +0.000 A 
ATOM     30  C   UNL     1       7.763   2.045  11.150  0.00  0.00    +0.000 A 
ATOM     31  C   UNL     1       7.359   3.189  11.841  0.00  0.00    +0.000 A 
ENDBRANCH  25  26
ENDBRANCH  23  25
ENDBRANCH   1  22
TORSDOF 5
ENDMDL
