MODEL 1
REMARK VINA RESULT:      -8.5      0.000      0.000
REMARK  Name = 
REMARK  5 active torsions:
REMARK  status: ('A' for Active; 'I' for Inactive)
REMARK    1  A    between atoms: C_1  and  C_2
REMARK    2  A    between atoms: C_2  and  C_3
REMARK    3  A    between atoms: N_7  and  C_8
REMARK    4  A    between atoms: C_8  and  C_9
REMARK    5  A    between atoms: C_21  and  C_22
REMARK                            x       y       z     vdW  Elec       q    Type
REMARK                         _______ _______ _______ _____ _____    ______ ____
ROOT
ATOM      1  C   UNL     1       3.808   5.425  18.712  0.00  0.00    +0.000 A 
ATOM      2  C   UNL     1       4.433   5.645  17.484  0.00  0.00    +0.000 A 
ATOM      3  C   UNL     1       4.242   6.863  16.859  0.00  0.00    +0.000 A 
ATOM      4  N   UNL     1       3.484   7.853  17.372  0.00  0.00    +0.000 NA
ATOM      5  C   UNL     1       2.890   7.667  18.570  0.00  0.00    +0.000 A 
ATOM      6  N   UNL     1       2.057   8.688  19.071  0.00  0.00    +0.000 N 
ATOM      7  C   UNL     1       1.382   8.595  20.350  0.00  0.00    +0.000 C 
ATOM      8  C   UNL     1       0.545   9.828  20.389  0.00  0.00    +0.000 A 
ATOM      9  C   UNL     1       0.730  10.545  19.209  0.00  0.00    +0.000 A 
ATOM     10  C   UNL     1       0.050  11.714  18.932  0.00  0.00    +0.000 A 
ATOM     11  C   UNL     1      -0.850  12.175  19.890  0.00  0.00    +0.000 A 
ATOM     12  C   UNL     1      -1.037  11.470  21.095  0.00  0.00    +0.000 A 
ATOM     13  C   UNL     1      -0.334  10.281  21.369  0.00  0.00    +0.000 A 
ATOM     14  C   UNL     1       1.703   9.836  18.372  0.00  0.00    +0.000 C 
ATOM     15  O   UNL     1       2.042  10.265  17.282  0.00  0.00    +0.000 OA
ATOM     16  C   UNL     1       3.067   6.469  19.270  0.00  0.00    +0.000 A 
ATOM     17  F   UNL     1       2.519   6.271  20.480  0.00  0.00    +0.000 F 
ENDROOT
BRANCH  13  18
ATOM     18  C   UNL     1      -0.541   9.561  22.676  0.00  0.00    +0.000 C 
ATOM     19  F   UNL     1       0.598   9.425  23.413  0.00  0.00    +0.000 F 
ATOM     20  F   UNL     1      -1.427  10.204  23.485  0.00  0.00    +0.000 F 
ATOM     21  F   UNL     1      -1.026   8.301  22.510  0.00  0.00    +0.000 F 
ENDBRANCH  13  18
BRANCH   1  22
ATOM     22  C   UNL     1       3.847   4.087  19.393  0.00  0.00    +0.000 C 
BRANCH  22  27
ATOM     23  C   UNL     1       1.608   2.885  19.467  0.00  0.00    +0.000 A 
ATOM     24  N   UNL     1       0.994   2.000  18.706  0.00  0.00    +0.000 NA
ATOM     25  N   UNL     1       1.803   1.716  17.635  0.00  0.00    +0.000 NA
ATOM     26  C   UNL     1       2.891   2.437  17.758  0.00  0.00    +0.000 A 
ATOM     27  N   UNL     1       2.817   3.197  18.889  0.00  0.00    +0.000 N 
BRANCH  23  29
ATOM     28  C   UNL     1       1.604   2.651  21.938  0.00  0.00    +0.000 C 
ATOM     29  C   UNL     1       1.089   3.440  20.745  0.00  0.00    +0.000 C 
ENDBRANCH  23  29
ENDBRANCH  22  27
ENDBRANCH   1  22
TORSDOF 4
ENDMDL
MODEL 2
REMARK VINA RESULT:      -8.3      3.209      4.494
REMARK  Name = 
REMARK  5 active torsions:
REMARK  status: ('A' for Active; 'I' for Inactive)
REMARK    1  A    between atoms: C_1  and  C_2
REMARK    2  A    between atoms: C_2  and  C_3
REMARK    3  A    between atoms: N_7  and  C_8
REMARK    4  A    between atoms: C_8  and  C_9
REMARK    5  A    between atoms: C_21  and  C_22
REMARK                            x       y       z     vdW  Elec       q    Type
REMARK                         _______ _______ _______ _____ _____    ______ ____
ROOT
ATOM      1  C   UNL     1       3.776   6.756  17.602  0.00  0.00    +0.000 A 
ATOM      2  C   UNL     1       3.964   5.620  18.391  0.00  0.00    +0.000 A 
ATOM      3  C   UNL     1       3.289   5.538  19.595  0.00  0.00    +0.000 A 
ATOM      4  N   UNL     1       2.456   6.495  20.049  0.00  0.00    +0.000 NA
ATOM      5  C   UNL     1       2.245   7.591  19.289  0.00  0.00    +0.000 A 
ATOM      6  N   UNL     1       1.414   8.610  19.799  0.00  0.00    +0.000 N 
ATOM      7  C   UNL     1       1.111   9.820  19.060  0.00  0.00    +0.000 C 
ATOM      8  C   UNL     1       0.316  10.626  20.030  0.00  0.00    +0.000 A 
ATOM      9  C   UNL     1       0.200   9.920  21.226  0.00  0.00    +0.000 A 
ATOM     10  C   UNL     1      -0.445  10.431  22.334  0.00  0.00    +0.000 A 
ATOM     11  C   UNL     1      -0.996  11.706  22.224  0.00  0.00    +0.000 A 
ATOM     12  C   UNL     1      -0.900  12.426  21.017  0.00  0.00    +0.000 A 
ATOM     13  C   UNL     1      -0.244  11.893  19.891  0.00  0.00    +0.000 A 
ATOM     14  C   UNL     1       0.880   8.630  21.081  0.00  0.00    +0.000 C 
ATOM     15  O   UNL     1       0.917   7.821  21.993  0.00  0.00    +0.000 OA
ATOM     16  C   UNL     1       2.872   7.723  18.046  0.00  0.00    +0.000 A 
ATOM     17  F   UNL     1       2.651   8.785  17.253  0.00  0.00    +0.000 F 
ENDROOT
BRANCH  13  18
ATOM     18  C   UNL     1      -0.177  12.679  18.608  0.00  0.00    +0.000 C 
ATOM     19  F   UNL     1       1.080  12.775  18.090  0.00  0.00    +0.000 F 
ATOM     20  F   UNL     1      -0.940  12.129  17.625  0.00  0.00    +0.000 F 
ATOM     21  F   UNL     1      -0.615  13.959  18.755  0.00  0.00    +0.000 F 
ENDBRANCH  13  18
BRANCH   1  22
ATOM     22  C   UNL     1       4.572   6.993  16.351  0.00  0.00    +0.000 C 
BRANCH  22  27
ATOM     23  C   UNL     1       6.840   5.884  16.652  0.00  0.00    +0.000 A 
ATOM     24  N   UNL     1       7.425   4.804  16.175  0.00  0.00    +0.000 NA
ATOM     25  N   UNL     1       6.545   4.169  15.336  0.00  0.00    +0.000 NA
ATOM     26  C   UNL     1       5.436   4.870  15.322  0.00  0.00    +0.000 A 
ATOM     27  N   UNL     1       5.565   5.955  16.140  0.00  0.00    +0.000 N 
BRANCH  23  29
ATOM     28  C   UNL     1       7.844   6.223  18.896  0.00  0.00    +0.000 C 
ATOM     29  C   UNL     1       7.459   6.871  17.576  0.00  0.00    +0.000 C 
ENDBRANCH  23  29
ENDBRANCH  22  27
ENDBRANCH   1  22
TORSDOF 4
ENDMDL
MODEL 3
REMARK VINA RESULT:      -8.2      1.007      1.621
REMARK  Name = 
REMARK  5 active torsions:
REMARK  status: ('A' for Active; 'I' for Inactive)
REMARK    1  A    between atoms: C_1  and  C_2
REMARK    2  A    between atoms: C_2  and  C_3
REMARK    3  A    between atoms: N_7  and  C_8
REMARK    4  A    between atoms: C_8  and  C_9
REMARK    5  A    between atoms: C_21  and  C_22
REMARK                            x       y       z     vdW  Elec       q    Type
REMARK                         _______ _______ _______ _____ _____    ______ ____
ROOT
ATOM      1  C   UNL     1       4.143   4.897  19.069  0.00  0.00    +0.000 A 
ATOM      2  C   UNL     1       4.750   4.989  17.815  0.00  0.00    +0.000 A 
ATOM      3  C   UNL     1       4.511   6.116  17.051  0.00  0.00    +0.000 A 
ATOM      4  N   UNL     1       3.723   7.134  17.451  0.00  0.00    +0.000 NA
ATOM      5  C   UNL     1       3.145   7.073  18.670  0.00  0.00    +0.000 A 
ATOM      6  N   UNL     1       2.281   8.118  19.054  0.00  0.00    +0.000 N 
ATOM      7  C   UNL     1       1.621   8.157  20.344  0.00  0.00    +0.000 C 
ATOM      8  C   UNL     1       0.741   9.357  20.245  0.00  0.00    +0.000 A 
ATOM      9  C   UNL     1       0.891   9.933  18.985  0.00  0.00    +0.000 A 
ATOM     10  C   UNL     1       0.169  11.036  18.578  0.00  0.00    +0.000 A 
ATOM     11  C   UNL     1      -0.739  11.578  19.485  0.00  0.00    +0.000 A 
ATOM     12  C   UNL     1      -0.891  11.017  20.768  0.00  0.00    +0.000 A 
ATOM     13  C   UNL     1      -0.145   9.894  21.174  0.00  0.00    +0.000 A 
ATOM     14  C   UNL     1       1.882   9.161  18.228  0.00  0.00    +0.000 C 
ATOM     15  O   UNL     1       2.196   9.467  17.090  0.00  0.00    +0.000 OA
ATOM     16  C   UNL     1       3.370   5.975  19.506  0.00  0.00    +0.000 A 
ATOM     17  F   UNL     1       2.839   5.905  20.738  0.00  0.00    +0.000 F 
ENDROOT
BRANCH  13  18
ATOM     18  C   UNL     1      -0.316   9.331  22.561  0.00  0.00    +0.000 C 
ATOM     19  F   UNL     1       0.850   9.235  23.260  0.00  0.00    +0.000 F 
ATOM     20  F   UNL     1      -1.144  10.091  23.328  0.00  0.00    +0.000 F 
ATOM     21  F   UNL     1      -0.848   8.079  22.555  0.00  0.00    +0.000 F 
ENDBRANCH  13  18
BRANCH   1  22
ATOM     22  C   UNL     1       4.234   3.653  19.905  0.00  0.00    +0.000 C 
BRANCH  22  27
ATOM     23  C   UNL     1       1.876   2.802  19.482  0.00  0.00    +0.000 A 
ATOM     24  N   UNL     1       0.849   2.471  20.240  0.00  0.00    +0.000 NA
ATOM     25  N   UNL     1       1.211   2.634  21.553  0.00  0.00    +0.000 NA
ATOM     26  C   UNL     1       2.452   3.055  21.572  0.00  0.00    +0.000 A 
ATOM     27  N   UNL     1       2.922   3.171  20.297  0.00  0.00    +0.000 N 
BRANCH  23  29
ATOM     28  C   UNL     1       1.223   4.039  17.431  0.00  0.00    +0.000 C 
ATOM     29  C   UNL     1       1.894   2.797  17.995  0.00  0.00    +0.000 C 
ENDBRANCH  23  29
ENDBRANCH  22  27
ENDBRANCH   1  22
TORSDOF 4
ENDMDL
MODEL 4
REMARK VINA RESULT:      -8.2      3.287      8.040
REMARK  Name = 
REMARK  5 active torsions:
REMARK  status: ('A' for Active; 'I' for Inactive)
REMARK    1  A    between atoms: C_1  and  C_2
REMARK    2  A    between atoms: C_2  and  C_3
REMARK    3  A    between atoms: N_7  and  C_8
REMARK    4  A    between atoms: C_8  and  C_9
REMARK    5  A    between atoms: C_21  and  C_22
REMARK                            x       y       z     vdW  Elec       q    Type
REMARK                         _______ _______ _______ _____ _____    ______ ____
ROOT
ATOM      1  C   UNL     1       0.559  10.067  20.061  0.00  0.00    +0.000 A 
ATOM      2  C   UNL     1      -0.126   9.737  21.231  0.00  0.00    +0.000 A 
ATOM      3  C   UNL     1       0.072   8.482  21.776  0.00  0.00    +0.000 A 
ATOM      4  N   UNL     1       0.894   7.558  21.240  0.00  0.00    +0.000 NA
ATOM      5  C   UNL     1       1.582   7.867  20.120  0.00  0.00    +0.000 A 
ATOM      6  N   UNL     1       2.396   6.874  19.539  0.00  0.00    +0.000 N 
ATOM      7  C   UNL     1       3.185   7.105  18.345  0.00  0.00    +0.000 C 
ATOM      8  C   UNL     1       3.767   5.764  18.051  0.00  0.00    +0.000 A 
ATOM      9  C   UNL     1       3.319   4.851  19.004  0.00  0.00    +0.000 A 
ATOM     10  C   UNL     1       3.652   3.512  18.969  0.00  0.00    +0.000 A 
ATOM     11  C   UNL     1       4.473   3.083  17.929  0.00  0.00    +0.000 A 
ATOM     12  C   UNL     1       4.947   3.996  16.967  0.00  0.00    +0.000 A 
ATOM     13  C   UNL     1       4.605   5.361  17.015  0.00  0.00    +0.000 A 
ATOM     14  C   UNL     1       2.461   5.553  19.964  0.00  0.00    +0.000 C 
ATOM     15  O   UNL     1       1.945   4.972  20.904  0.00  0.00    +0.000 OA
ATOM     16  C   UNL     1       1.451   9.130  19.534  0.00  0.00    +0.000 A 
ATOM     17  F   UNL     1       2.151   9.478  18.441  0.00  0.00    +0.000 F 
ENDROOT
BRANCH  13  18
ATOM     18  C   UNL     1       5.144   6.316  15.982  0.00  0.00    +0.000 C 
ATOM     19  F   UNL     1       4.253   7.277  15.606  0.00  0.00    +0.000 F 
ATOM     20  F   UNL     1       6.243   6.986  16.423  0.00  0.00    +0.000 F 
ATOM     21  F   UNL     1       5.519   5.689  14.834  0.00  0.00    +0.000 F 
ENDBRANCH  13  18
BRANCH   1  22
ATOM     22  C   UNL     1       0.299  11.350  19.325  0.00  0.00    +0.000 C 
BRANCH  22  27
ATOM     23  C   UNL     1      -2.001  11.047  18.285  0.00  0.00    +0.000 A 
ATOM     24  N   UNL     1      -3.187  11.596  18.459  0.00  0.00    +0.000 NA
ATOM     25  N   UNL     1      -3.089  12.531  19.459  0.00  0.00    +0.000 NA
ATOM     26  C   UNL     1      -1.847  12.531  19.880  0.00  0.00    +0.000 A 
ATOM     27  N   UNL     1      -1.122  11.610  19.182  0.00  0.00    +0.000 N 
BRANCH  23  29
ATOM     28  C   UNL     1      -2.771   9.864  16.244  0.00  0.00    +0.000 C 
ATOM     29  C   UNL     1      -1.665  10.008  17.277  0.00  0.00    +0.000 C 
ENDBRANCH  23  29
ENDBRANCH  22  27
ENDBRANCH   1  22
TORSDOF 4
ENDMDL
MODEL 5
REMARK VINA RESULT:      -8.1      3.288      4.723
REMARK  Name = 
REMARK  5 active torsions:
REMARK  status: ('A' for Active; 'I' for Inactive)
REMARK    1  A    between atoms: C_1  and  C_2
REMARK    2  A    between atoms: C_2  and  C_3
REMARK    3  A    between atoms: N_7  and  C_8
REMARK    4  A    between atoms: C_8  and  C_9
REMARK    5  A    between atoms: C_21  and  C_22
REMARK                            x       y       z     vdW  Elec       q    Type
REMARK                         _______ _______ _______ _____ _____    ______ ____
ROOT
ATOM      1  C   UNL     1       3.482   6.864  17.779  0.00  0.00    +0.000 A 
ATOM      2  C   UNL     1       3.592   5.747  18.609  0.00  0.00    +0.000 A 
ATOM      3  C   UNL     1       2.905   5.751  19.808  0.00  0.00    +0.000 A 
ATOM      4  N   UNL     1       2.132   6.775  20.221  0.00  0.00    +0.000 NA
ATOM      5  C   UNL     1       1.996   7.854  19.421  0.00  0.00    +0.000 A 
ATOM      6  N   UNL     1       1.228   8.941  19.887  0.00  0.00    +0.000 N 
ATOM      7  C   UNL     1       1.008  10.141  19.104  0.00  0.00    +0.000 C 
ATOM      8  C   UNL     1       0.259  11.030  20.038  0.00  0.00    +0.000 A 
ATOM      9  C   UNL     1       0.090  10.376  21.256  0.00  0.00    +0.000 A 
ATOM     10  C   UNL     1      -0.529  10.966  22.340  0.00  0.00    +0.000 A 
ATOM     11  C   UNL     1      -0.997  12.268  22.181  0.00  0.00    +0.000 A 
ATOM     12  C   UNL     1      -0.847  12.937  20.950  0.00  0.00    +0.000 A 
ATOM     13  C   UNL     1      -0.218  12.324  19.850  0.00  0.00    +0.000 A 
ATOM     14  C   UNL     1       0.688   9.041  21.163  0.00  0.00    +0.000 C 
ATOM     15  O   UNL     1       0.666   8.264  22.103  0.00  0.00    +0.000 OA
ATOM     16  C   UNL     1       2.639   7.903  18.180  0.00  0.00    +0.000 A 
ATOM     17  F   UNL     1       2.492   8.947  17.348  0.00  0.00    +0.000 F 
ENDROOT
BRANCH  13  18
ATOM     18  C   UNL     1      -0.092  13.059  18.541  0.00  0.00    +0.000 C 
ATOM     19  F   UNL     1      -0.898  12.568  17.557  0.00  0.00    +0.000 F 
ATOM     20  F   UNL     1      -0.414  14.376  18.656  0.00  0.00    +0.000 F 
ATOM     21  F   UNL     1       1.171  13.020  18.037  0.00  0.00    +0.000 F 
ENDBRANCH  13  18
BRANCH   1  22
ATOM     22  C   UNL     1       4.301   7.006  16.527  0.00  0.00    +0.000 C 
BRANCH  22  27
ATOM     23  C   UNL     1       6.180   5.307  16.315  0.00  0.00    +0.000 A 
ATOM     24  N   UNL     1       7.433   5.241  16.720  0.00  0.00    +0.000 NA
ATOM     25  N   UNL     1       7.731   6.397  17.395  0.00  0.00    +0.000 NA
ATOM     26  C   UNL     1       6.658   7.150  17.384  0.00  0.00    +0.000 A 
ATOM     27  N   UNL     1       5.655   6.516  16.711  0.00  0.00    +0.000 N 
BRANCH  23  29
ATOM     28  C   UNL     1       5.922   4.161  14.129  0.00  0.00    +0.000 C 
ATOM     29  C   UNL     1       5.451   4.246  15.572  0.00  0.00    +0.000 C 
ENDBRANCH  23  29
ENDBRANCH  22  27
ENDBRANCH   1  22
TORSDOF 4
ENDMDL
MODEL 6
REMARK VINA RESULT:      -8.0      0.688      1.484
REMARK  Name = 
REMARK  5 active torsions:
REMARK  status: ('A' for Active; 'I' for Inactive)
REMARK    1  A    between atoms: C_1  and  C_2
REMARK    2  A    between atoms: C_2  and  C_3
REMARK    3  A    between atoms: N_7  and  C_8
REMARK    4  A    between atoms: C_8  and  C_9
REMARK    5  A    between atoms: C_21  and  C_22
REMARK                            x       y       z     vdW  Elec       q    Type
REMARK                         _______ _______ _______ _____ _____    ______ ____
ROOT
ATOM      1  C   UNL     1       3.364   5.348  19.102  0.00  0.00    +0.000 A 
ATOM      2  C   UNL     1       4.025   5.474  17.879  0.00  0.00    +0.000 A 
ATOM      3  C   UNL     1       3.934   6.678  17.205  0.00  0.00    +0.000 A 
ATOM      4  N   UNL     1       3.242   7.739  17.666  0.00  0.00    +0.000 NA
ATOM      5  C   UNL     1       2.615   7.643  18.858  0.00  0.00    +0.000 A 
ATOM      6  N   UNL     1       1.851   8.741  19.303  0.00  0.00    +0.000 N 
ATOM      7  C   UNL     1       1.149   8.746  20.571  0.00  0.00    +0.000 C 
ATOM      8  C   UNL     1       0.404  10.038  20.547  0.00  0.00    +0.000 A 
ATOM      9  C   UNL     1       0.661  10.693  19.345  0.00  0.00    +0.000 A 
ATOM     10  C   UNL     1       0.075  11.897  19.011  0.00  0.00    +0.000 A 
ATOM     11  C   UNL     1      -0.806  12.459  19.933  0.00  0.00    +0.000 A 
ATOM     12  C   UNL     1      -1.065  11.816  21.159  0.00  0.00    +0.000 A 
ATOM     13  C   UNL     1      -0.456  10.591  21.491  0.00  0.00    +0.000 A 
ATOM     14  C   UNL     1       1.594   9.883  18.555  0.00  0.00    +0.000 C 
ATOM     15  O   UNL     1       1.983  10.244  17.457  0.00  0.00    +0.000 OA
ATOM     16  C   UNL     1       2.692   6.463  19.606  0.00  0.00    +0.000 A 
ATOM     17  F   UNL     1       2.109   6.352  20.811  0.00  0.00    +0.000 F 
ENDROOT
BRANCH  13  18
ATOM     18  C   UNL     1      -0.738   9.939  22.820  0.00  0.00    +0.000 C 
ATOM     19  F   UNL     1       0.344   9.896  23.649  0.00  0.00    +0.000 F 
ATOM     20  F   UNL     1      -1.709  10.588  23.518  0.00  0.00    +0.000 F 
ATOM     21  F   UNL     1      -1.159   8.652  22.694  0.00  0.00    +0.000 F 
ENDBRANCH  13  18
BRANCH   1  22
ATOM     22  C   UNL     1       3.292   4.038  19.833  0.00  0.00    +0.000 C 
BRANCH  22  27
ATOM     23  C   UNL     1       1.818   2.450  18.503  0.00  0.00    +0.000 A 
ATOM     24  N   UNL     1       0.561   2.060  18.571  0.00  0.00    +0.000 NA
ATOM     25  N   UNL     1      -0.029   2.686  19.640  0.00  0.00    +0.000 NA
ATOM     26  C   UNL     1       0.881   3.440  20.208  0.00  0.00    +0.000 A 
ATOM     27  N   UNL     1       2.064   3.323  19.538  0.00  0.00    +0.000 N 
BRANCH  23  29
ATOM     28  C   UNL     1       3.920   1.200  18.077  0.00  0.00    +0.000 C 
ATOM     29  C   UNL     1       2.802   2.031  17.469  0.00  0.00    +0.000 C 
ENDBRANCH  23  29
ENDBRANCH  22  27
ENDBRANCH   1  22
TORSDOF 4
ENDMDL
MODEL 7
REMARK VINA RESULT:      -7.9      3.173      8.031
REMARK  Name = 
REMARK  5 active torsions:
REMARK  status: ('A' for Active; 'I' for Inactive)
REMARK    1  A    between atoms: C_1  and  C_2
REMARK    2  A    between atoms: C_2  and  C_3
REMARK    3  A    between atoms: N_7  and  C_8
REMARK    4  A    between atoms: C_8  and  C_9
REMARK    5  A    between atoms: C_21  and  C_22
REMARK                            x       y       z     vdW  Elec       q    Type
REMARK                         _______ _______ _______ _____ _____    ______ ____
ROOT
ATOM      1  C   UNL     1       0.409  10.093  19.857  0.00  0.00    +0.000 A 
ATOM      2  C   UNL     1      -0.281   9.811  21.037  0.00  0.00    +0.000 A 
ATOM      3  C   UNL     1      -0.041   8.602  21.664  0.00  0.00    +0.000 A 
ATOM      4  N   UNL     1       0.826   7.681  21.199  0.00  0.00    +0.000 NA
ATOM      5  C   UNL     1       1.519   7.946  20.071  0.00  0.00    +0.000 A 
ATOM      6  N   UNL     1       2.381   6.952  19.566  0.00  0.00    +0.000 N 
ATOM      7  C   UNL     1       3.179   7.139  18.370  0.00  0.00    +0.000 C 
ATOM      8  C   UNL     1       3.819   5.807  18.171  0.00  0.00    +0.000 A 
ATOM      9  C   UNL     1       3.393   4.939  19.174  0.00  0.00    +0.000 A 
ATOM     10  C   UNL     1       3.780   3.616  19.230  0.00  0.00    +0.000 A 
ATOM     11  C   UNL     1       4.635   3.154  18.231  0.00  0.00    +0.000 A 
ATOM     12  C   UNL     1       5.086   4.023  17.218  0.00  0.00    +0.000 A 
ATOM     13  C   UNL     1       4.688   5.373  17.174  0.00  0.00    +0.000 A 
ATOM     14  C   UNL     1       2.492   5.665  20.075  0.00  0.00    +0.000 C 
ATOM     15  O   UNL     1       1.986   5.124  21.044  0.00  0.00    +0.000 OA
ATOM     16  C   UNL     1       1.346   9.163  19.403  0.00  0.00    +0.000 A 
ATOM     17  F   UNL     1       2.049   9.469  18.300  0.00  0.00    +0.000 F 
ENDROOT
BRANCH  13  18
ATOM     18  C   UNL     1       5.206   6.281  16.089  0.00  0.00    +0.000 C 
ATOM     19  F   UNL     1       4.292   7.199  15.661  0.00  0.00    +0.000 F 
ATOM     20  F   UNL     1       6.288   7.001  16.491  0.00  0.00    +0.000 F 
ATOM     21  F   UNL     1       5.595   5.601  14.977  0.00  0.00    +0.000 F 
ENDBRANCH  13  18
BRANCH   1  22
ATOM     22  C   UNL     1       0.109  11.315  19.036  0.00  0.00    +0.000 C 
BRANCH  22  27
ATOM     23  C   UNL     1      -2.369  11.860  18.891  0.00  0.00    +0.000 A 
ATOM     24  N   UNL     1      -3.360  11.511  18.095  0.00  0.00    +0.000 NA
ATOM     25  N   UNL     1      -2.866  10.666  17.134  0.00  0.00    +0.000 NA
ATOM     26  C   UNL     1      -1.582  10.520  17.358  0.00  0.00    +0.000 A 
ATOM     27  N   UNL     1      -1.216  11.256  18.446  0.00  0.00    +0.000 N 
BRANCH  23  29
ATOM     28  C   UNL     1      -3.937  13.010  20.435  0.00  0.00    +0.000 C 
ATOM     29  C   UNL     1      -2.483  12.744  20.082  0.00  0.00    +0.000 C 
ENDBRANCH  23  29
ENDBRANCH  22  27
ENDBRANCH   1  22
TORSDOF 4
ENDMDL
MODEL 8
REMARK VINA RESULT:      -7.8      3.202      8.347
REMARK  Name = 
REMARK  5 active torsions:
REMARK  status: ('A' for Active; 'I' for Inactive)
REMARK    1  A    between atoms: C_1  and  C_2
REMARK    2  A    between atoms: C_2  and  C_3
REMARK    3  A    between atoms: N_7  and  C_8
REMARK    4  A    between atoms: C_8  and  C_9
REMARK    5  A    between atoms: C_21  and  C_22
REMARK                            x       y       z     vdW  Elec       q    Type
REMARK                         _______ _______ _______ _____ _____    ______ ____
ROOT
ATOM      1  C   UNL     1       0.648  10.217  20.287  0.00  0.00    +0.000 A 
ATOM      2  C   UNL     1      -0.123   9.850  21.391  0.00  0.00    +0.000 A 
ATOM      3  C   UNL     1      -0.059   8.540  21.830  0.00  0.00    +0.000 A 
ATOM      4  N   UNL     1       0.709   7.597  21.250  0.00  0.00    +0.000 NA
ATOM      5  C   UNL     1       1.479   7.939  20.195  0.00  0.00    +0.000 A 
ATOM      6  N   UNL     1       2.236   6.931  19.564  0.00  0.00    +0.000 N 
ATOM      7  C   UNL     1       3.104   7.193  18.433  0.00  0.00    +0.000 C 
ATOM      8  C   UNL     1       3.586   5.836  18.047  0.00  0.00    +0.000 A 
ATOM      9  C   UNL     1       3.014   4.888  18.893  0.00  0.00    +0.000 A 
ATOM     10  C   UNL     1       3.235   3.533  18.753  0.00  0.00    +0.000 A 
ATOM     11  C   UNL     1       4.071   3.123  17.717  0.00  0.00    +0.000 A 
ATOM     12  C   UNL     1       4.669   4.069  16.863  0.00  0.00    +0.000 A 
ATOM     13  C   UNL     1       4.440   5.450  17.018  0.00  0.00    +0.000 A 
ATOM     14  C   UNL     1       2.168   5.578  19.871  0.00  0.00    +0.000 C 
ATOM     15  O   UNL     1       1.556   4.966  20.732  0.00  0.00    +0.000 OA
ATOM     16  C   UNL     1       1.485   9.254  19.719  0.00  0.00    +0.000 A 
ATOM     17  F   UNL     1       2.269   9.631  18.695  0.00  0.00    +0.000 F 
ENDROOT
BRANCH  13  18
ATOM     18  C   UNL     1       5.112   6.438  16.100  0.00  0.00    +0.000 C 
ATOM     19  F   UNL     1       4.258   7.356  15.565  0.00  0.00    +0.000 F 
ATOM     20  F   UNL     1       6.076   7.159  16.735  0.00  0.00    +0.000 F 
ATOM     21  F   UNL     1       5.722   5.840  15.042  0.00  0.00    +0.000 F 
ENDBRANCH  13  18
BRANCH   1  22
ATOM     22  C   UNL     1       0.536  11.576  19.658  0.00  0.00    +0.000 C 
BRANCH  22  27
ATOM     23  C   UNL     1       0.386  13.394  21.428  0.00  0.00    +0.000 A 
ATOM     24  N   UNL     1       1.233  14.247  21.970  0.00  0.00    +0.000 NA
ATOM     25  N   UNL     1       2.469  14.042  21.412  0.00  0.00    +0.000 NA
ATOM     26  C   UNL     1       2.355  13.064  20.545  0.00  0.00    +0.000 A 
ATOM     27  N   UNL     1       1.067  12.615  20.522  0.00  0.00    +0.000 N 
BRANCH  23  29
ATOM     28  C   UNL     1      -1.314  13.259  23.231  0.00  0.00    +0.000 C 
ATOM     29  C   UNL     1      -1.067  13.302  21.732  0.00  0.00    +0.000 C 
ENDBRANCH  23  29
ENDBRANCH  22  27
ENDBRANCH   1  22
TORSDOF 4
ENDMDL
MODEL 9
REMARK VINA RESULT:      -7.7      3.293      8.448
REMARK  Name = 
REMARK  5 active torsions:
REMARK  status: ('A' for Active; 'I' for Inactive)
REMARK    1  A    between atoms: C_1  and  C_2
REMARK    2  A    between atoms: C_2  and  C_3
REMARK    3  A    between atoms: N_7  and  C_8
REMARK    4  A    between atoms: C_8  and  C_9
REMARK    5  A    between atoms: C_21  and  C_22
REMARK                            x       y       z     vdW  Elec       q    Type
REMARK                         _______ _______ _______ _____ _____    ______ ____
ROOT
ATOM      1  C   UNL     1       0.589  10.322  20.004  0.00  0.00    +0.000 A 
ATOM      2  C   UNL     1      -0.166  10.002  21.134  0.00  0.00    +0.000 A 
ATOM      3  C   UNL     1      -0.061   8.725  21.652  0.00  0.00    +0.000 A 
ATOM      4  N   UNL     1       0.732   7.770  21.126  0.00  0.00    +0.000 NA
ATOM      5  C   UNL     1       1.485   8.068  20.047  0.00  0.00    +0.000 A 
ATOM      6  N   UNL     1       2.269   7.045  19.474  0.00  0.00    +0.000 N 
ATOM      7  C   UNL     1       3.122   7.262  18.322  0.00  0.00    +0.000 C 
ATOM      8  C   UNL     1       3.642   5.898  18.017  0.00  0.00    +0.000 A 
ATOM      9  C   UNL     1       3.103   4.988  18.924  0.00  0.00    +0.000 A 
ATOM     10  C   UNL     1       3.363   3.634  18.867  0.00  0.00    +0.000 A 
ATOM     11  C   UNL     1       4.204   3.185  17.852  0.00  0.00    +0.000 A 
ATOM     12  C   UNL     1       4.770   4.094  16.936  0.00  0.00    +0.000 A 
ATOM     13  C   UNL     1       4.501   5.474  17.007  0.00  0.00    +0.000 A 
ATOM     14  C   UNL     1       2.242   5.712  19.864  0.00  0.00    +0.000 C 
ATOM     15  O   UNL     1       1.653   5.138  20.765  0.00  0.00    +0.000 OA
ATOM     16  C   UNL     1       1.450   9.351  19.490  0.00  0.00    +0.000 A 
ATOM     17  F   UNL     1       2.217   9.686  18.439  0.00  0.00    +0.000 F 
ENDROOT
BRANCH  13  18
ATOM     18  C   UNL     1       5.139   6.423  16.026  0.00  0.00    +0.000 C 
ATOM     19  F   UNL     1       4.270   7.332  15.500  0.00  0.00    +0.000 F 
ATOM     20  F   UNL     1       6.139   7.154  16.589  0.00  0.00    +0.000 F 
ATOM     21  F   UNL     1       5.692   5.782  14.961  0.00  0.00    +0.000 F 
ENDBRANCH  13  18
BRANCH   1  22
ATOM     22  C   UNL     1       0.433  11.636  19.293  0.00  0.00    +0.000 C 
BRANCH  22  27
ATOM     23  C   UNL     1       2.191  13.442  19.621  0.00  0.00    +0.000 A 
ATOM     24  N   UNL     1       2.490  14.295  20.581  0.00  0.00    +0.000 NA
ATOM     25  N   UNL     1       1.596  14.123  21.607  0.00  0.00    +0.000 NA
ATOM     26  C   UNL     1       0.764  13.173  21.252  0.00  0.00    +0.000 A 
ATOM     27  N   UNL     1       1.088  12.716  20.008  0.00  0.00    +0.000 N 
BRANCH  23  29
ATOM     28  C   UNL     1       3.933  14.406  18.139  0.00  0.00    +0.000 C 
ATOM     29  C   UNL     1       2.932  13.280  18.343  0.00  0.00    +0.000 C 
ENDBRANCH  23  29
ENDBRANCH  22  27
ENDBRANCH   1  22
TORSDOF 4
ENDMDL
