MODEL 1
REMARK VINA RESULT:      -8.8      0.000      0.000
REMARK  Name = 
REMARK  2 active torsions:
REMARK  status: ('A' for Active; 'I' for Inactive)
REMARK    1  A    between atoms: C_2  and  C_3
REMARK    2  A    between atoms: N_19  and  C_20
REMARK                            x       y       z     vdW  Elec       q    Type
REMARK                         _______ _______ _______ _____ _____    ______ ____
ROOT
ATOM      1  O   UNL     1      -0.781   9.755  23.462  0.00  0.00    +0.000 OA
ATOM      2  C   UNL     1      -0.361  10.255  22.424  0.00  0.00    +0.000 C 
ATOM      3  N   UNL     1      -0.758  11.522  21.982  0.00  0.00    +0.000 N 
ATOM      4  C   UNL     1      -1.822  12.288  22.721  0.00  0.00    +0.000 C 
ATOM      5  C   UNL     1      -2.694  12.640  21.587  0.00  0.00    +0.000 A 
ATOM      6  C   UNL     1      -3.972  13.065  21.253  0.00  0.00    +0.000 A 
ATOM      7  N   UNL     1      -4.233  12.825  19.955  0.00  0.00    +0.000 NA
ATOM      8  N   UNL     1      -3.104  12.216  19.474  0.00  0.00    +0.000 N 
ATOM      9  C   UNL     1      -2.111  12.333  20.392  0.00  0.00    +0.000 A 
ATOM     10  C   UNL     1      -0.756  11.823  20.529  0.00  0.00    +0.000 C 
ENDROOT
BRANCH   2  11
ATOM     11  C   UNL     1       0.554   9.556  21.530  0.00  0.00    +0.000 A 
ATOM     12  C   UNL     1       1.133   8.303  21.666  0.00  0.00    +0.000 A 
ATOM     13  C   UNL     1       1.676   7.928  20.400  0.00  0.00    +0.000 A 
ATOM     14  C   UNL     1       2.251   6.759  19.864  0.00  0.00    +0.000 A 
ATOM     15  F   UNL     1       2.411   5.666  20.624  0.00  0.00    +0.000 F 
ATOM     16  C   UNL     1       2.628   6.707  18.515  0.00  0.00    +0.000 A 
ATOM     17  C   UNL     1       2.440   7.815  17.691  0.00  0.00    +0.000 A 
ATOM     18  C   UNL     1       1.881   8.984  18.206  0.00  0.00    +0.000 A 
ATOM     19  F   UNL     1       1.678  10.041  17.411  0.00  0.00    +0.000 F 
ATOM     20  C   UNL     1       1.510   9.022  19.551  0.00  0.00    +0.000 A 
ATOM     21  N   UNL     1       0.934  10.026  20.289  0.00  0.00    +0.000 N 
ATOM     22  H   UNL     1       0.679  10.932  19.917  0.00  0.00    +0.000 HD
ENDBRANCH   2  11
BRANCH   8  23
ATOM     23  C   UNL     1      -3.116  11.421  18.288  0.00  0.00    +0.000 A 
ATOM     24  C   UNL     1      -4.116  11.556  17.312  0.00  0.00    +0.000 A 
ATOM     25  C   UNL     1      -4.035  10.844  16.113  0.00  0.00    +0.000 A 
ATOM     26  C   UNL     1      -2.966   9.981  15.885  0.00  0.00    +0.000 A 
ATOM     27  C   UNL     1      -1.971   9.838  16.851  0.00  0.00    +0.000 A 
ATOM     28  C   UNL     1      -2.044  10.551  18.050  0.00  0.00    +0.000 A 
ENDBRANCH   8  23
TORSDOF 2
ENDMDL
MODEL 2
REMARK VINA RESULT:      -8.5      4.252      8.504
REMARK  Name = 
REMARK  2 active torsions:
REMARK  status: ('A' for Active; 'I' for Inactive)
REMARK    1  A    between atoms: C_2  and  C_3
REMARK    2  A    between atoms: N_19  and  C_20
REMARK                            x       y       z     vdW  Elec       q    Type
REMARK                         _______ _______ _______ _____ _____    ______ ____
ROOT
ATOM      1  O   UNL     1       2.183   4.514  21.959  0.00  0.00    +0.000 OA
ATOM      2  C   UNL     1       1.954   4.899  20.817  0.00  0.00    +0.000 C 
ATOM      3  N   UNL     1       1.710   4.016  19.759  0.00  0.00    +0.000 N 
ATOM      4  C   UNL     1       1.832   2.529  19.962  0.00  0.00    +0.000 C 
ATOM      5  C   UNL     1       2.696   2.202  18.814  0.00  0.00    +0.000 A 
ATOM      6  C   UNL     1       3.546   1.234  18.298  0.00  0.00    +0.000 A 
ATOM      7  N   UNL     1       4.332   1.749  17.335  0.00  0.00    +0.000 NA
ATOM      8  N   UNL     1       3.983   3.072  17.264  0.00  0.00    +0.000 N 
ATOM      9  C   UNL     1       2.844   3.270  17.977  0.00  0.00    +0.000 A 
ATOM     10  C   UNL     1       2.053   4.424  18.374  0.00  0.00    +0.000 C 
ENDROOT
BRANCH   2  11
ATOM     11  C   UNL     1       1.961   6.308  20.446  0.00  0.00    +0.000 A 
ATOM     12  C   UNL     1       2.371   6.905  19.262  0.00  0.00    +0.000 A 
ATOM     13  C   UNL     1       1.884   8.246  19.252  0.00  0.00    +0.000 A 
ATOM     14  C   UNL     1       1.844   9.290  18.307  0.00  0.00    +0.000 A 
ATOM     15  F   UNL     1       2.382   9.130  17.089  0.00  0.00    +0.000 F 
ATOM     16  C   UNL     1       1.206  10.500  18.612  0.00  0.00    +0.000 A 
ATOM     17  C   UNL     1       0.606  10.683  19.856  0.00  0.00    +0.000 A 
ATOM     18  C   UNL     1       0.643   9.665  20.808  0.00  0.00    +0.000 A 
ATOM     19  F   UNL     1       0.048   9.829  21.995  0.00  0.00    +0.000 F 
ATOM     20  C   UNL     1       1.283   8.465  20.491  0.00  0.00    +0.000 A 
ATOM     21  N   UNL     1       1.443   7.318  21.229  0.00  0.00    +0.000 N 
ATOM     22  H   UNL     1       1.082   7.188  22.165  0.00  0.00    +0.000 HD
ENDBRANCH   2  11
BRANCH   8  23
ATOM     23  C   UNL     1       4.846   4.056  16.696  0.00  0.00    +0.000 A 
ATOM     24  C   UNL     1       4.973   5.342  17.246  0.00  0.00    +0.000 A 
ATOM     25  C   UNL     1       5.911   6.241  16.734  0.00  0.00    +0.000 A 
ATOM     26  C   UNL     1       6.716   5.872  15.659  0.00  0.00    +0.000 A 
ATOM     27  C   UNL     1       6.593   4.600  15.104  0.00  0.00    +0.000 A 
ATOM     28  C   UNL     1       5.661   3.694  15.616  0.00  0.00    +0.000 A 
ENDBRANCH   8  23
TORSDOF 2
ENDMDL
MODEL 3
REMARK VINA RESULT:      -8.5      2.688      3.522
REMARK  Name = 
REMARK  2 active torsions:
REMARK  status: ('A' for Active; 'I' for Inactive)
REMARK    1  A    between atoms: C_2  and  C_3
REMARK    2  A    between atoms: N_19  and  C_20
REMARK                            x       y       z     vdW  Elec       q    Type
REMARK                         _______ _______ _______ _____ _____    ______ ____
ROOT
ATOM      1  O   UNL     1      -1.756  11.662  23.300  0.00  0.00    +0.000 OA
ATOM      2  C   UNL     1      -1.673  12.290  22.250  0.00  0.00    +0.000 C 
ATOM      3  N   UNL     1      -2.764  12.960  21.685  0.00  0.00    +0.000 N 
ATOM      4  C   UNL     1      -4.134  12.840  22.298  0.00  0.00    +0.000 C 
ATOM      5  C   UNL     1      -4.906  12.496  21.091  0.00  0.00    +0.000 A 
ATOM      6  C   UNL     1      -6.105  11.954  20.652  0.00  0.00    +0.000 A 
ATOM      7  N   UNL     1      -6.015  11.570  19.365  0.00  0.00    +0.000 NA
ATOM      8  N   UNL     1      -4.726  11.857  19.000  0.00  0.00    +0.000 N 
ATOM      9  C   UNL     1      -4.153  12.628  19.960  0.00  0.00    +0.000 A 
ATOM     10  C   UNL     1      -2.821  13.152  20.215  0.00  0.00    +0.000 C 
ENDROOT
BRANCH   2  11
ATOM     11  C   UNL     1      -0.445  12.358  21.469  0.00  0.00    +0.000 A 
ATOM     12  C   UNL     1       0.048  11.469  20.524  0.00  0.00    +0.000 A 
ATOM     13  C   UNL     1       1.095  12.122  19.808  0.00  0.00    +0.000 A 
ATOM     14  C   UNL     1       1.874  11.818  18.673  0.00  0.00    +0.000 A 
ATOM     15  F   UNL     1       1.715  10.653  18.029  0.00  0.00    +0.000 F 
ATOM     16  C   UNL     1       2.799  12.746  18.178  0.00  0.00    +0.000 A 
ATOM     17  C   UNL     1       2.960  13.980  18.805  0.00  0.00    +0.000 A 
ATOM     18  C   UNL     1       2.206  14.296  19.934  0.00  0.00    +0.000 A 
ATOM     19  F   UNL     1       2.342  15.489  20.524  0.00  0.00    +0.000 F 
ATOM     20  C   UNL     1       1.287  13.362  20.417  0.00  0.00    +0.000 A 
ATOM     21  N   UNL     1       0.424  13.430  21.483  0.00  0.00    +0.000 N 
ATOM     22  H   UNL     1       0.333  14.232  22.092  0.00  0.00    +0.000 HD
ENDBRANCH   2  11
BRANCH   8  23
ATOM     23  C   UNL     1      -4.095  11.229  17.884  0.00  0.00    +0.000 A 
ATOM     24  C   UNL     1      -4.533  11.439  16.566  0.00  0.00    +0.000 A 
ATOM     25  C   UNL     1      -3.824  10.900  15.491  0.00  0.00    +0.000 A 
ATOM     26  C   UNL     1      -2.683  10.135  15.721  0.00  0.00    +0.000 A 
ATOM     27  C   UNL     1      -2.244   9.918  17.026  0.00  0.00    +0.000 A 
ATOM     28  C   UNL     1      -2.946  10.459  18.106  0.00  0.00    +0.000 A 
ENDBRANCH   8  23
TORSDOF 2
ENDMDL
MODEL 4
REMARK VINA RESULT:      -8.3      4.097      8.138
REMARK  Name = 
REMARK  2 active torsions:
REMARK  status: ('A' for Active; 'I' for Inactive)
REMARK    1  A    between atoms: C_2  and  C_3
REMARK    2  A    between atoms: N_19  and  C_20
REMARK                            x       y       z     vdW  Elec       q    Type
REMARK                         _______ _______ _______ _____ _____    ______ ____
ROOT
ATOM      1  O   UNL     1      -6.384  10.876  18.379  0.00  0.00    +0.000 OA
ATOM      2  C   UNL     1      -5.574  11.646  18.883  0.00  0.00    +0.000 C 
ATOM      3  N   UNL     1      -4.353  11.960  18.276  0.00  0.00    +0.000 N 
ATOM      4  C   UNL     1      -3.931  11.265  17.009  0.00  0.00    +0.000 C 
ATOM      5  C   UNL     1      -2.571  10.858  17.402  0.00  0.00    +0.000 A 
ATOM      6  C   UNL     1      -1.530   9.997  17.085  0.00  0.00    +0.000 A 
ATOM      7  N   UNL     1      -0.677   9.875  18.120  0.00  0.00    +0.000 NA
ATOM      8  N   UNL     1      -1.210  10.656  19.111  0.00  0.00    +0.000 N 
ATOM      9  C   UNL     1      -2.202  11.423  18.588  0.00  0.00    +0.000 A 
ATOM     10  C   UNL     1      -3.194  12.344  19.119  0.00  0.00    +0.000 C 
ENDROOT
BRANCH   2  11
ATOM     11  C   UNL     1      -5.785  12.269  20.184  0.00  0.00    +0.000 A 
ATOM     12  C   UNL     1      -5.597  13.589  20.570  0.00  0.00    +0.000 A 
ATOM     13  C   UNL     1      -6.244  13.776  21.829  0.00  0.00    +0.000 A 
ATOM     14  C   UNL     1      -6.526  14.883  22.654  0.00  0.00    +0.000 A 
ATOM     15  F   UNL     1      -6.124  16.114  22.307  0.00  0.00    +0.000 F 
ATOM     16  C   UNL     1      -7.267  14.719  23.832  0.00  0.00    +0.000 A 
ATOM     17  C   UNL     1      -7.730  13.457  24.200  0.00  0.00    +0.000 A 
ATOM     18  C   UNL     1      -7.453  12.349  23.401  0.00  0.00    +0.000 A 
ATOM     19  F   UNL     1      -7.917  11.140  23.740  0.00  0.00    +0.000 F 
ATOM     20  C   UNL     1      -6.714  12.526  22.230  0.00  0.00    +0.000 A 
ATOM     21  N   UNL     1      -6.325  11.619  21.275  0.00  0.00    +0.000 N 
ATOM     22  H   UNL     1      -6.552  10.634  21.300  0.00  0.00    +0.000 HD
ENDBRANCH   2  11
BRANCH   8  23
ATOM     23  C   UNL     1      -0.870  10.476  20.485  0.00  0.00    +0.000 A 
ATOM     24  C   UNL     1      -1.079  11.483  21.442  0.00  0.00    +0.000 A 
ATOM     25  C   UNL     1      -0.842  11.233  22.795  0.00  0.00    +0.000 A 
ATOM     26  C   UNL     1      -0.378   9.985  23.203  0.00  0.00    +0.000 A 
ATOM     27  C   UNL     1      -0.163   8.982  22.260  0.00  0.00    +0.000 A 
ATOM     28  C   UNL     1      -0.405   9.224  20.905  0.00  0.00    +0.000 A 
ENDBRANCH   8  23
TORSDOF 2
ENDMDL
MODEL 5
REMARK VINA RESULT:      -8.3      2.860      3.809
REMARK  Name = 
REMARK  2 active torsions:
REMARK  status: ('A' for Active; 'I' for Inactive)
REMARK    1  A    between atoms: C_2  and  C_3
REMARK    2  A    between atoms: N_19  and  C_20
REMARK                            x       y       z     vdW  Elec       q    Type
REMARK                         _______ _______ _______ _____ _____    ______ ____
ROOT
ATOM      1  O   UNL     1      -1.394  11.922  23.419  0.00  0.00    +0.000 OA
ATOM      2  C   UNL     1      -1.355  12.564  22.375  0.00  0.00    +0.000 C 
ATOM      3  N   UNL     1      -2.481  13.201  21.839  0.00  0.00    +0.000 N 
ATOM      4  C   UNL     1      -3.832  13.025  22.479  0.00  0.00    +0.000 C 
ATOM      5  C   UNL     1      -4.617  12.667  21.284  0.00  0.00    +0.000 A 
ATOM      6  C   UNL     1      -5.805  12.086  20.864  0.00  0.00    +0.000 A 
ATOM      7  N   UNL     1      -5.729  11.720  19.571  0.00  0.00    +0.000 NA
ATOM      8  N   UNL     1      -4.458  12.057  19.183  0.00  0.00    +0.000 N 
ATOM      9  C   UNL     1      -3.893  12.837  20.140  0.00  0.00    +0.000 A 
ATOM     10  C   UNL     1      -2.575  13.406  20.373  0.00  0.00    +0.000 C 
ENDROOT
BRANCH   2  11
ATOM     11  C   UNL     1      -0.147  12.684  21.569  0.00  0.00    +0.000 A 
ATOM     12  C   UNL     1       0.363  11.819  20.611  0.00  0.00    +0.000 A 
ATOM     13  C   UNL     1       1.368  12.516  19.876  0.00  0.00    +0.000 A 
ATOM     14  C   UNL     1       2.135  12.248  18.725  0.00  0.00    +0.000 A 
ATOM     15  F   UNL     1       2.010  11.079  18.080  0.00  0.00    +0.000 F 
ATOM     16  C   UNL     1       3.011  13.214  18.215  0.00  0.00    +0.000 A 
ATOM     17  C   UNL     1       3.135  14.451  18.844  0.00  0.00    +0.000 A 
ATOM     18  C   UNL     1       2.391  14.733  19.988  0.00  0.00    +0.000 A 
ATOM     19  F   UNL     1       2.491  15.929  20.581  0.00  0.00    +0.000 F 
ATOM     20  C   UNL     1       1.522  13.760  20.487  0.00  0.00    +0.000 A 
ATOM     21  N   UNL     1       0.678  13.790  21.570  0.00  0.00    +0.000 N 
ATOM     22  H   UNL     1       0.567  14.586  22.184  0.00  0.00    +0.000 HD
ENDBRANCH   2  11
BRANCH   8  23
ATOM     23  C   UNL     1      -3.829  11.464  18.047  0.00  0.00    +0.000 A 
ATOM     24  C   UNL     1      -2.644  10.720  18.157  0.00  0.00    +0.000 A 
ATOM     25  C   UNL     1      -2.117  10.059  17.045  0.00  0.00    +0.000 A 
ATOM     26  C   UNL     1      -2.758  10.150  15.812  0.00  0.00    +0.000 A 
ATOM     27  C   UNL     1      -3.932  10.891  15.692  0.00  0.00    +0.000 A 
ATOM     28  C   UNL     1      -4.467  11.549  16.803  0.00  0.00    +0.000 A 
ENDBRANCH   8  23
TORSDOF 2
ENDMDL
MODEL 6
REMARK VINA RESULT:      -8.3      3.152      4.404
REMARK  Name = 
REMARK  2 active torsions:
REMARK  status: ('A' for Active; 'I' for Inactive)
REMARK    1  A    between atoms: C_2  and  C_3
REMARK    2  A    between atoms: N_19  and  C_20
REMARK                            x       y       z     vdW  Elec       q    Type
REMARK                         _______ _______ _______ _____ _____    ______ ____
ROOT
ATOM      1  O   UNL     1      -3.626  11.786  23.822  0.00  0.00    +0.000 OA
ATOM      2  C   UNL     1      -3.268  12.450  22.854  0.00  0.00    +0.000 C 
ATOM      3  N   UNL     1      -4.175  13.074  21.991  0.00  0.00    +0.000 N 
ATOM      4  C   UNL     1      -5.656  12.860  22.157  0.00  0.00    +0.000 C 
ATOM      5  C   UNL     1      -6.003  12.510  20.768  0.00  0.00    +0.000 A 
ATOM      6  C   UNL     1      -6.976  11.915  19.978  0.00  0.00    +0.000 A 
ATOM      7  N   UNL     1      -6.476  11.576  18.775  0.00  0.00    +0.000 NA
ATOM      8  N   UNL     1      -5.158  11.946  18.823  0.00  0.00    +0.000 N 
ATOM      9  C   UNL     1      -4.953  12.717  19.922  0.00  0.00    +0.000 A 
ATOM     10  C   UNL     1      -3.796  13.308  20.576  0.00  0.00    +0.000 C 
ENDROOT
BRANCH   2  11
ATOM     11  C   UNL     1      -1.867  12.609  22.485  0.00  0.00    +0.000 A 
ATOM     12  C   UNL     1      -1.061  11.787  21.710  0.00  0.00    +0.000 A 
ATOM     13  C   UNL     1       0.113  12.520  21.364  0.00  0.00    +0.000 A 
ATOM     14  C   UNL     1       1.214  12.304  20.511  0.00  0.00    +0.000 A 
ATOM     15  F   UNL     1       1.325  11.163  19.817  0.00  0.00    +0.000 F 
ATOM     16  C   UNL     1       2.190  13.295  20.347  0.00  0.00    +0.000 A 
ATOM     17  C   UNL     1       2.083  14.506  21.029  0.00  0.00    +0.000 A 
ATOM     18  C   UNL     1       1.006  14.736  21.883  0.00  0.00    +0.000 A 
ATOM     19  F   UNL     1       0.888  15.907  22.521  0.00  0.00    +0.000 F 
ATOM     20  C   UNL     1       0.040  13.739  22.038  0.00  0.00    +0.000 A 
ATOM     21  N   UNL     1      -1.106  13.719  22.793  0.00  0.00    +0.000 N 
ATOM     22  H   UNL     1      -1.423  14.488  23.368  0.00  0.00    +0.000 HD
ENDBRANCH   2  11
BRANCH   8  23
ATOM     23  C   UNL     1      -4.180  11.389  17.945  0.00  0.00    +0.000 A 
ATOM     24  C   UNL     1      -2.998  10.802  18.424  0.00  0.00    +0.000 A 
ATOM     25  C   UNL     1      -2.117  10.166  17.546  0.00  0.00    +0.000 A 
ATOM     26  C   UNL     1      -2.400  10.125  16.183  0.00  0.00    +0.000 A 
ATOM     27  C   UNL     1      -3.569  10.709  15.699  0.00  0.00    +0.000 A 
ATOM     28  C   UNL     1      -4.457  11.341  16.573  0.00  0.00    +0.000 A 
ENDBRANCH   8  23
TORSDOF 2
ENDMDL
MODEL 7
REMARK VINA RESULT:      -8.3      1.024      2.115
REMARK  Name = 
REMARK  2 active torsions:
REMARK  status: ('A' for Active; 'I' for Inactive)
REMARK    1  A    between atoms: C_2  and  C_3
REMARK    2  A    between atoms: N_19  and  C_20
REMARK                            x       y       z     vdW  Elec       q    Type
REMARK                         _______ _______ _______ _____ _____    ______ ____
ROOT
ATOM      1  O   UNL     1      -0.123   9.148  23.139  0.00  0.00    +0.000 OA
ATOM      2  C   UNL     1       0.223   9.570  22.041  0.00  0.00    +0.000 C 
ATOM      3  N   UNL     1       0.048  10.904  21.656  0.00  0.00    +0.000 N 
ATOM      4  C   UNL     1      -0.687  11.865  22.551  0.00  0.00    +0.000 C 
ATOM      5  C   UNL     1      -1.633  12.428  21.571  0.00  0.00    +0.000 A 
ATOM      6  C   UNL     1      -2.823  13.131  21.446  0.00  0.00    +0.000 A 
ATOM      7  N   UNL     1      -3.338  12.986  20.211  0.00  0.00    +0.000 NA
ATOM      8  N   UNL     1      -2.463  12.158  19.558  0.00  0.00    +0.000 N 
ATOM      9  C   UNL     1      -1.333  12.032  20.300  0.00  0.00    +0.000 A 
ATOM     10  C   UNL     1      -0.119  11.234  20.219  0.00  0.00    +0.000 C 
ENDROOT
BRANCH   2  11
ATOM     11  C   UNL     1       0.804   8.711  21.017  0.00  0.00    +0.000 A 
ATOM     12  C   UNL     1       1.176   9.020  19.716  0.00  0.00    +0.000 A 
ATOM     13  C   UNL     1       1.988   7.954  19.225  0.00  0.00    +0.000 A 
ATOM     14  C   UNL     1       2.762   7.736  18.067  0.00  0.00    +0.000 A 
ATOM     15  F   UNL     1       2.816   8.661  17.098  0.00  0.00    +0.000 F 
ATOM     16  C   UNL     1       3.519   6.565  17.930  0.00  0.00    +0.000 A 
ATOM     17  C   UNL     1       3.511   5.602  18.937  0.00  0.00    +0.000 A 
ATOM     18  C   UNL     1       2.745   5.795  20.085  0.00  0.00    +0.000 A 
ATOM     19  F   UNL     1       2.754   4.882  21.064  0.00  0.00    +0.000 F 
ATOM     20  C   UNL     1       1.995   6.967  20.209  0.00  0.00    +0.000 A 
ATOM     21  N   UNL     1       1.183   7.401  21.228  0.00  0.00    +0.000 N 
ATOM     22  H   UNL     1       1.023   6.891  22.086  0.00  0.00    +0.000 HD
ENDBRANCH   2  11
BRANCH   8  23
ATOM     23  C   UNL     1      -2.841  11.416  18.399  0.00  0.00    +0.000 A 
ATOM     24  C   UNL     1      -4.053  11.648  17.729  0.00  0.00    +0.000 A 
ATOM     25  C   UNL     1      -4.340  10.983  16.535  0.00  0.00    +0.000 A 
ATOM     26  C   UNL     1      -3.429  10.071  16.008  0.00  0.00    +0.000 A 
ATOM     27  C   UNL     1      -2.226   9.831  16.669  0.00  0.00    +0.000 A 
ATOM     28  C   UNL     1      -1.930  10.497  17.861  0.00  0.00    +0.000 A 
ENDBRANCH   8  23
TORSDOF 2
ENDMDL
MODEL 8
REMARK VINA RESULT:      -8.3      3.968      6.993
REMARK  Name = 
REMARK  2 active torsions:
REMARK  status: ('A' for Active; 'I' for Inactive)
REMARK    1  A    between atoms: C_2  and  C_3
REMARK    2  A    between atoms: N_19  and  C_20
REMARK                            x       y       z     vdW  Elec       q    Type
REMARK                         _______ _______ _______ _____ _____    ______ ____
ROOT
ATOM      1  O   UNL     1      -7.148  11.877  23.226  0.00  0.00    +0.000 OA
ATOM      2  C   UNL     1      -6.378  12.656  22.673  0.00  0.00    +0.000 C 
ATOM      3  N   UNL     1      -6.544  13.065  21.345  0.00  0.00    +0.000 N 
ATOM      4  C   UNL     1      -7.631  12.467  20.493  0.00  0.00    +0.000 C 
ATOM      5  C   UNL     1      -6.833  12.105  19.308  0.00  0.00    +0.000 A 
ATOM      6  C   UNL     1      -6.826  11.317  18.166  0.00  0.00    +0.000 A 
ATOM      7  N   UNL     1      -5.577  11.177  17.686  0.00  0.00    +0.000 NA
ATOM      8  N   UNL     1      -4.783  11.873  18.560  0.00  0.00    +0.000 N 
ATOM      9  C   UNL     1      -5.570  12.618  19.379  0.00  0.00    +0.000 A 
ATOM     10  C   UNL     1      -5.355  13.456  20.548  0.00  0.00    +0.000 C 
ENDROOT
BRANCH   2  11
ATOM     11  C   UNL     1      -5.194  13.191  23.332  0.00  0.00    +0.000 A 
ATOM     12  C   UNL     1      -3.869  12.792  23.222  0.00  0.00    +0.000 A 
ATOM     13  C   UNL     1      -3.052  13.814  23.792  0.00  0.00    +0.000 A 
ATOM     14  C   UNL     1      -1.667  14.066  23.864  0.00  0.00    +0.000 A 
ATOM     15  F   UNL     1      -0.789  13.204  23.332  0.00  0.00    +0.000 F 
ATOM     16  C   UNL     1      -1.189  15.241  24.458  0.00  0.00    +0.000 A 
ATOM     17  C   UNL     1      -2.080  16.172  24.988  0.00  0.00    +0.000 A 
ATOM     18  C   UNL     1      -3.453  15.937  24.934  0.00  0.00    +0.000 A 
ATOM     19  F   UNL     1      -4.312  16.841  25.421  0.00  0.00    +0.000 F 
ATOM     20  C   UNL     1      -3.916  14.762  24.340  0.00  0.00    +0.000 A 
ATOM     21  N   UNL     1      -5.196  14.305  24.147  0.00  0.00    +0.000 N 
ATOM     22  H   UNL     1      -6.029  14.808  24.426  0.00  0.00    +0.000 HD
ENDBRANCH   2  11
BRANCH   8  23
ATOM     23  C   UNL     1      -3.381  11.630  18.671  0.00  0.00    +0.000 A 
ATOM     24  C   UNL     1      -2.590  12.266  19.641  0.00  0.00    +0.000 A 
ATOM     25  C   UNL     1      -1.245  11.922  19.794  0.00  0.00    +0.000 A 
ATOM     26  C   UNL     1      -0.675  10.953  18.972  0.00  0.00    +0.000 A 
ATOM     27  C   UNL     1      -1.452  10.321  18.003  0.00  0.00    +0.000 A 
ATOM     28  C   UNL     1      -2.799  10.657  17.848  0.00  0.00    +0.000 A 
ENDBRANCH   8  23
TORSDOF 2
ENDMDL
MODEL 9
REMARK VINA RESULT:      -8.1      3.181      4.759
REMARK  Name = 
REMARK  2 active torsions:
REMARK  status: ('A' for Active; 'I' for Inactive)
REMARK    1  A    between atoms: C_2  and  C_3
REMARK    2  A    between atoms: N_19  and  C_20
REMARK                            x       y       z     vdW  Elec       q    Type
REMARK                         _______ _______ _______ _____ _____    ______ ____
ROOT
ATOM      1  O   UNL     1      -3.708  12.016  23.459  0.00  0.00    +0.000 OA
ATOM      2  C   UNL     1      -3.594  12.645  22.412  0.00  0.00    +0.000 C 
ATOM      3  N   UNL     1      -4.686  12.949  21.592  0.00  0.00    +0.000 N 
ATOM      4  C   UNL     1      -6.054  12.410  21.914  0.00  0.00    +0.000 C 
ATOM      5  C   UNL     1      -6.406  11.851  20.597  0.00  0.00    +0.000 A 
ATOM      6  C   UNL     1      -7.261  10.967  19.953  0.00  0.00    +0.000 A 
ATOM      7  N   UNL     1      -6.783  10.637  18.738  0.00  0.00    +0.000 NA
ATOM      8  N   UNL     1      -5.594  11.309  18.632  0.00  0.00    +0.000 N 
ATOM      9  C   UNL     1      -5.503  12.213  19.641  0.00  0.00    +0.000 A 
ATOM     10  C   UNL     1      -4.479  13.122  20.133  0.00  0.00    +0.000 C 
ENDROOT
BRANCH   2  11
ATOM     11  C   UNL     1      -2.304  13.092  21.900  0.00  0.00    +0.000 A 
ATOM     12  C   UNL     1      -1.636  14.288  22.119  0.00  0.00    +0.000 A 
ATOM     13  C   UNL     1      -0.286  14.126  21.684  0.00  0.00    +0.000 A 
ATOM     14  C   UNL     1       0.890  14.897  21.761  0.00  0.00    +0.000 A 
ATOM     15  F   UNL     1       0.876  16.109  22.333  0.00  0.00    +0.000 F 
ATOM     16  C   UNL     1       2.103  14.391  21.276  0.00  0.00    +0.000 A 
ATOM     17  C   UNL     1       2.157  13.119  20.709  0.00  0.00    +0.000 A 
ATOM     18  C   UNL     1       1.002  12.345  20.616  0.00  0.00    +0.000 A 
ATOM     19  F   UNL     1       1.055  11.114  20.093  0.00  0.00    +0.000 F 
ATOM     20  C   UNL     1      -0.201  12.861  21.103  0.00  0.00    +0.000 A 
ATOM     21  N   UNL     1      -1.456  12.307  21.146  0.00  0.00    +0.000 N 
ATOM     22  H   UNL     1      -1.681  11.379  20.812  0.00  0.00    +0.000 HD
ENDBRANCH   2  11
BRANCH   8  23
ATOM     23  C   UNL     1      -4.577  10.912  17.712  0.00  0.00    +0.000 A 
ATOM     24  C   UNL     1      -4.530  11.403  16.398  0.00  0.00    +0.000 A 
ATOM     25  C   UNL     1      -3.459  11.083  15.561  0.00  0.00    +0.000 A 
ATOM     26  C   UNL     1      -2.436  10.257  16.022  0.00  0.00    +0.000 A 
ATOM     27  C   UNL     1      -2.478   9.761  17.323  0.00  0.00    +0.000 A 
ATOM     28  C   UNL     1      -3.543  10.083  18.167  0.00  0.00    +0.000 A 
ENDBRANCH   8  23
TORSDOF 2
ENDMDL
