MODEL 1
REMARK VINA RESULT:      -8.3      0.000      0.000
REMARK  Name = 
REMARK  8 active torsions:
REMARK  status: ('A' for Active; 'I' for Inactive)
REMARK    1  A    between atoms: C_1  and  N_2
REMARK    2  A    between atoms: C_6  and  C_7
REMARK    3  A    between atoms: C_7  and  C_8
REMARK    4  A    between atoms: C_8  and  N_9
REMARK    5  A    between atoms: N_9  and  C_10
REMARK    6  A    between atoms: C_10  and  C_11
REMARK    7  A    between atoms: C_13  and  N_14
REMARK    8  A    between atoms: C_21  and  C_22
REMARK                            x       y       z     vdW  Elec       q    Type
REMARK                         _______ _______ _______ _____ _____    ______ ____
ROOT
ATOM      1  C   UNL     1       4.348   4.811  19.005  0.00  0.00    +0.000 A 
ATOM      2  C   UNL     1       3.808   6.053  19.327  0.00  0.00    +0.000 A 
ATOM      3  C   UNL     1       2.569   6.429  18.814  0.00  0.00    +0.000 A 
ATOM      4  C   UNL     1       1.930   5.537  17.950  0.00  0.00    +0.000 A 
ATOM      5  C   UNL     1       2.532   4.317  17.678  0.00  0.00    +0.000 A 
ATOM      6  N   UNL     1       3.715   3.931  18.190  0.00  0.00    +0.000 NA
ENDROOT
BRANCH   3   7
ATOM      7  N   UNL     1       1.971   7.665  19.172  0.00  0.00    +0.000 N 
ATOM      8  C   UNL     1       1.380   7.898  20.481  0.00  0.00    +0.000 C 
ATOM      9  C   UNL     1       0.886   9.307  20.397  0.00  0.00    +0.000 A 
ATOM     10  C   UNL     1       1.194   9.827  19.145  0.00  0.00    +0.000 A 
ATOM     11  C   UNL     1       0.874  11.117  18.760  0.00  0.00    +0.000 A 
ATOM     12  C   UNL     1       0.205  11.911  19.685  0.00  0.00    +0.000 A 
ATOM     13  C   UNL     1      -0.116  11.404  20.960  0.00  0.00    +0.000 A 
ATOM     14  C   UNL     1       0.225  10.088  21.340  0.00  0.00    +0.000 A 
ATOM     15  C   UNL     1       1.888   8.802  18.365  0.00  0.00    +0.000 C 
ATOM     16  O   UNL     1       2.289   9.024  17.238  0.00  0.00    +0.000 OA
BRANCH  14  17
ATOM     17  C   UNL     1      -0.120   9.587  22.716  0.00  0.00    +0.000 C 
ATOM     18  F   UNL     1      -0.811  10.489  23.468  0.00  0.00    +0.000 F 
ATOM     19  F   UNL     1      -0.894   8.469  22.679  0.00  0.00    +0.000 F 
ATOM     20  F   UNL     1       0.982   9.261  23.443  0.00  0.00    +0.000 F 
ENDBRANCH  14  17
ENDBRANCH   3   7
BRANCH   1  21
ATOM     21  C   UNL     1       5.656   4.385  19.640  0.00  0.00    +0.000 C 
BRANCH  21  22
ATOM     22  N   UNL     1       6.804   4.378  18.712  0.00  0.00    +0.000 NA
ATOM     23  H   UNL     1       7.445   3.655  19.051  0.00  0.00    +0.000 HD
BRANCH  22  24
ATOM     24  C   UNL     1       7.528   5.658  18.673  0.00  0.00    +0.000 C 
BRANCH  24  25
ATOM     25  C   UNL     1       7.436   6.458  17.365  0.00  0.00    +0.000 C 
BRANCH  25  31
ATOM     26  C   UNL     1       4.725   6.893  15.869  0.00  0.00    +0.000 C 
ATOM     27  N   UNL     1       5.691   5.862  15.607  0.00  0.00    +0.000 N 
ATOM     28  C   UNL     1       5.585   4.891  14.659  0.00  0.00    +0.000 A 
ATOM     29  N   UNL     1       6.636   4.109  14.713  0.00  0.00    +0.000 NA
ATOM     30  N   UNL     1       7.454   4.582  15.707  0.00  0.00    +0.000 NA
ATOM     31  C   UNL     1       6.884   5.644  16.243  0.00  0.00    +0.000 A 
ENDBRANCH  25  31
ENDBRANCH  24  25
ENDBRANCH  22  24
ENDBRANCH  21  22
ENDBRANCH   1  21
TORSDOF 7
ENDMDL
MODEL 2
REMARK VINA RESULT:      -8.2      1.365      1.997
REMARK  Name = 
REMARK  8 active torsions:
REMARK  status: ('A' for Active; 'I' for Inactive)
REMARK    1  A    between atoms: C_1  and  N_2
REMARK    2  A    between atoms: C_6  and  C_7
REMARK    3  A    between atoms: C_7  and  C_8
REMARK    4  A    between atoms: C_8  and  N_9
REMARK    5  A    between atoms: N_9  and  C_10
REMARK    6  A    between atoms: C_10  and  C_11
REMARK    7  A    between atoms: C_13  and  N_14
REMARK    8  A    between atoms: C_21  and  C_22
REMARK                            x       y       z     vdW  Elec       q    Type
REMARK                         _______ _______ _______ _____ _____    ______ ____
ROOT
ATOM      1  C   UNL     1       4.525   4.674  19.333  0.00  0.00    +0.000 A 
ATOM      2  C   UNL     1       3.924   5.928  19.388  0.00  0.00    +0.000 A 
ATOM      3  C   UNL     1       2.578   6.041  19.730  0.00  0.00    +0.000 A 
ATOM      4  C   UNL     1       1.870   4.861  19.968  0.00  0.00    +0.000 A 
ATOM      5  C   UNL     1       2.541   3.649  19.894  0.00  0.00    +0.000 A 
ATOM      6  N   UNL     1       3.848   3.529  19.594  0.00  0.00    +0.000 NA
ENDROOT
BRANCH   3   7
ATOM      7  N   UNL     1       1.955   7.311  19.848  0.00  0.00    +0.000 N 
ATOM      8  C   UNL     1       1.294   7.747  21.068  0.00  0.00    +0.000 C 
ATOM      9  C   UNL     1       0.798   9.116  20.728  0.00  0.00    +0.000 A 
ATOM     10  C   UNL     1       1.171   9.428  19.425  0.00  0.00    +0.000 A 
ATOM     11  C   UNL     1       0.866  10.633  18.818  0.00  0.00    +0.000 A 
ATOM     12  C   UNL     1       0.144  11.559  19.563  0.00  0.00    +0.000 A 
ATOM     13  C   UNL     1      -0.243  11.263  20.885  0.00  0.00    +0.000 A 
ATOM     14  C   UNL     1       0.083  10.032  21.493  0.00  0.00    +0.000 A 
ATOM     15  C   UNL     1       1.911   8.299  18.861  0.00  0.00    +0.000 C 
ATOM     16  O   UNL     1       2.372   8.339  17.736  0.00  0.00    +0.000 OA
BRANCH  14  17
ATOM     17  C   UNL     1      -0.334   9.758  22.913  0.00  0.00    +0.000 C 
ATOM     18  F   UNL     1      -1.147   8.673  23.043  0.00  0.00    +0.000 F 
ATOM     19  F   UNL     1       0.730   9.520  23.726  0.00  0.00    +0.000 F 
ATOM     20  F   UNL     1      -1.010  10.799  23.468  0.00  0.00    +0.000 F 
ENDBRANCH  14  17
ENDBRANCH   3   7
BRANCH   1  21
ATOM     21  C   UNL     1       6.010   4.576  19.045  0.00  0.00    +0.000 C 
BRANCH  21  22
ATOM     22  N   UNL     1       6.334   3.919  17.763  0.00  0.00    +0.000 NA
ATOM     23  H   UNL     1       7.353   3.836  17.731  0.00  0.00    +0.000 HD
BRANCH  22  24
ATOM     24  C   UNL     1       5.893   4.688  16.589  0.00  0.00    +0.000 C 
BRANCH  24  25
ATOM     25  C   UNL     1       5.844   3.929  15.253  0.00  0.00    +0.000 C 
BRANCH  25  31
ATOM     26  C   UNL     1       6.012   3.192  12.219  0.00  0.00    +0.000 C 
ATOM     27  N   UNL     1       6.794   4.185  12.903  0.00  0.00    +0.000 N 
ATOM     28  C   UNL     1       7.750   4.975  12.342  0.00  0.00    +0.000 A 
ATOM     29  N   UNL     1       8.274   5.749  13.262  0.00  0.00    +0.000 NA
ATOM     30  N   UNL     1       7.642   5.472  14.446  0.00  0.00    +0.000 NA
ATOM     31  C   UNL     1       6.745   4.530  14.228  0.00  0.00    +0.000 A 
ENDBRANCH  25  31
ENDBRANCH  24  25
ENDBRANCH  22  24
ENDBRANCH  21  22
ENDBRANCH   1  21
TORSDOF 7
ENDMDL
MODEL 3
REMARK VINA RESULT:      -7.8      0.706      1.399
REMARK  Name = 
REMARK  8 active torsions:
REMARK  status: ('A' for Active; 'I' for Inactive)
REMARK    1  A    between atoms: C_1  and  N_2
REMARK    2  A    between atoms: C_6  and  C_7
REMARK    3  A    between atoms: C_7  and  C_8
REMARK    4  A    between atoms: C_8  and  N_9
REMARK    5  A    between atoms: N_9  and  C_10
REMARK    6  A    between atoms: C_10  and  C_11
REMARK    7  A    between atoms: C_13  and  N_14
REMARK    8  A    between atoms: C_21  and  C_22
REMARK                            x       y       z     vdW  Elec       q    Type
REMARK                         _______ _______ _______ _____ _____    ______ ____
ROOT
ATOM      1  C   UNL     1       4.305   4.747  18.859  0.00  0.00    +0.000 A 
ATOM      2  C   UNL     1       3.801   6.001  19.193  0.00  0.00    +0.000 A 
ATOM      3  C   UNL     1       2.527   6.374  18.772  0.00  0.00    +0.000 A 
ATOM      4  C   UNL     1       1.815   5.466  17.983  0.00  0.00    +0.000 A 
ATOM      5  C   UNL     1       2.387   4.235  17.694  0.00  0.00    +0.000 A 
ATOM      6  N   UNL     1       3.604   3.852  18.120  0.00  0.00    +0.000 NA
ENDROOT
BRANCH   3   7
ATOM      7  N   UNL     1       1.967   7.623  19.145  0.00  0.00    +0.000 N 
ATOM      8  C   UNL     1       1.380   7.856  20.455  0.00  0.00    +0.000 C 
ATOM      9  C   UNL     1       0.931   9.281  20.390  0.00  0.00    +0.000 A 
ATOM     10  C   UNL     1       1.260   9.809  19.146  0.00  0.00    +0.000 A 
ATOM     11  C   UNL     1       0.982  11.113  18.779  0.00  0.00    +0.000 A 
ATOM     12  C   UNL     1       0.335  11.916  19.713  0.00  0.00    +0.000 A 
ATOM     13  C   UNL     1      -0.006  11.401  20.979  0.00  0.00    +0.000 A 
ATOM     14  C   UNL     1       0.291  10.070  21.342  0.00  0.00    +0.000 A 
ATOM     15  C   UNL     1       1.924   8.774  18.353  0.00  0.00    +0.000 C 
ATOM     16  O   UNL     1       2.335   8.999  17.231  0.00  0.00    +0.000 OA
BRANCH  14  17
ATOM     17  C   UNL     1      -0.074   9.560  22.709  0.00  0.00    +0.000 C 
ATOM     18  F   UNL     1       1.004   9.238  23.478  0.00  0.00    +0.000 F 
ATOM     19  F   UNL     1      -0.780  10.474  23.429  0.00  0.00    +0.000 F 
ATOM     20  F   UNL     1      -0.844   8.441  22.660  0.00  0.00    +0.000 F 
ENDBRANCH  14  17
ENDBRANCH   3   7
BRANCH   1  21
ATOM     21  C   UNL     1       5.657   4.325  19.399  0.00  0.00    +0.000 C 
BRANCH  21  22
ATOM     22  N   UNL     1       6.519   5.451  19.814  0.00  0.00    +0.000 NA
ATOM     23  H   UNL     1       5.976   6.303  19.655  0.00  0.00    +0.000 HD
BRANCH  22  24
ATOM     24  C   UNL     1       7.766   5.543  19.040  0.00  0.00    +0.000 C 
BRANCH  24  25
ATOM     25  C   UNL     1       7.829   6.647  17.972  0.00  0.00    +0.000 C 
BRANCH  25  31
ATOM     26  C   UNL     1       7.284   4.246  16.044  0.00  0.00    +0.000 C 
ATOM     27  N   UNL     1       6.519   5.458  16.138  0.00  0.00    +0.000 N 
ATOM     28  C   UNL     1       5.422   5.770  15.395  0.00  0.00    +0.000 A 
ATOM     29  N   UNL     1       4.990   6.963  15.729  0.00  0.00    +0.000 NA
ATOM     30  N   UNL     1       5.811   7.437  16.720  0.00  0.00    +0.000 NA
ATOM     31  C   UNL     1       6.731   6.526  16.970  0.00  0.00    +0.000 A 
ENDBRANCH  25  31
ENDBRANCH  24  25
ENDBRANCH  22  24
ENDBRANCH  21  22
ENDBRANCH   1  21
TORSDOF 7
ENDMDL
MODEL 4
REMARK VINA RESULT:      -7.8      1.346      2.235
REMARK  Name = 
REMARK  8 active torsions:
REMARK  status: ('A' for Active; 'I' for Inactive)
REMARK    1  A    between atoms: C_1  and  N_2
REMARK    2  A    between atoms: C_6  and  C_7
REMARK    3  A    between atoms: C_7  and  C_8
REMARK    4  A    between atoms: C_8  and  N_9
REMARK    5  A    between atoms: N_9  and  C_10
REMARK    6  A    between atoms: C_10  and  C_11
REMARK    7  A    between atoms: C_13  and  N_14
REMARK    8  A    between atoms: C_21  and  C_22
REMARK                            x       y       z     vdW  Elec       q    Type
REMARK                         _______ _______ _______ _____ _____    ______ ____
ROOT
ATOM      1  C   UNL     1       3.493   3.756  18.537  0.00  0.00    +0.000 A 
ATOM      2  C   UNL     1       3.070   5.081  18.578  0.00  0.00    +0.000 A 
ATOM      3  C   UNL     1       2.337   5.545  19.668  0.00  0.00    +0.000 A 
ATOM      4  C   UNL     1       2.022   4.627  20.673  0.00  0.00    +0.000 A 
ATOM      5  C   UNL     1       2.482   3.323  20.560  0.00  0.00    +0.000 A 
ATOM      6  N   UNL     1       3.216   2.871  19.526  0.00  0.00    +0.000 NA
ENDROOT
BRANCH   3   7
ATOM      7  N   UNL     1       1.942   6.905  19.762  0.00  0.00    +0.000 N 
ATOM      8  C   UNL     1       1.303   7.453  20.948  0.00  0.00    +0.000 C 
ATOM      9  C   UNL     1       1.074   8.888  20.591  0.00  0.00    +0.000 A 
ATOM     10  C   UNL     1       1.565   9.126  19.312  0.00  0.00    +0.000 A 
ATOM     11  C   UNL     1       1.509  10.364  18.697  0.00  0.00    +0.000 A 
ATOM     12  C   UNL     1       0.921  11.404  19.409  0.00  0.00    +0.000 A 
ATOM     13  C   UNL     1       0.418  11.185  20.707  0.00  0.00    +0.000 A 
ATOM     14  C   UNL     1       0.490   9.917  21.324  0.00  0.00    +0.000 A 
ATOM     15  C   UNL     1       2.125   7.883  18.781  0.00  0.00    +0.000 C 
ATOM     16  O   UNL     1       2.645   7.838  17.682  0.00  0.00    +0.000 OA
BRANCH  14  17
ATOM     17  C   UNL     1      -0.044   9.724  22.717  0.00  0.00    +0.000 C 
ATOM     18  F   UNL     1       0.915   9.394  23.627  0.00  0.00    +0.000 F 
ATOM     19  F   UNL     1      -0.640  10.847  23.201  0.00  0.00    +0.000 F 
ATOM     20  F   UNL     1      -0.978   8.739  22.785  0.00  0.00    +0.000 F 
ENDBRANCH  14  17
ENDBRANCH   3   7
BRANCH   1  21
ATOM     21  C   UNL     1       4.363   3.292  17.385  0.00  0.00    +0.000 C 
BRANCH  21  22
ATOM     22  N   UNL     1       4.536   4.297  16.317  0.00  0.00    +0.000 NA
ATOM     23  H   UNL     1       3.654   4.319  15.797  0.00  0.00    +0.000 HD
BRANCH  22  24
ATOM     24  C   UNL     1       5.620   3.966  15.379  0.00  0.00    +0.000 C 
BRANCH  24  25
ATOM     25  C   UNL     1       6.898   4.812  15.484  0.00  0.00    +0.000 C 
BRANCH  25  31
ATOM     26  C   UNL     1       6.259   7.320  17.239  0.00  0.00    +0.000 C 
ATOM     27  N   UNL     1       7.007   6.162  17.642  0.00  0.00    +0.000 N 
ATOM     28  C   UNL     1       7.572   5.962  18.864  0.00  0.00    +0.000 A 
ATOM     29  N   UNL     1       8.196   4.808  18.875  0.00  0.00    +0.000 NA
ATOM     30  N   UNL     1       8.026   4.234  17.642  0.00  0.00    +0.000 NA
ATOM     31  C   UNL     1       7.304   5.050  16.899  0.00  0.00    +0.000 A 
ENDBRANCH  25  31
ENDBRANCH  24  25
ENDBRANCH  22  24
ENDBRANCH  21  22
ENDBRANCH   1  21
TORSDOF 7
ENDMDL
MODEL 5
REMARK VINA RESULT:      -7.7      1.500      2.261
REMARK  Name = 
REMARK  8 active torsions:
REMARK  status: ('A' for Active; 'I' for Inactive)
REMARK    1  A    between atoms: C_1  and  N_2
REMARK    2  A    between atoms: C_6  and  C_7
REMARK    3  A    between atoms: C_7  and  C_8
REMARK    4  A    between atoms: C_8  and  N_9
REMARK    5  A    between atoms: N_9  and  C_10
REMARK    6  A    between atoms: C_10  and  C_11
REMARK    7  A    between atoms: C_13  and  N_14
REMARK    8  A    between atoms: C_21  and  C_22
REMARK                            x       y       z     vdW  Elec       q    Type
REMARK                         _______ _______ _______ _____ _____    ______ ____
ROOT
ATOM      1  C   UNL     1       3.738   4.053  19.314  0.00  0.00    +0.000 A 
ATOM      2  C   UNL     1       3.329   5.382  19.281  0.00  0.00    +0.000 A 
ATOM      3  C   UNL     1       2.180   5.775  19.963  0.00  0.00    +0.000 A 
ATOM      4  C   UNL     1       1.455   4.785  20.632  0.00  0.00    +0.000 A 
ATOM      5  C   UNL     1       1.929   3.481  20.618  0.00  0.00    +0.000 A 
ATOM      6  N   UNL     1       3.054   3.095  19.987  0.00  0.00    +0.000 NA
ENDROOT
BRANCH   3   7
ATOM      7  N   UNL     1       1.772   7.133  19.992  0.00  0.00    +0.000 N 
ATOM      8  C   UNL     1       1.132   7.733  21.153  0.00  0.00    +0.000 C 
ATOM      9  C   UNL     1       0.888   9.146  20.729  0.00  0.00    +0.000 A 
ATOM     10  C   UNL     1       1.372   9.326  19.437  0.00  0.00    +0.000 A 
ATOM     11  C   UNL     1       1.301  10.533  18.764  0.00  0.00    +0.000 A 
ATOM     12  C   UNL     1       0.707  11.601  19.427  0.00  0.00    +0.000 A 
ATOM     13  C   UNL     1       0.211  11.440  20.736  0.00  0.00    +0.000 A 
ATOM     14  C   UNL     1       0.298  10.205  21.413  0.00  0.00    +0.000 A 
ATOM     15  C   UNL     1       1.941   8.065  18.965  0.00  0.00    +0.000 C 
ATOM     16  O   UNL     1       2.457   7.972  17.867  0.00  0.00    +0.000 OA
BRANCH  14  17
ATOM     17  C   UNL     1      -0.228  10.074  22.817  0.00  0.00    +0.000 C 
ATOM     18  F   UNL     1      -0.758  11.228  23.310  0.00  0.00    +0.000 F 
ATOM     19  F   UNL     1      -1.217   9.145  22.913  0.00  0.00    +0.000 F 
ATOM     20  F   UNL     1       0.733   9.698  23.701  0.00  0.00    +0.000 F 
ENDBRANCH  14  17
ENDBRANCH   3   7
BRANCH   1  21
ATOM     21  C   UNL     1       5.037   3.661  18.638  0.00  0.00    +0.000 C 
BRANCH  21  22
ATOM     22  N   UNL     1       4.909   3.398  17.191  0.00  0.00    +0.000 NA
ATOM     23  H   UNL     1       5.092   2.399  17.061  0.00  0.00    +0.000 HD
BRANCH  22  24
ATOM     24  C   UNL     1       5.872   4.155  16.375  0.00  0.00    +0.000 C 
BRANCH  24  25
ATOM     25  C   UNL     1       7.258   4.390  16.995  0.00  0.00    +0.000 C 
BRANCH  25  31
ATOM     26  C   UNL     1       8.001   5.639  19.764  0.00  0.00    +0.000 C 
ATOM     27  N   UNL     1       7.830   6.346  18.524  0.00  0.00    +0.000 N 
ATOM     28  C   UNL     1       7.961   7.689  18.346  0.00  0.00    +0.000 A 
ATOM     29  N   UNL     1       7.715   7.991  17.094  0.00  0.00    +0.000 NA
ATOM     30  N   UNL     1       7.431   6.823  16.434  0.00  0.00    +0.000 NA
ATOM     31  C   UNL     1       7.506   5.829  17.298  0.00  0.00    +0.000 A 
ENDBRANCH  25  31
ENDBRANCH  24  25
ENDBRANCH  22  24
ENDBRANCH  21  22
ENDBRANCH   1  21
TORSDOF 7
ENDMDL
MODEL 6
REMARK VINA RESULT:      -7.7      1.042      1.111
REMARK  Name = 
REMARK  8 active torsions:
REMARK  status: ('A' for Active; 'I' for Inactive)
REMARK    1  A    between atoms: C_1  and  N_2
REMARK    2  A    between atoms: C_6  and  C_7
REMARK    3  A    between atoms: C_7  and  C_8
REMARK    4  A    between atoms: C_8  and  N_9
REMARK    5  A    between atoms: N_9  and  C_10
REMARK    6  A    between atoms: C_10  and  C_11
REMARK    7  A    between atoms: C_13  and  N_14
REMARK    8  A    between atoms: C_21  and  C_22
REMARK                            x       y       z     vdW  Elec       q    Type
REMARK                         _______ _______ _______ _____ _____    ______ ____
ROOT
ATOM      1  C   UNL     1       4.690   4.522  19.418  0.00  0.00    +0.000 A 
ATOM      2  C   UNL     1       4.093   5.779  19.430  0.00  0.00    +0.000 A 
ATOM      3  C   UNL     1       2.731   5.902  19.690  0.00  0.00    +0.000 A 
ATOM      4  C   UNL     1       2.003   4.727  19.892  0.00  0.00    +0.000 A 
ATOM      5  C   UNL     1       2.670   3.511  19.865  0.00  0.00    +0.000 A 
ATOM      6  N   UNL     1       3.991   3.382  19.644  0.00  0.00    +0.000 NA
ENDROOT
BRANCH   3   7
ATOM      7  N   UNL     1       2.109   7.176  19.763  0.00  0.00    +0.000 N 
ATOM      8  C   UNL     1       1.416   7.640  20.955  0.00  0.00    +0.000 C 
ATOM      9  C   UNL     1       0.935   9.003  20.573  0.00  0.00    +0.000 A 
ATOM     10  C   UNL     1       1.344   9.286  19.274  0.00  0.00    +0.000 A 
ATOM     11  C   UNL     1       1.060  10.479  18.633  0.00  0.00    +0.000 A 
ATOM     12  C   UNL     1       0.321  11.422  19.338  0.00  0.00    +0.000 A 
ATOM     13  C   UNL     1      -0.103  11.156  20.655  0.00  0.00    +0.000 A 
ATOM     14  C   UNL     1       0.202   9.938  21.299  0.00  0.00    +0.000 A 
ATOM     15  C   UNL     1       2.096   8.143  18.755  0.00  0.00    +0.000 C 
ATOM     16  O   UNL     1       2.587   8.157  17.643  0.00  0.00    +0.000 OA
BRANCH  14  17
ATOM     17  C   UNL     1      -0.254   9.695  22.712  0.00  0.00    +0.000 C 
ATOM     18  F   UNL     1      -0.979  10.723  23.235  0.00  0.00    +0.000 F 
ATOM     19  F   UNL     1      -1.047   8.594  22.816  0.00  0.00    +0.000 F 
ATOM     20  F   UNL     1       0.784   9.498  23.568  0.00  0.00    +0.000 F 
ENDBRANCH  14  17
ENDBRANCH   3   7
BRANCH   1  21
ATOM     21  C   UNL     1       6.188   4.414  19.220  0.00  0.00    +0.000 C 
BRANCH  21  22
ATOM     22  N   UNL     1       6.894   5.711  19.241  0.00  0.00    +0.000 NA
ATOM     23  H   UNL     1       6.197   6.415  19.500  0.00  0.00    +0.000 HD
BRANCH  22  24
ATOM     24  C   UNL     1       7.465   6.083  17.937  0.00  0.00    +0.000 C 
BRANCH  24  25
ATOM     25  C   UNL     1       6.464   6.461  16.834  0.00  0.00    +0.000 C 
BRANCH  25  31
ATOM     26  C   UNL     1       4.472   4.168  16.092  0.00  0.00    +0.000 C 
ATOM     27  N   UNL     1       5.651   4.547  15.363  0.00  0.00    +0.000 N 
ATOM     28  C   UNL     1       6.105   3.964  14.219  0.00  0.00    +0.000 A 
ATOM     29  N   UNL     1       7.216   4.548  13.841  0.00  0.00    +0.000 NA
ATOM     30  N   UNL     1       7.490   5.542  14.745  0.00  0.00    +0.000 NA
ATOM     31  C   UNL     1       6.542   5.544  15.661  0.00  0.00    +0.000 A 
ENDBRANCH  25  31
ENDBRANCH  24  25
ENDBRANCH  22  24
ENDBRANCH  21  22
ENDBRANCH   1  21
TORSDOF 7
ENDMDL
MODEL 7
REMARK VINA RESULT:      -7.5      1.352      1.813
REMARK  Name = 
REMARK  8 active torsions:
REMARK  status: ('A' for Active; 'I' for Inactive)
REMARK    1  A    between atoms: C_1  and  N_2
REMARK    2  A    between atoms: C_6  and  C_7
REMARK    3  A    between atoms: C_7  and  C_8
REMARK    4  A    between atoms: C_8  and  N_9
REMARK    5  A    between atoms: N_9  and  C_10
REMARK    6  A    between atoms: C_10  and  C_11
REMARK    7  A    between atoms: C_13  and  N_14
REMARK    8  A    between atoms: C_21  and  C_22
REMARK                            x       y       z     vdW  Elec       q    Type
REMARK                         _______ _______ _______ _____ _____    ______ ____
ROOT
ATOM      1  C   UNL     1       5.001   5.153  19.036  0.00  0.00    +0.000 A 
ATOM      2  C   UNL     1       4.259   6.329  19.095  0.00  0.00    +0.000 A 
ATOM      3  C   UNL     1       2.919   6.289  19.471  0.00  0.00    +0.000 A 
ATOM      4  C   UNL     1       2.359   5.037  19.738  0.00  0.00    +0.000 A 
ATOM      5  C   UNL     1       3.165   3.911  19.658  0.00  0.00    +0.000 A 
ATOM      6  N   UNL     1       4.469   3.940  19.325  0.00  0.00    +0.000 NA
ENDROOT
BRANCH   3   7
ATOM      7  N   UNL     1       2.156   7.479  19.593  0.00  0.00    +0.000 N 
ATOM      8  C   UNL     1       1.475   7.848  20.825  0.00  0.00    +0.000 C 
ATOM      9  C   UNL     1       0.816   9.147  20.486  0.00  0.00    +0.000 A 
ATOM     10  C   UNL     1       1.122   9.487  19.173  0.00  0.00    +0.000 A 
ATOM     11  C   UNL     1       0.666  10.643  18.564  0.00  0.00    +0.000 A 
ATOM     12  C   UNL     1      -0.143  11.486  19.318  0.00  0.00    +0.000 A 
ATOM     13  C   UNL     1      -0.464  11.161  20.651  0.00  0.00    +0.000 A 
ATOM     14  C   UNL     1       0.016   9.982  21.261  0.00  0.00    +0.000 A 
ATOM     15  C   UNL     1       1.976   8.446  18.601  0.00  0.00    +0.000 C 
ATOM     16  O   UNL     1       2.404   8.528  17.465  0.00  0.00    +0.000 OA
BRANCH  14  17
ATOM     17  C   UNL     1      -0.335   9.675  22.692  0.00  0.00    +0.000 C 
ATOM     18  F   UNL     1      -1.100  10.635  23.283  0.00  0.00    +0.000 F 
ATOM     19  F   UNL     1      -1.037   8.517  22.814  0.00  0.00    +0.000 F 
ATOM     20  F   UNL     1       0.765   9.538  23.480  0.00  0.00    +0.000 F 
ENDBRANCH  14  17
ENDBRANCH   3   7
BRANCH   1  21
ATOM     21  C   UNL     1       6.480   5.225  18.709  0.00  0.00    +0.000 C 
BRANCH  21  22
ATOM     22  N   UNL     1       6.940   4.187  17.765  0.00  0.00    +0.000 NA
ATOM     23  H   UNL     1       7.931   4.377  17.589  0.00  0.00    +0.000 HD
BRANCH  22  24
ATOM     24  C   UNL     1       6.227   4.215  16.479  0.00  0.00    +0.000 C 
BRANCH  24  25
ATOM     25  C   UNL     1       6.816   5.122  15.388  0.00  0.00    +0.000 C 
BRANCH  25  31
ATOM     26  C   UNL     1       8.529   5.815  12.865  0.00  0.00    +0.000 C 
ATOM     27  N   UNL     1       7.471   4.845  12.941  0.00  0.00    +0.000 N 
ATOM     28  C   UNL     1       7.030   4.061  11.920  0.00  0.00    +0.000 A 
ATOM     29  N   UNL     1       6.041   3.309  12.339  0.00  0.00    +0.000 NA
ATOM     30  N   UNL     1       5.836   3.595  13.664  0.00  0.00    +0.000 NA
ATOM     31  C   UNL     1       6.704   4.519  14.029  0.00  0.00    +0.000 A 
ENDBRANCH  25  31
ENDBRANCH  24  25
ENDBRANCH  22  24
ENDBRANCH  21  22
ENDBRANCH   1  21
TORSDOF 7
ENDMDL
MODEL 8
REMARK VINA RESULT:      -7.4      4.513      8.585
REMARK  Name = 
REMARK  8 active torsions:
REMARK  status: ('A' for Active; 'I' for Inactive)
REMARK    1  A    between atoms: C_1  and  N_2
REMARK    2  A    between atoms: C_6  and  C_7
REMARK    3  A    between atoms: C_7  and  C_8
REMARK    4  A    between atoms: C_8  and  N_9
REMARK    5  A    between atoms: N_9  and  C_10
REMARK    6  A    between atoms: C_10  and  C_11
REMARK    7  A    between atoms: C_13  and  N_14
REMARK    8  A    between atoms: C_21  and  C_22
REMARK                            x       y       z     vdW  Elec       q    Type
REMARK                         _______ _______ _______ _____ _____    ______ ____
ROOT
ATOM      1  C   UNL     1       0.780  10.307  19.669  0.00  0.00    +0.000 A 
ATOM      2  C   UNL     1       1.428   9.249  19.037  0.00  0.00    +0.000 A 
ATOM      3  C   UNL     1       1.782   8.114  19.763  0.00  0.00    +0.000 A 
ATOM      4  C   UNL     1       1.498   8.108  21.131  0.00  0.00    +0.000 A 
ATOM      5  C   UNL     1       0.849   9.201  21.687  0.00  0.00    +0.000 A 
ATOM      6  N   UNL     1       0.476  10.290  20.990  0.00  0.00    +0.000 NA
ENDROOT
BRANCH   3   7
ATOM      7  N   UNL     1       2.392   7.000  19.132  0.00  0.00    +0.000 N 
ATOM      8  C   UNL     1       3.390   7.144  18.084  0.00  0.00    +0.000 C 
ATOM      9  C   UNL     1       3.735   5.733  17.731  0.00  0.00    +0.000 A 
ATOM     10  C   UNL     1       3.000   4.867  18.533  0.00  0.00    +0.000 A 
ATOM     11  C   UNL     1       3.102   3.489  18.453  0.00  0.00    +0.000 A 
ATOM     12  C   UNL     1       3.983   2.968  17.511  0.00  0.00    +0.000 A 
ATOM     13  C   UNL     1       4.738   3.828  16.689  0.00  0.00    +0.000 A 
ATOM     14  C   UNL     1       4.629   5.231  16.788  0.00  0.00    +0.000 A 
ATOM     15  C   UNL     1       2.155   5.655  19.430  0.00  0.00    +0.000 C 
ATOM     16  O   UNL     1       1.434   5.125  20.254  0.00  0.00    +0.000 OA
BRANCH  14  17
ATOM     17  C   UNL     1       5.463   6.118  15.904  0.00  0.00    +0.000 C 
ATOM     18  F   UNL     1       4.730   7.009  15.179  0.00  0.00    +0.000 F 
ATOM     19  F   UNL     1       6.353   6.863  16.613  0.00  0.00    +0.000 F 
ATOM     20  F   UNL     1       6.193   5.413  15.000  0.00  0.00    +0.000 F 
ENDBRANCH  14  17
ENDBRANCH   3   7
BRANCH   1  21
ATOM     21  C   UNL     1       0.326  11.495  18.845  0.00  0.00    +0.000 C 
BRANCH  21  22
ATOM     22  N   UNL     1      -0.687  12.339  19.511  0.00  0.00    +0.000 NA
ATOM     23  H   UNL     1      -0.797  11.964  20.457  0.00  0.00    +0.000 HD
BRANCH  22  24
ATOM     24  C   UNL     1      -1.998  12.307  18.843  0.00  0.00    +0.000 C 
BRANCH  24  25
ATOM     25  C   UNL     1      -2.600  10.918  18.583  0.00  0.00    +0.000 C 
BRANCH  25  31
ATOM     26  C   UNL     1      -5.124  11.876  17.006  0.00  0.00    +0.000 C 
ATOM     27  N   UNL     1      -4.018  11.127  16.477  0.00  0.00    +0.000 N 
ATOM     28  C   UNL     1      -3.884  10.702  15.191  0.00  0.00    +0.000 A 
ATOM     29  N   UNL     1      -2.764  10.031  15.066  0.00  0.00    +0.000 NA
ATOM     30  N   UNL     1      -2.145  10.026  16.289  0.00  0.00    +0.000 NA
ATOM     31  C   UNL     1      -2.901  10.693  17.140  0.00  0.00    +0.000 A 
ENDBRANCH  25  31
ENDBRANCH  24  25
ENDBRANCH  22  24
ENDBRANCH  21  22
ENDBRANCH   1  21
TORSDOF 7
ENDMDL
MODEL 9
REMARK VINA RESULT:      -7.4      1.647      2.753
REMARK  Name = 
REMARK  8 active torsions:
REMARK  status: ('A' for Active; 'I' for Inactive)
REMARK    1  A    between atoms: C_1  and  N_2
REMARK    2  A    between atoms: C_6  and  C_7
REMARK    3  A    between atoms: C_7  and  C_8
REMARK    4  A    between atoms: C_8  and  N_9
REMARK    5  A    between atoms: N_9  and  C_10
REMARK    6  A    between atoms: C_10  and  C_11
REMARK    7  A    between atoms: C_13  and  N_14
REMARK    8  A    between atoms: C_21  and  C_22
REMARK                            x       y       z     vdW  Elec       q    Type
REMARK                         _______ _______ _______ _____ _____    ______ ____
ROOT
ATOM      1  C   UNL     1       2.697   2.910  19.237  0.00  0.00    +0.000 A 
ATOM      2  C   UNL     1       2.369   4.254  19.090  0.00  0.00    +0.000 A 
ATOM      3  C   UNL     1       2.140   5.042  20.215  0.00  0.00    +0.000 A 
ATOM      4  C   UNL     1       2.212   4.422  21.465  0.00  0.00    +0.000 A 
ATOM      5  C   UNL     1       2.545   3.077  21.528  0.00  0.00    +0.000 A 
ATOM      6  N   UNL     1       2.798   2.312  20.449  0.00  0.00    +0.000 NA
ENDROOT
BRANCH   3   7
ATOM      7  N   UNL     1       1.860   6.428  20.095  0.00  0.00    +0.000 N 
ATOM      8  C   UNL     1       1.229   7.193  21.160  0.00  0.00    +0.000 C 
ATOM      9  C   UNL     1       1.137   8.574  20.593  0.00  0.00    +0.000 A 
ATOM     10  C   UNL     1       1.691   8.583  19.317  0.00  0.00    +0.000 A 
ATOM     11  C   UNL     1       1.763   9.719  18.531  0.00  0.00    +0.000 A 
ATOM     12  C   UNL     1       1.243  10.896  19.060  0.00  0.00    +0.000 A 
ATOM     13  C   UNL     1       0.678  10.909  20.350  0.00  0.00    +0.000 A 
ATOM     14  C   UNL     1       0.620   9.743  21.144  0.00  0.00    +0.000 A 
ATOM     15  C   UNL     1       2.160   7.235  18.995  0.00  0.00    +0.000 C 
ATOM     16  O   UNL     1       2.712   6.990  17.939  0.00  0.00    +0.000 OA
BRANCH  14  17
ATOM     17  C   UNL     1       0.023   9.798  22.524  0.00  0.00    +0.000 C 
ATOM     18  F   UNL     1       0.911   9.500  23.514  0.00  0.00    +0.000 F 
ATOM     19  F   UNL     1      -0.465  11.032  22.826  0.00  0.00    +0.000 F 
ATOM     20  F   UNL     1      -1.013   8.932  22.679  0.00  0.00    +0.000 F 
ENDBRANCH  14  17
ENDBRANCH   3   7
BRANCH   1  21
ATOM     21  C   UNL     1       3.028   2.089  18.006  0.00  0.00    +0.000 C 
BRANCH  21  22
ATOM     22  N   UNL     1       4.305   2.457  17.362  0.00  0.00    +0.000 NA
ATOM     23  H   UNL     1       5.004   2.496  18.109  0.00  0.00    +0.000 HD
BRANCH  22  24
ATOM     24  C   UNL     1       4.264   3.769  16.697  0.00  0.00    +0.000 C 
BRANCH  24  25
ATOM     25  C   UNL     1       5.614   4.473  16.488  0.00  0.00    +0.000 C 
BRANCH  25  31
ATOM     26  C   UNL     1       7.399   6.997  16.958  0.00  0.00    +0.000 C 
ATOM     27  N   UNL     1       7.003   6.032  17.948  0.00  0.00    +0.000 N 
ATOM     28  C   UNL     1       7.344   6.053  19.265  0.00  0.00    +0.000 A 
ATOM     29  N   UNL     1       6.826   5.010  19.868  0.00  0.00    +0.000 NA
ATOM     30  N   UNL     1       6.121   4.298  18.933  0.00  0.00    +0.000 NA
ATOM     31  C   UNL     1       6.224   4.918  17.773  0.00  0.00    +0.000 A 
ENDBRANCH  25  31
ENDBRANCH  24  25
ENDBRANCH  22  24
ENDBRANCH  21  22
ENDBRANCH   1  21
TORSDOF 7
ENDMDL
