MODEL 1
REMARK VINA RESULT:      -8.5      0.000      0.000
REMARK  Name = 
REMARK  2 active torsions:
REMARK  status: ('A' for Active; 'I' for Inactive)
REMARK    1  A    between atoms: C_2  and  C_17
REMARK    2  A    between atoms: C_6  and  C_7
REMARK                            x       y       z     vdW  Elec       q    Type
REMARK                         _______ _______ _______ _____ _____    ______ ____
ROOT
ATOM      1  O   UNL     1       1.770   5.664  19.727  0.00  0.00    +0.000 OA
ATOM      2  C   UNL     1       2.497   5.935  18.775  0.00  0.00    +0.000 C 
ATOM      3  N   UNL     1       2.660   7.174  18.190  0.00  0.00    +0.000 N 
ATOM      4  C   UNL     1       2.045   8.292  18.668  0.00  0.00    +0.000 A 
ATOM      5  N   UNL     1       1.365   8.447  19.770  0.00  0.00    +0.000 NA
ATOM      6  C   UNL     1       0.869   9.735  19.845  0.00  0.00    +0.000 A 
ATOM      7  C   UNL     1       1.167  10.528  18.752  0.00  0.00    +0.000 A 
ATOM      8  S   UNL     1       2.177   9.663  17.661  0.00  0.00    +0.000 S 
ATOM      9  H   UNL     1       3.216   7.264  17.351  0.00  0.00    +0.000 HD
ENDROOT
BRANCH   2  10
ATOM     10  C   UNL     1       3.266   4.818  18.043  0.00  0.00    +0.000 C 
ATOM     11  C   UNL     1       3.900   3.857  19.041  0.00  0.00    +0.000 C 
ATOM     12  O   UNL     1       4.994   4.460  19.746  0.00  0.00    +0.000 OA
ATOM     13  C   UNL     1       5.797   5.191  18.916  0.00  0.00    +0.000 A 
ATOM     14  C   UNL     1       7.025   5.597  19.431  0.00  0.00    +0.000 A 
ATOM     15  C   UNL     1       7.896   6.352  18.642  0.00  0.00    +0.000 A 
ATOM     16  C   UNL     1       7.538   6.696  17.339  0.00  0.00    +0.000 A 
ATOM     17  C   UNL     1       6.305   6.297  16.825  0.00  0.00    +0.000 A 
ATOM     18  C   UNL     1       5.430   5.562  17.620  0.00  0.00    +0.000 A 
ATOM     19  O   UNL     1       4.207   5.279  17.073  0.00  0.00    +0.000 OA
ENDBRANCH   2  10
BRANCH   6  20
ATOM     20  C   UNL     1       0.098  10.166  20.999  0.00  0.00    +0.000 A 
ATOM     21  C   UNL     1      -0.854  11.186  20.873  0.00  0.00    +0.000 A 
ATOM     22  F   UNL     1      -1.116  11.745  19.680  0.00  0.00    +0.000 F 
ATOM     23  C   UNL     1      -1.593  11.638  21.968  0.00  0.00    +0.000 A 
ATOM     24  C   UNL     1      -1.394  11.069  23.223  0.00  0.00    +0.000 A 
ATOM     25  C   UNL     1      -0.458  10.050  23.371  0.00  0.00    +0.000 A 
ATOM     26  C   UNL     1       0.277   9.609  22.268  0.00  0.00    +0.000 A 
ATOM     27  F   UNL     1       1.174   8.631  22.467  0.00  0.00    +0.000 F 
ENDBRANCH   6  20
TORSDOF 2
ENDMDL
MODEL 2
REMARK VINA RESULT:      -8.5      1.195      2.115
REMARK  Name = 
REMARK  2 active torsions:
REMARK  status: ('A' for Active; 'I' for Inactive)
REMARK    1  A    between atoms: C_2  and  C_17
REMARK    2  A    between atoms: C_6  and  C_7
REMARK                            x       y       z     vdW  Elec       q    Type
REMARK                         _______ _______ _______ _____ _____    ______ ____
ROOT
ATOM      1  O   UNL     1       1.763   4.748  20.160  0.00  0.00    +0.000 OA
ATOM      2  C   UNL     1       2.558   4.812  19.225  0.00  0.00    +0.000 C 
ATOM      3  N   UNL     1       2.887   5.938  18.499  0.00  0.00    +0.000 N 
ATOM      4  C   UNL     1       2.385   7.169  18.796  0.00  0.00    +0.000 A 
ATOM      5  N   UNL     1       1.680   7.540  19.829  0.00  0.00    +0.000 NA
ATOM      6  C   UNL     1       1.332   8.873  19.713  0.00  0.00    +0.000 A 
ATOM      7  C   UNL     1       1.767   9.479  18.548  0.00  0.00    +0.000 A 
ATOM      8  S   UNL     1       2.718   8.373  17.635  0.00  0.00    +0.000 S 
ATOM      9  H   UNL     1       3.487   5.856  17.690  0.00  0.00    +0.000 HD
ENDROOT
BRANCH   2  10
ATOM     10  C   UNL     1       3.224   3.531  18.686  0.00  0.00    +0.000 C 
ATOM     11  C   UNL     1       4.405   3.127  19.559  0.00  0.00    +0.000 C 
ATOM     12  O   UNL     1       5.508   4.033  19.422  0.00  0.00    +0.000 OA
ATOM     13  C   UNL     1       5.727   4.378  18.117  0.00  0.00    +0.000 A 
ATOM     14  C   UNL     1       6.924   5.031  17.834  0.00  0.00    +0.000 A 
ATOM     15  C   UNL     1       7.213   5.419  16.525  0.00  0.00    +0.000 A 
ATOM     16  C   UNL     1       6.307   5.150  15.499  0.00  0.00    +0.000 A 
ATOM     17  C   UNL     1       5.104   4.503  15.782  0.00  0.00    +0.000 A 
ATOM     18  C   UNL     1       4.809   4.135  17.092  0.00  0.00    +0.000 A 
ATOM     19  O   UNL     1       3.575   3.580  17.302  0.00  0.00    +0.000 OA
ENDBRANCH   2  10
BRANCH   6  20
ATOM     20  C   UNL     1       0.567   9.533  20.756  0.00  0.00    +0.000 A 
ATOM     21  C   UNL     1       0.783   9.211  22.103  0.00  0.00    +0.000 A 
ATOM     22  F   UNL     1       1.736   8.335  22.461  0.00  0.00    +0.000 F 
ATOM     23  C   UNL     1       0.046   9.809  23.127  0.00  0.00    +0.000 A 
ATOM     24  C   UNL     1      -0.928  10.756  22.820  0.00  0.00    +0.000 A 
ATOM     25  C   UNL     1      -1.156  11.096  21.490  0.00  0.00    +0.000 A 
ATOM     26  C   UNL     1      -0.415  10.486  20.475  0.00  0.00    +0.000 A 
ATOM     27  F   UNL     1      -0.681  10.842  19.208  0.00  0.00    +0.000 F 
ENDBRANCH   6  20
TORSDOF 2
ENDMDL
MODEL 3
REMARK VINA RESULT:      -8.5      1.240      1.431
REMARK  Name = 
REMARK  2 active torsions:
REMARK  status: ('A' for Active; 'I' for Inactive)
REMARK    1  A    between atoms: C_2  and  C_17
REMARK    2  A    between atoms: C_6  and  C_7
REMARK                            x       y       z     vdW  Elec       q    Type
REMARK                         _______ _______ _______ _____ _____    ______ ____
ROOT
ATOM      1  O   UNL     1       1.687   4.736  20.115  0.00  0.00    +0.000 OA
ATOM      2  C   UNL     1       2.519   4.775  19.212  0.00  0.00    +0.000 C 
ATOM      3  N   UNL     1       2.904   5.889  18.495  0.00  0.00    +0.000 N 
ATOM      4  C   UNL     1       2.420   7.134  18.766  0.00  0.00    +0.000 A 
ATOM      5  N   UNL     1       1.684   7.527  19.769  0.00  0.00    +0.000 NA
ATOM      6  C   UNL     1       1.374   8.867  19.633  0.00  0.00    +0.000 A 
ATOM      7  C   UNL     1       1.868   9.456  18.483  0.00  0.00    +0.000 A 
ATOM      8  S   UNL     1       2.827   8.323  17.613  0.00  0.00    +0.000 S 
ATOM      9  H   UNL     1       3.532   5.789  17.710  0.00  0.00    +0.000 HD
ENDROOT
BRANCH   2  10
ATOM     10  C   UNL     1       3.174   3.476  18.705  0.00  0.00    +0.000 C 
ATOM     11  C   UNL     1       4.345   3.079  19.596  0.00  0.00    +0.000 C 
ATOM     12  O   UNL     1       5.459   3.969  19.447  0.00  0.00    +0.000 OA
ATOM     13  C   UNL     1       5.691   4.283  18.137  0.00  0.00    +0.000 A 
ATOM     14  C   UNL     1       6.897   4.917  17.849  0.00  0.00    +0.000 A 
ATOM     15  C   UNL     1       7.200   5.274  16.533  0.00  0.00    +0.000 A 
ATOM     16  C   UNL     1       6.297   4.992  15.507  0.00  0.00    +0.000 A 
ATOM     17  C   UNL     1       5.086   4.365  15.795  0.00  0.00    +0.000 A 
ATOM     18  C   UNL     1       4.777   4.029  17.111  0.00  0.00    +0.000 A 
ATOM     19  O   UNL     1       3.536   3.491  17.324  0.00  0.00    +0.000 OA
ENDBRANCH   2  10
BRANCH   6  20
ATOM     20  C   UNL     1       0.584   9.551  20.643  0.00  0.00    +0.000 A 
ATOM     21  C   UNL     1      -0.383  10.494  20.266  0.00  0.00    +0.000 A 
ATOM     22  F   UNL     1      -0.641  10.742  18.972  0.00  0.00    +0.000 F 
ATOM     23  C   UNL     1      -1.140  11.184  21.214  0.00  0.00    +0.000 A 
ATOM     24  C   UNL     1      -0.947  10.939  22.571  0.00  0.00    +0.000 A 
ATOM     25  C   UNL     1       0.003  10.003  22.969  0.00  0.00    +0.000 A 
ATOM     26  C   UNL     1       0.758   9.322  22.010  0.00  0.00    +0.000 A 
ATOM     27  F   UNL     1       1.668   8.437  22.446  0.00  0.00    +0.000 F 
ENDBRANCH   6  20
TORSDOF 2
ENDMDL
MODEL 4
REMARK VINA RESULT:      -8.5      0.078      1.624
REMARK  Name = 
REMARK  2 active torsions:
REMARK  status: ('A' for Active; 'I' for Inactive)
REMARK    1  A    between atoms: C_2  and  C_17
REMARK    2  A    between atoms: C_6  and  C_7
REMARK                            x       y       z     vdW  Elec       q    Type
REMARK                         _______ _______ _______ _____ _____    ______ ____
ROOT
ATOM      1  O   UNL     1       1.777   5.661  19.816  0.00  0.00    +0.000 OA
ATOM      2  C   UNL     1       2.505   5.909  18.859  0.00  0.00    +0.000 C 
ATOM      3  N   UNL     1       2.672   7.135  18.247  0.00  0.00    +0.000 N 
ATOM      4  C   UNL     1       2.061   8.265  18.702  0.00  0.00    +0.000 A 
ATOM      5  N   UNL     1       1.382   8.445  19.801  0.00  0.00    +0.000 NA
ATOM      6  C   UNL     1       0.890   9.736  19.849  0.00  0.00    +0.000 A 
ATOM      7  C   UNL     1       1.191  10.506  18.740  0.00  0.00    +0.000 A 
ATOM      8  S   UNL     1       2.198   9.614  17.667  0.00  0.00    +0.000 S 
ATOM      9  H   UNL     1       3.228   7.206  17.407  0.00  0.00    +0.000 HD
ENDROOT
BRANCH   2  10
ATOM     10  C   UNL     1       3.269   4.774  18.150  0.00  0.00    +0.000 C 
ATOM     11  C   UNL     1       3.953   3.867  19.166  0.00  0.00    +0.000 C 
ATOM     12  O   UNL     1       5.057   4.518  19.809  0.00  0.00    +0.000 OA
ATOM     13  C   UNL     1       5.820   5.226  18.922  0.00  0.00    +0.000 A 
ATOM     14  C   UNL     1       7.057   5.674  19.379  0.00  0.00    +0.000 A 
ATOM     15  C   UNL     1       7.888   6.408  18.531  0.00  0.00    +0.000 A 
ATOM     16  C   UNL     1       7.483   6.691  17.226  0.00  0.00    +0.000 A 
ATOM     17  C   UNL     1       6.241   6.249  16.771  0.00  0.00    +0.000 A 
ATOM     18  C   UNL     1       5.405   5.535  17.624  0.00  0.00    +0.000 A 
ATOM     19  O   UNL     1       4.170   5.208  17.130  0.00  0.00    +0.000 OA
ENDBRANCH   2  10
BRANCH   6  20
ATOM     20  C   UNL     1       0.121  10.193  20.995  0.00  0.00    +0.000 A 
ATOM     21  C   UNL     1       0.313   9.610  22.254  0.00  0.00    +0.000 A 
ATOM     22  F   UNL     1       1.246   8.663  22.444  0.00  0.00    +0.000 F 
ATOM     23  C   UNL     1      -0.428  10.011  23.368  0.00  0.00    +0.000 A 
ATOM     24  C   UNL     1      -1.382  11.017  23.242  0.00  0.00    +0.000 A 
ATOM     25  C   UNL     1      -1.586  11.616  22.002  0.00  0.00    +0.000 A 
ATOM     26  C   UNL     1      -0.840  11.202  20.895  0.00  0.00    +0.000 A 
ATOM     27  F   UNL     1      -1.083  11.804  19.720  0.00  0.00    +0.000 F 
ENDBRANCH   6  20
TORSDOF 2
ENDMDL
MODEL 5
REMARK VINA RESULT:      -8.4      3.401      8.041
REMARK  Name = 
REMARK  2 active torsions:
REMARK  status: ('A' for Active; 'I' for Inactive)
REMARK    1  A    between atoms: C_2  and  C_17
REMARK    2  A    between atoms: C_6  and  C_7
REMARK                            x       y       z     vdW  Elec       q    Type
REMARK                         _______ _______ _______ _____ _____    ______ ____
ROOT
ATOM      1  O   UNL     1       2.138   8.555  19.648  0.00  0.00    +0.000 OA
ATOM      2  C   UNL     1       1.580   8.120  20.653  0.00  0.00    +0.000 C 
ATOM      3  N   UNL     1       1.608   6.819  21.111  0.00  0.00    +0.000 N 
ATOM      4  C   UNL     1       2.342   5.847  20.501  0.00  0.00    +0.000 A 
ATOM      5  N   UNL     1       3.217   5.961  19.541  0.00  0.00    +0.000 NA
ATOM      6  C   UNL     1       3.693   4.713  19.181  0.00  0.00    +0.000 A 
ATOM      7  C   UNL     1       3.123   3.661  19.875  0.00  0.00    +0.000 A 
ATOM      8  S   UNL     1       2.045   4.267  21.071  0.00  0.00    +0.000 S 
ATOM      9  H   UNL     1       1.036   6.553  21.901  0.00  0.00    +0.000 HD
ENDROOT
BRANCH   2  10
ATOM     10  C   UNL     1       0.659   9.033  21.485  0.00  0.00    +0.000 C 
ATOM     11  C   UNL     1      -0.751   9.049  20.908  0.00  0.00    +0.000 C 
ATOM     12  O   UNL     1      -0.810   9.747  19.656  0.00  0.00    +0.000 OA
ATOM     13  C   UNL     1      -0.083  10.904  19.681  0.00  0.00    +0.000 A 
ATOM     14  C   UNL     1      -0.281  11.791  18.626  0.00  0.00    +0.000 A 
ATOM     15  C   UNL     1       0.431  12.991  18.582  0.00  0.00    +0.000 A 
ATOM     16  C   UNL     1       1.337  13.304  19.595  0.00  0.00    +0.000 A 
ATOM     17  C   UNL     1       1.542  12.413  20.648  0.00  0.00    +0.000 A 
ATOM     18  C   UNL     1       0.846  11.208  20.679  0.00  0.00    +0.000 A 
ATOM     19  O   UNL     1       1.163  10.352  21.700  0.00  0.00    +0.000 OA
ENDBRANCH   2  10
BRANCH   6  20
ATOM     20  C   UNL     1       4.705   4.576  18.148  0.00  0.00    +0.000 A 
ATOM     21  C   UNL     1       6.026   4.976  18.394  0.00  0.00    +0.000 A 
ATOM     22  F   UNL     1       6.396   5.436  19.600  0.00  0.00    +0.000 F 
ATOM     23  C   UNL     1       7.015   4.879  17.414  0.00  0.00    +0.000 A 
ATOM     24  C   UNL     1       6.700   4.370  16.157  0.00  0.00    +0.000 A 
ATOM     25  C   UNL     1       5.396   3.961  15.891  0.00  0.00    +0.000 A 
ATOM     26  C   UNL     1       4.415   4.067  16.880  0.00  0.00    +0.000 A 
ATOM     27  F   UNL     1       3.172   3.669  16.569  0.00  0.00    +0.000 F 
ENDBRANCH   6  20
TORSDOF 2
ENDMDL
MODEL 6
REMARK VINA RESULT:      -8.3      3.397      7.977
REMARK  Name = 
REMARK  2 active torsions:
REMARK  status: ('A' for Active; 'I' for Inactive)
REMARK    1  A    between atoms: C_2  and  C_17
REMARK    2  A    between atoms: C_6  and  C_7
REMARK                            x       y       z     vdW  Elec       q    Type
REMARK                         _______ _______ _______ _____ _____    ______ ____
ROOT
ATOM      1  O   UNL     1       2.232   8.593  19.689  0.00  0.00    +0.000 OA
ATOM      2  C   UNL     1       1.637   8.137  20.661  0.00  0.00    +0.000 C 
ATOM      3  N   UNL     1       1.625   6.821  21.076  0.00  0.00    +0.000 N 
ATOM      4  C   UNL     1       2.356   5.854  20.453  0.00  0.00    +0.000 A 
ATOM      5  N   UNL     1       3.261   5.982  19.523  0.00  0.00    +0.000 NA
ATOM      6  C   UNL     1       3.722   4.737  19.135  0.00  0.00    +0.000 A 
ATOM      7  C   UNL     1       3.111   3.675  19.776  0.00  0.00    +0.000 A 
ATOM      8  S   UNL     1       2.011   4.262  20.961  0.00  0.00    +0.000 S 
ATOM      9  H   UNL     1       1.025   6.540  21.839  0.00  0.00    +0.000 HD
ENDROOT
BRANCH   2  10
ATOM     10  C   UNL     1       0.710   9.040  21.498  0.00  0.00    +0.000 C 
ATOM     11  C   UNL     1      -0.704   9.036  20.931  0.00  0.00    +0.000 C 
ATOM     12  O   UNL     1      -0.781   9.730  19.677  0.00  0.00    +0.000 OA
ATOM     13  C   UNL     1      -0.069  10.896  19.694  0.00  0.00    +0.000 A 
ATOM     14  C   UNL     1      -0.286  11.777  18.638  0.00  0.00    +0.000 A 
ATOM     15  C   UNL     1       0.410  12.987  18.585  0.00  0.00    +0.000 A 
ATOM     16  C   UNL     1       1.320  13.314  19.591  0.00  0.00    +0.000 A 
ATOM     17  C   UNL     1       1.544  12.429  20.645  0.00  0.00    +0.000 A 
ATOM     18  C   UNL     1       0.863  11.215  20.685  0.00  0.00    +0.000 A 
ATOM     19  O   UNL     1       1.199  10.366  21.705  0.00  0.00    +0.000 OA
ENDBRANCH   2  10
BRANCH   6  20
ATOM     20  C   UNL     1       4.761   4.613  18.127  0.00  0.00    +0.000 A 
ATOM     21  C   UNL     1       4.463   4.079  16.866  0.00  0.00    +0.000 A 
ATOM     22  F   UNL     1       3.209   3.727  16.542  0.00  0.00    +0.000 F 
ATOM     23  C   UNL     1       5.445   3.925  15.885  0.00  0.00    +0.000 A 
ATOM     24  C   UNL     1       6.756   4.311  16.148  0.00  0.00    +0.000 A 
ATOM     25  C   UNL     1       7.075   4.850  17.392  0.00  0.00    +0.000 A 
ATOM     26  C   UNL     1       6.084   4.995  18.365  0.00  0.00    +0.000 A 
ATOM     27  F   UNL     1       6.446   5.510  19.551  0.00  0.00    +0.000 F 
ENDBRANCH   6  20
TORSDOF 2
ENDMDL
MODEL 7
REMARK VINA RESULT:      -8.3      2.363      4.234
REMARK  Name = 
REMARK  2 active torsions:
REMARK  status: ('A' for Active; 'I' for Inactive)
REMARK    1  A    between atoms: C_2  and  C_17
REMARK    2  A    between atoms: C_6  and  C_7
REMARK                            x       y       z     vdW  Elec       q    Type
REMARK                         _______ _______ _______ _____ _____    ______ ____
ROOT
ATOM      1  O   UNL     1       3.509   7.745  17.783  0.00  0.00    +0.000 OA
ATOM      2  C   UNL     1       3.371   6.871  18.635  0.00  0.00    +0.000 C 
ATOM      3  N   UNL     1       2.593   6.945  19.772  0.00  0.00    +0.000 N 
ATOM      4  C   UNL     1       1.812   8.026  20.051  0.00  0.00    +0.000 A 
ATOM      5  N   UNL     1       1.534   9.054  19.298  0.00  0.00    +0.000 NA
ATOM      6  C   UNL     1       0.741   9.949  19.991  0.00  0.00    +0.000 A 
ATOM      7  C   UNL     1       0.462   9.579  21.294  0.00  0.00    +0.000 A 
ATOM      8  S   UNL     1       1.128   8.025  21.614  0.00  0.00    +0.000 S 
ATOM      9  H   UNL     1       2.625   6.198  20.453  0.00  0.00    +0.000 HD
ENDROOT
BRANCH   2  10
ATOM     10  C   UNL     1       4.189   5.568  18.550  0.00  0.00    +0.000 C 
ATOM     11  C   UNL     1       3.869   4.812  17.266  0.00  0.00    +0.000 C 
ATOM     12  O   UNL     1       2.548   4.251  17.289  0.00  0.00    +0.000 OA
ATOM     13  C   UNL     1       2.259   3.677  18.495  0.00  0.00    +0.000 A 
ATOM     14  C   UNL     1       1.122   2.873  18.548  0.00  0.00    +0.000 A 
ATOM     15  C   UNL     1       0.760   2.257  19.748  0.00  0.00    +0.000 A 
ATOM     16  C   UNL     1       1.537   2.443  20.892  0.00  0.00    +0.000 A 
ATOM     17  C   UNL     1       2.670   3.255  20.841  0.00  0.00    +0.000 A 
ATOM     18  C   UNL     1       3.018   3.883  19.649  0.00  0.00    +0.000 A 
ATOM     19  O   UNL     1       4.095   4.728  19.701  0.00  0.00    +0.000 OA
ENDBRANCH   2  10
BRANCH   6  20
ATOM     20  C   UNL     1       0.271  11.169  19.354  0.00  0.00    +0.000 A 
ATOM     21  C   UNL     1       0.956  12.376  19.547  0.00  0.00    +0.000 A 
ATOM     22  F   UNL     1       2.087  12.423  20.269  0.00  0.00    +0.000 F 
ATOM     23  C   UNL     1       0.515  13.568  18.969  0.00  0.00    +0.000 A 
ATOM     24  C   UNL     1      -0.629  13.574  18.175  0.00  0.00    +0.000 A 
ATOM     25  C   UNL     1      -1.322  12.386  17.965  0.00  0.00    +0.000 A 
ATOM     26  C   UNL     1      -0.872  11.200  18.552  0.00  0.00    +0.000 A 
ATOM     27  F   UNL     1      -1.583  10.084  18.327  0.00  0.00    +0.000 F 
ENDBRANCH   6  20
TORSDOF 2
ENDMDL
MODEL 8
REMARK VINA RESULT:      -8.3      2.379      4.160
REMARK  Name = 
REMARK  2 active torsions:
REMARK  status: ('A' for Active; 'I' for Inactive)
REMARK    1  A    between atoms: C_2  and  C_17
REMARK    2  A    between atoms: C_6  and  C_7
REMARK                            x       y       z     vdW  Elec       q    Type
REMARK                         _______ _______ _______ _____ _____    ______ ____
ROOT
ATOM      1  O   UNL     1       3.476   7.689  17.729  0.00  0.00    +0.000 OA
ATOM      2  C   UNL     1       3.362   6.827  18.597  0.00  0.00    +0.000 C 
ATOM      3  N   UNL     1       2.615   6.917  19.754  0.00  0.00    +0.000 N 
ATOM      4  C   UNL     1       1.841   8.002  20.039  0.00  0.00    +0.000 A 
ATOM      5  N   UNL     1       1.542   9.018  19.279  0.00  0.00    +0.000 NA
ATOM      6  C   UNL     1       0.767   9.924  19.980  0.00  0.00    +0.000 A 
ATOM      7  C   UNL     1       0.524   9.572  21.295  0.00  0.00    +0.000 A 
ATOM      8  S   UNL     1       1.200   8.023  21.620  0.00  0.00    +0.000 S 
ATOM      9  H   UNL     1       2.667   6.180  20.443  0.00  0.00    +0.000 HD
ENDROOT
BRANCH   2  10
ATOM     10  C   UNL     1       4.178   5.523  18.507  0.00  0.00    +0.000 C 
ATOM     11  C   UNL     1       3.836   4.758  17.235  0.00  0.00    +0.000 C 
ATOM     12  O   UNL     1       2.517   4.197  17.285  0.00  0.00    +0.000 OA
ATOM     13  C   UNL     1       2.247   3.632  18.500  0.00  0.00    +0.000 A 
ATOM     14  C   UNL     1       1.112   2.829  18.579  0.00  0.00    +0.000 A 
ATOM     15  C   UNL     1       0.771   2.222  19.790  0.00  0.00    +0.000 A 
ATOM     16  C   UNL     1       1.567   2.418  20.919  0.00  0.00    +0.000 A 
ATOM     17  C   UNL     1       2.699   3.228  20.843  0.00  0.00    +0.000 A 
ATOM     18  C   UNL     1       3.026   3.848  19.640  0.00  0.00    +0.000 A 
ATOM     19  O   UNL     1       4.104   4.693  19.667  0.00  0.00    +0.000 OA
ENDBRANCH   2  10
BRANCH   6  20
ATOM     20  C   UNL     1       0.279  11.133  19.339  0.00  0.00    +0.000 A 
ATOM     21  C   UNL     1      -0.922  11.116  18.617  0.00  0.00    +0.000 A 
ATOM     22  F   UNL     1      -1.673  10.005  18.550  0.00  0.00    +0.000 F 
ATOM     23  C   UNL     1      -1.404  12.255  17.970  0.00  0.00    +0.000 A 
ATOM     24  C   UNL     1      -0.690  13.448  18.039  0.00  0.00    +0.000 A 
ATOM     25  C   UNL     1       0.503  13.491  18.756  0.00  0.00    +0.000 A 
ATOM     26  C   UNL     1       0.976  12.343  19.395  0.00  0.00    +0.000 A 
ATOM     27  F   UNL     1       2.136  12.435  20.064  0.00  0.00    +0.000 F 
ENDBRANCH   6  20
TORSDOF 2
ENDMDL
MODEL 9
REMARK VINA RESULT:      -8.1      2.129      2.714
REMARK  Name = 
REMARK  2 active torsions:
REMARK  status: ('A' for Active; 'I' for Inactive)
REMARK    1  A    between atoms: C_2  and  C_17
REMARK    2  A    between atoms: C_6  and  C_7
REMARK                            x       y       z     vdW  Elec       q    Type
REMARK                         _______ _______ _______ _____ _____    ______ ____
ROOT
ATOM      1  O   UNL     1       2.559   7.786  17.553  0.00  0.00    +0.000 OA
ATOM      2  C   UNL     1       2.356   6.937  18.417  0.00  0.00    +0.000 C 
ATOM      3  N   UNL     1       1.858   7.155  19.685  0.00  0.00    +0.000 N 
ATOM      4  C   UNL     1       1.464   8.387  20.112  0.00  0.00    +0.000 A 
ATOM      5  N   UNL     1       1.334   9.489  19.427  0.00  0.00    +0.000 NA
ATOM      6  C   UNL     1       0.957  10.525  20.261  0.00  0.00    +0.000 A 
ATOM      7  C   UNL     1       0.843  10.175  21.594  0.00  0.00    +0.000 A 
ATOM      8  S   UNL     1       1.116   8.486  21.779  0.00  0.00    +0.000 S 
ATOM      9  H   UNL     1       1.818   6.392  20.347  0.00  0.00    +0.000 HD
ENDROOT
BRANCH   2  10
ATOM     10  C   UNL     1       2.763   5.471  18.174  0.00  0.00    +0.000 C 
ATOM     11  C   UNL     1       3.198   4.808  19.475  0.00  0.00    +0.000 C 
ATOM     12  O   UNL     1       4.455   5.318  19.942  0.00  0.00    +0.000 OA
ATOM     13  C   UNL     1       5.359   5.459  18.927  0.00  0.00    +0.000 A 
ATOM     14  C   UNL     1       6.683   5.688  19.295  0.00  0.00    +0.000 A 
ATOM     15  C   UNL     1       7.661   5.848  18.311  0.00  0.00    +0.000 A 
ATOM     16  C   UNL     1       7.314   5.775  16.962  0.00  0.00    +0.000 A 
ATOM     17  C   UNL     1       5.988   5.554  16.592  0.00  0.00    +0.000 A 
ATOM     18  C   UNL     1       5.011   5.415  17.574  0.00  0.00    +0.000 A 
ATOM     19  O   UNL     1       3.722   5.283  17.132  0.00  0.00    +0.000 OA
ENDBRANCH   2  10
BRANCH   6  20
ATOM     20  C   UNL     1       0.719  11.856  19.728  0.00  0.00    +0.000 A 
ATOM     21  C   UNL     1      -0.345  12.085  18.845  0.00  0.00    +0.000 A 
ATOM     22  F   UNL     1      -1.198  11.100  18.519  0.00  0.00    +0.000 F 
ATOM     23  C   UNL     1      -0.584  13.347  18.297  0.00  0.00    +0.000 A 
ATOM     24  C   UNL     1       0.242  14.417  18.630  0.00  0.00    +0.000 A 
ATOM     25  C   UNL     1       1.302  14.215  19.510  0.00  0.00    +0.000 A 
ATOM     26  C   UNL     1       1.533  12.946  20.048  0.00  0.00    +0.000 A 
ATOM     27  F   UNL     1       2.574  12.803  20.883  0.00  0.00    +0.000 F 
ENDBRANCH   6  20
TORSDOF 2
ENDMDL
