MODEL 1
REMARK VINA RESULT:      -9.1      0.000      0.000
REMARK  Name = 
REMARK  4 active torsions:
REMARK  status: ('A' for Active; 'I' for Inactive)
REMARK    1  A    between atoms: C_8  and  C_9
REMARK    2  A    between atoms: N_11  and  C_12
REMARK    3  A    between atoms: C_12  and  C_13
REMARK    4  A    between atoms: C_12  and  C_23
REMARK                            x       y       z     vdW  Elec       q    Type
REMARK                         _______ _______ _______ _____ _____    ______ ____
ROOT
ATOM      1  C   UNL     1       3.719   5.937  18.959  0.00  0.00    +0.000 C 
ATOM      2  O   UNL     1       3.337   4.831  19.322  0.00  0.00    +0.000 OA
ATOM      3  N   UNL     1       4.965   6.187  18.437  0.00  0.00    +0.000 N 
ATOM      4  H   UNL     1       5.150   7.084  18.008  0.00  0.00    +0.000 HD
ENDROOT
BRANCH   1  12
ATOM      5  O   UNL     1      -0.806   9.734  22.945  0.00  0.00    +0.000 OA
ATOM      6  C   UNL     1      -0.174   9.739  21.887  0.00  0.00    +0.000 C 
ATOM      7  C   UNL     1      -0.075  10.980  21.028  0.00  0.00    +0.000 C 
ATOM      8  S   UNL     1      -0.115  10.625  19.259  0.00  0.00    +0.000 S 
ATOM      9  C   UNL     1       1.071   9.300  19.235  0.00  0.00    +0.000 A 
ATOM     10  C   UNL     1       1.765   9.055  18.046  0.00  0.00    +0.000 A 
ATOM     11  C   UNL     1       2.646   7.978  17.952  0.00  0.00    +0.000 A 
ATOM     12  C   UNL     1       2.818   7.117  19.044  0.00  0.00    +0.000 A 
ATOM     13  C   UNL     1       2.137   7.365  20.241  0.00  0.00    +0.000 A 
ATOM     14  C   UNL     1       1.269   8.458  20.340  0.00  0.00    +0.000 A 
ATOM     15  N   UNL     1       0.579   8.645  21.547  0.00  0.00    +0.000 N 
ATOM     16  H   UNL     1       0.597   7.915  22.249  0.00  0.00    +0.000 HD
ENDBRANCH   1  12
BRANCH   3  17
ATOM     17  C   UNL     1       5.980   5.137  18.235  0.00  0.00    +0.000 C 
BRANCH  17  18
ATOM     18  C   UNL     1       6.022   4.756  16.761  0.00  0.00    +0.000 A 
ATOM     19  C   UNL     1       5.047   3.900  16.223  0.00  0.00    +0.000 A 
ATOM     20  C   UNL     1       5.073   3.548  14.869  0.00  0.00    +0.000 A 
ATOM     21  C   UNL     1       6.071   4.051  14.038  0.00  0.00    +0.000 A 
ATOM     22  C   UNL     1       7.028   4.926  14.554  0.00  0.00    +0.000 A 
ATOM     23  C   UNL     1       7.017   5.262  15.908  0.00  0.00    +0.000 A 
ATOM     24  O   UNL     1       8.015   5.497  13.791  0.00  0.00    +0.000 OA
ATOM     25  C   UNL     1       7.723   5.378  12.393  0.00  0.00    +0.000 C 
ATOM     26  C   UNL     1       7.272   3.966  12.059  0.00  0.00    +0.000 C 
ATOM     27  O   UNL     1       6.043   3.655  12.726  0.00  0.00    +0.000 OA
ENDBRANCH  17  18
BRANCH  17  28
ATOM     28  C   UNL     1       7.369   5.539  18.811  0.00  0.00    +0.000 C 
ATOM     29  F   UNL     1       7.744   6.763  18.350  0.00  0.00    +0.000 F 
ATOM     30  F   UNL     1       7.338   5.620  20.163  0.00  0.00    +0.000 F 
ATOM     31  F   UNL     1       8.363   4.687  18.481  0.00  0.00    +0.000 F 
ENDBRANCH  17  28
ENDBRANCH   3  17
TORSDOF 4
ENDMDL
MODEL 2
REMARK VINA RESULT:      -8.7      4.576      9.501
REMARK  Name = 
REMARK  4 active torsions:
REMARK  status: ('A' for Active; 'I' for Inactive)
REMARK    1  A    between atoms: C_8  and  C_9
REMARK    2  A    between atoms: N_11  and  C_12
REMARK    3  A    between atoms: C_12  and  C_13
REMARK    4  A    between atoms: C_12  and  C_23
REMARK                            x       y       z     vdW  Elec       q    Type
REMARK                         _______ _______ _______ _____ _____    ______ ____
ROOT
ATOM      1  C   UNL     1       2.183   9.254  18.227  0.00  0.00    +0.000 C 
ATOM      2  O   UNL     1       2.517  10.238  17.578  0.00  0.00    +0.000 OA
ATOM      3  N   UNL     1       1.250   9.277  19.235  0.00  0.00    +0.000 N 
ATOM      4  H   UNL     1       0.906   8.404  19.611  0.00  0.00    +0.000 HD
ENDROOT
BRANCH   1  12
ATOM      5  O   UNL     1       7.488   5.585  15.197  0.00  0.00    +0.000 OA
ATOM      6  C   UNL     1       6.515   5.483  15.948  0.00  0.00    +0.000 C 
ATOM      7  C   UNL     1       6.251   4.221  16.737  0.00  0.00    +0.000 C 
ATOM      8  S   UNL     1       4.498   3.817  16.867  0.00  0.00    +0.000 S 
ATOM      9  C   UNL     1       3.896   5.425  17.330  0.00  0.00    +0.000 A 
ATOM     10  C   UNL     1       2.698   5.502  18.049  0.00  0.00    +0.000 A 
ATOM     11  C   UNL     1       2.144   6.741  18.366  0.00  0.00    +0.000 A 
ATOM     12  C   UNL     1       2.773   7.919  17.939  0.00  0.00    +0.000 A 
ATOM     13  C   UNL     1       3.978   7.849  17.232  0.00  0.00    +0.000 A 
ATOM     14  C   UNL     1       4.543   6.605  16.932  0.00  0.00    +0.000 A 
ATOM     15  N   UNL     1       5.733   6.582  16.189  0.00  0.00    +0.000 N 
ATOM     16  H   UNL     1       6.065   7.436  15.756  0.00  0.00    +0.000 HD
ENDBRANCH   1  12
BRANCH   3  17
ATOM     17  C   UNL     1       0.526  10.499  19.635  0.00  0.00    +0.000 C 
BRANCH  17  18
ATOM     18  C   UNL     1      -0.780  10.585  18.856  0.00  0.00    +0.000 A 
ATOM     19  C   UNL     1      -0.975   9.797  17.710  0.00  0.00    +0.000 A 
ATOM     20  C   UNL     1      -2.172   9.866  16.990  0.00  0.00    +0.000 A 
ATOM     21  C   UNL     1      -3.189  10.720  17.410  0.00  0.00    +0.000 A 
ATOM     22  C   UNL     1      -3.020  11.486  18.564  0.00  0.00    +0.000 A 
ATOM     23  C   UNL     1      -1.819  11.436  19.271  0.00  0.00    +0.000 A 
ATOM     24  O   UNL     1      -3.990  12.317  19.066  0.00  0.00    +0.000 OA
ATOM     25  C   UNL     1      -5.269  12.025  18.491  0.00  0.00    +0.000 C 
ATOM     26  C   UNL     1      -5.156  11.868  16.983  0.00  0.00    +0.000 C 
ATOM     27  O   UNL     1      -4.330  10.745  16.651  0.00  0.00    +0.000 OA
ENDBRANCH  17  18
BRANCH  17  28
ATOM     28  C   UNL     1       0.337  10.595  21.176  0.00  0.00    +0.000 C 
ATOM     29  F   UNL     1       1.401  10.048  21.825  0.00  0.00    +0.000 F 
ATOM     30  F   UNL     1       0.246  11.883  21.584  0.00  0.00    +0.000 F 
ATOM     31  F   UNL     1      -0.759   9.949  21.632  0.00  0.00    +0.000 F 
ENDBRANCH  17  28
ENDBRANCH   3  17
TORSDOF 4
ENDMDL
MODEL 3
REMARK VINA RESULT:      -8.6      3.617      8.520
REMARK  Name = 
REMARK  4 active torsions:
REMARK  status: ('A' for Active; 'I' for Inactive)
REMARK    1  A    between atoms: C_8  and  C_9
REMARK    2  A    between atoms: N_11  and  C_12
REMARK    3  A    between atoms: C_12  and  C_13
REMARK    4  A    between atoms: C_12  and  C_23
REMARK                            x       y       z     vdW  Elec       q    Type
REMARK                         _______ _______ _______ _____ _____    ______ ____
ROOT
ATOM      1  C   UNL     1       4.922   4.655  18.162  0.00  0.00    +0.000 C 
ATOM      2  O   UNL     1       5.451   4.187  19.164  0.00  0.00    +0.000 OA
ATOM      3  N   UNL     1       3.627   5.110  18.118  0.00  0.00    +0.000 N 
ATOM      4  H   UNL     1       3.314   5.633  17.310  0.00  0.00    +0.000 HD
ENDROOT
BRANCH   1  12
ATOM      5  O   UNL     1       5.955   2.240  11.538  0.00  0.00    +0.000 OA
ATOM      6  C   UNL     1       6.240   3.154  12.315  0.00  0.00    +0.000 C 
ATOM      7  C   UNL     1       6.957   4.399  11.846  0.00  0.00    +0.000 C 
ATOM      8  S   UNL     1       8.152   5.026  13.044  0.00  0.00    +0.000 S 
ATOM      9  C   UNL     1       7.125   4.954  14.494  0.00  0.00    +0.000 A 
ATOM     10  C   UNL     1       7.419   5.816  15.556  0.00  0.00    +0.000 A 
ATOM     11  C   UNL     1       6.693   5.743  16.745  0.00  0.00    +0.000 A 
ATOM     12  C   UNL     1       5.684   4.783  16.891  0.00  0.00    +0.000 A 
ATOM     13  C   UNL     1       5.376   3.927  15.828  0.00  0.00    +0.000 A 
ATOM     14  C   UNL     1       6.091   4.015  14.628  0.00  0.00    +0.000 A 
ATOM     15  N   UNL     1       5.773   3.112  13.602  0.00  0.00    +0.000 N 
ATOM     16  H   UNL     1       5.162   2.329  13.801  0.00  0.00    +0.000 HD
ENDBRANCH   1  12
BRANCH   3  17
ATOM     17  C   UNL     1       2.730   5.106  19.288  0.00  0.00    +0.000 C 
BRANCH  17  18
ATOM     18  C   UNL     1       2.204   6.516  19.523  0.00  0.00    +0.000 A 
ATOM     19  C   UNL     1       1.659   6.871  20.768  0.00  0.00    +0.000 A 
ATOM     20  C   UNL     1       1.178   8.164  20.995  0.00  0.00    +0.000 A 
ATOM     21  C   UNL     1       1.241   9.119  19.983  0.00  0.00    +0.000 A 
ATOM     22  C   UNL     1       1.808   8.788  18.752  0.00  0.00    +0.000 A 
ATOM     23  C   UNL     1       2.269   7.493  18.515  0.00  0.00    +0.000 A 
ATOM     24  O   UNL     1       1.946   9.684  17.721  0.00  0.00    +0.000 OA
ATOM     25  C   UNL     1       1.783  11.031  18.181  0.00  0.00    +0.000 C 
ATOM     26  C   UNL     1       0.566  11.145  19.084  0.00  0.00    +0.000 C 
ATOM     27  O   UNL     1       0.741  10.362  20.272  0.00  0.00    +0.000 OA
ENDBRANCH  17  18
BRANCH  17  28
ATOM     28  C   UNL     1       1.605   4.037  19.167  0.00  0.00    +0.000 C 
ATOM     29  F   UNL     1       0.999   4.115  17.951  0.00  0.00    +0.000 F 
ATOM     30  F   UNL     1       2.102   2.782  19.279  0.00  0.00    +0.000 F 
ATOM     31  F   UNL     1       0.627   4.168  20.089  0.00  0.00    +0.000 F 
ENDBRANCH  17  28
ENDBRANCH   3  17
TORSDOF 4
ENDMDL
MODEL 4
REMARK VINA RESULT:      -8.5      3.400      8.859
REMARK  Name = 
REMARK  4 active torsions:
REMARK  status: ('A' for Active; 'I' for Inactive)
REMARK    1  A    between atoms: C_8  and  C_9
REMARK    2  A    between atoms: N_11  and  C_12
REMARK    3  A    between atoms: C_12  and  C_13
REMARK    4  A    between atoms: C_12  and  C_23
REMARK                            x       y       z     vdW  Elec       q    Type
REMARK                         _______ _______ _______ _____ _____    ______ ____
ROOT
ATOM      1  C   UNL     1       4.932   4.720  18.202  0.00  0.00    +0.000 C 
ATOM      2  O   UNL     1       5.397   4.106  19.154  0.00  0.00    +0.000 OA
ATOM      3  N   UNL     1       3.718   5.362  18.219  0.00  0.00    +0.000 N 
ATOM      4  H   UNL     1       3.476   5.984  17.459  0.00  0.00    +0.000 HD
ENDROOT
BRANCH   1  12
ATOM      5  O   UNL     1       5.911   2.258  11.587  0.00  0.00    +0.000 OA
ATOM      6  C   UNL     1       6.211   3.172  12.358  0.00  0.00    +0.000 C 
ATOM      7  C   UNL     1       6.942   4.406  11.880  0.00  0.00    +0.000 C 
ATOM      8  S   UNL     1       8.149   5.024  13.070  0.00  0.00    +0.000 S 
ATOM      9  C   UNL     1       7.126   4.973  14.525  0.00  0.00    +0.000 A 
ATOM     10  C   UNL     1       7.434   5.837  15.581  0.00  0.00    +0.000 A 
ATOM     11  C   UNL     1       6.712   5.779  16.772  0.00  0.00    +0.000 A 
ATOM     12  C   UNL     1       5.691   4.832  16.927  0.00  0.00    +0.000 A 
ATOM     13  C   UNL     1       5.368   3.975  15.869  0.00  0.00    +0.000 A 
ATOM     14  C   UNL     1       6.081   4.048  14.667  0.00  0.00    +0.000 A 
ATOM     15  N   UNL     1       5.748   3.143  13.647  0.00  0.00    +0.000 N 
ATOM     16  H   UNL     1       5.127   2.369  13.853  0.00  0.00    +0.000 HD
ENDBRANCH   1  12
BRANCH   3  17
ATOM     17  C   UNL     1       2.842   5.400  19.405  0.00  0.00    +0.000 C 
BRANCH  17  18
ATOM     18  C   UNL     1       2.254   6.797  19.551  0.00  0.00    +0.000 A 
ATOM     19  C   UNL     1       2.214   7.667  18.449  0.00  0.00    +0.000 A 
ATOM     20  C   UNL     1       1.672   8.951  18.571  0.00  0.00    +0.000 A 
ATOM     21  C   UNL     1       1.159   9.377  19.794  0.00  0.00    +0.000 A 
ATOM     22  C   UNL     1       1.165   8.511  20.888  0.00  0.00    +0.000 A 
ATOM     23  C   UNL     1       1.725   7.239  20.776  0.00  0.00    +0.000 A 
ATOM     24  O   UNL     1       0.639   8.842  22.112  0.00  0.00    +0.000 OA
ATOM     25  C   UNL     1      -0.209   9.992  22.017  0.00  0.00    +0.000 C 
ATOM     26  C   UNL     1       0.458  11.083  21.195  0.00  0.00    +0.000 C 
ATOM     27  O   UNL     1       0.654  10.651  19.843  0.00  0.00    +0.000 OA
ENDBRANCH  17  18
BRANCH  17  28
ATOM     28  C   UNL     1       1.768   4.274  19.383  0.00  0.00    +0.000 C 
ATOM     29  F   UNL     1       1.122   4.251  18.185  0.00  0.00    +0.000 F 
ATOM     30  F   UNL     1       2.329   3.052  19.551  0.00  0.00    +0.000 F 
ATOM     31  F   UNL     1       0.813   4.413  20.327  0.00  0.00    +0.000 F 
ENDBRANCH  17  28
ENDBRANCH   3  17
TORSDOF 4
ENDMDL
MODEL 5
REMARK VINA RESULT:      -8.5      5.038      9.287
REMARK  Name = 
REMARK  4 active torsions:
REMARK  status: ('A' for Active; 'I' for Inactive)
REMARK    1  A    between atoms: C_8  and  C_9
REMARK    2  A    between atoms: N_11  and  C_12
REMARK    3  A    between atoms: C_12  and  C_13
REMARK    4  A    between atoms: C_12  and  C_23
REMARK                            x       y       z     vdW  Elec       q    Type
REMARK                         _______ _______ _______ _____ _____    ______ ____
ROOT
ATOM      1  C   UNL     1       2.029   9.333  18.375  0.00  0.00    +0.000 C 
ATOM      2  O   UNL     1       2.497  10.075  17.520  0.00  0.00    +0.000 OA
ATOM      3  N   UNL     1       1.048   9.702  19.262  0.00  0.00    +0.000 N 
ATOM      4  H   UNL     1       0.596   8.993  19.824  0.00  0.00    +0.000 HD
ENDROOT
BRANCH   1  12
ATOM      5  O   UNL     1       2.073   3.358  22.258  0.00  0.00    +0.000 OA
ATOM      6  C   UNL     1       2.369   3.825  21.156  0.00  0.00    +0.000 C 
ATOM      7  C   UNL     1       2.786   2.939  20.005  0.00  0.00    +0.000 C 
ATOM      8  S   UNL     1       4.088   3.662  18.987  0.00  0.00    +0.000 S 
ATOM      9  C   UNL     1       3.392   5.287  18.792  0.00  0.00    +0.000 A 
ATOM     10  C   UNL     1       3.759   6.033  17.667  0.00  0.00    +0.000 A 
ATOM     11  C   UNL     1       3.303   7.342  17.510  0.00  0.00    +0.000 A 
ATOM     12  C   UNL     1       2.496   7.925  18.496  0.00  0.00    +0.000 A 
ATOM     13  C   UNL     1       2.113   7.179  19.616  0.00  0.00    +0.000 A 
ATOM     14  C   UNL     1       2.556   5.859  19.762  0.00  0.00    +0.000 A 
ATOM     15  N   UNL     1       2.178   5.161  20.920  0.00  0.00    +0.000 N 
ATOM     16  H   UNL     1       1.741   5.664  21.683  0.00  0.00    +0.000 HD
ENDBRANCH   1  12
BRANCH   3  17
ATOM     17  C   UNL     1       0.429  11.041  19.268  0.00  0.00    +0.000 C 
BRANCH  17  18
ATOM     18  C   UNL     1      -0.993  10.939  18.731  0.00  0.00    +0.000 A 
ATOM     19  C   UNL     1      -1.302  10.021  17.715  0.00  0.00    +0.000 A 
ATOM     20  C   UNL     1      -2.605   9.916  17.218  0.00  0.00    +0.000 A 
ATOM     21  C   UNL     1      -3.614  10.725  17.734  0.00  0.00    +0.000 A 
ATOM     22  C   UNL     1      -3.327  11.621  18.765  0.00  0.00    +0.000 A 
ATOM     23  C   UNL     1      -2.024  11.743  19.247  0.00  0.00    +0.000 A 
ATOM     24  O   UNL     1      -4.274  12.419  19.355  0.00  0.00    +0.000 OA
ATOM     25  C   UNL     1      -5.598  11.966  19.047  0.00  0.00    +0.000 C 
ATOM     26  C   UNL     1      -5.728  11.660  17.564  0.00  0.00    +0.000 C 
ATOM     27  O   UNL     1      -4.865  10.578  17.192  0.00  0.00    +0.000 OA
ENDBRANCH  17  18
BRANCH  17  28
ATOM     28  C   UNL     1       0.518  11.727  20.662  0.00  0.00    +0.000 C 
ATOM     29  F   UNL     1       0.037  10.903  21.633  0.00  0.00    +0.000 F 
ATOM     30  F   UNL     1       1.800  12.016  20.989  0.00  0.00    +0.000 F 
ATOM     31  F   UNL     1      -0.190  12.873  20.751  0.00  0.00    +0.000 F 
ENDBRANCH  17  28
ENDBRANCH   3  17
TORSDOF 4
ENDMDL
MODEL 6
REMARK VINA RESULT:      -8.5      4.764      9.227
REMARK  Name = 
REMARK  4 active torsions:
REMARK  status: ('A' for Active; 'I' for Inactive)
REMARK    1  A    between atoms: C_8  and  C_9
REMARK    2  A    between atoms: N_11  and  C_12
REMARK    3  A    between atoms: C_12  and  C_13
REMARK    4  A    between atoms: C_12  and  C_23
REMARK                            x       y       z     vdW  Elec       q    Type
REMARK                         _______ _______ _______ _____ _____    ______ ____
ROOT
ATOM      1  C   UNL     1       2.113   9.113  18.221  0.00  0.00    +0.000 C 
ATOM      2  O   UNL     1       2.526  10.051  17.549  0.00  0.00    +0.000 OA
ATOM      3  N   UNL     1       1.163   9.231  19.205  0.00  0.00    +0.000 N 
ATOM      4  H   UNL     1       0.753   8.395  19.600  0.00  0.00    +0.000 HD
ENDROOT
BRANCH   1  12
ATOM      5  O   UNL     1       0.962   2.119  18.953  0.00  0.00    +0.000 OA
ATOM      6  C   UNL     1       1.694   2.951  18.413  0.00  0.00    +0.000 C 
ATOM      7  C   UNL     1       2.706   2.554  17.362  0.00  0.00    +0.000 C 
ATOM      8  S   UNL     1       4.247   3.487  17.471  0.00  0.00    +0.000 S 
ATOM      9  C   UNL     1       3.552   5.117  17.620  0.00  0.00    +0.000 A 
ATOM     10  C   UNL     1       4.326   6.206  17.205  0.00  0.00    +0.000 A 
ATOM     11  C   UNL     1       3.858   7.509  17.375  0.00  0.00    +0.000 A 
ATOM     12  C   UNL     1       2.619   7.734  17.990  0.00  0.00    +0.000 A 
ATOM     13  C   UNL     1       1.834   6.648  18.393  0.00  0.00    +0.000 A 
ATOM     14  C   UNL     1       2.297   5.341  18.204  0.00  0.00    +0.000 A 
ATOM     15  N   UNL     1       1.492   4.284  18.658  0.00  0.00    +0.000 N 
ATOM     16  H   UNL     1       0.691   4.486  19.244  0.00  0.00    +0.000 HD
ENDBRANCH   1  12
BRANCH   3  17
ATOM     17  C   UNL     1       0.512  10.509  19.549  0.00  0.00    +0.000 C 
BRANCH  17  18
ATOM     18  C   UNL     1      -0.811  10.616  18.803  0.00  0.00    +0.000 A 
ATOM     19  C   UNL     1      -1.039   9.846  17.651  0.00  0.00    +0.000 A 
ATOM     20  C   UNL     1      -2.253   9.933  16.961  0.00  0.00    +0.000 A 
ATOM     21  C   UNL     1      -3.254  10.786  17.418  0.00  0.00    +0.000 A 
ATOM     22  C   UNL     1      -3.052  11.534  18.579  0.00  0.00    +0.000 A 
ATOM     23  C   UNL     1      -1.835  11.466  19.256  0.00  0.00    +0.000 A 
ATOM     24  O   UNL     1      -4.005  12.363  19.116  0.00  0.00    +0.000 OA
ATOM     25  C   UNL     1      -5.300  12.087  18.568  0.00  0.00    +0.000 C 
ATOM     26  C   UNL     1      -5.223  11.952  17.056  0.00  0.00    +0.000 C 
ATOM     27  O   UNL     1      -4.413  10.829  16.687  0.00  0.00    +0.000 OA
ENDBRANCH  17  18
BRANCH  17  28
ATOM     28  C   UNL     1       0.376  10.708  21.086  0.00  0.00    +0.000 C 
ATOM     29  F   UNL     1       1.411  10.113  21.740  0.00  0.00    +0.000 F 
ATOM     30  F   UNL     1       0.402  12.021  21.419  0.00  0.00    +0.000 F 
ATOM     31  F   UNL     1      -0.754  10.182  21.606  0.00  0.00    +0.000 F 
ENDBRANCH  17  28
ENDBRANCH   3  17
TORSDOF 4
ENDMDL
MODEL 7
REMARK VINA RESULT:      -8.3      5.773      9.183
REMARK  Name = 
REMARK  4 active torsions:
REMARK  status: ('A' for Active; 'I' for Inactive)
REMARK    1  A    between atoms: C_8  and  C_9
REMARK    2  A    between atoms: N_11  and  C_12
REMARK    3  A    between atoms: C_12  and  C_13
REMARK    4  A    between atoms: C_12  and  C_23
REMARK                            x       y       z     vdW  Elec       q    Type
REMARK                         _______ _______ _______ _____ _____    ______ ____
ROOT
ATOM      1  C   UNL     1       1.059   9.240  20.184  0.00  0.00    +0.000 C 
ATOM      2  O   UNL     1       1.069   9.611  21.352  0.00  0.00    +0.000 OA
ATOM      3  N   UNL     1       0.478   9.945  19.159  0.00  0.00    +0.000 N 
ATOM      4  H   UNL     1       0.652   9.663  18.203  0.00  0.00    +0.000 HD
ENDROOT
BRANCH   1  12
ATOM      5  O   UNL     1       2.712   2.544  21.976  0.00  0.00    +0.000 OA
ATOM      6  C   UNL     1       2.699   3.344  21.038  0.00  0.00    +0.000 C 
ATOM      7  C   UNL     1       2.968   2.905  19.616  0.00  0.00    +0.000 C 
ATOM      8  S   UNL     1       3.914   4.111  18.666  0.00  0.00    +0.000 S 
ATOM      9  C   UNL     1       2.989   5.566  19.100  0.00  0.00    +0.000 A 
ATOM     10  C   UNL     1       3.005   6.649  18.215  0.00  0.00    +0.000 A 
ATOM     11  C   UNL     1       2.361   7.840  18.547  0.00  0.00    +0.000 A 
ATOM     12  C   UNL     1       1.718   7.968  19.786  0.00  0.00    +0.000 A 
ATOM     13  C   UNL     1       1.687   6.883  20.670  0.00  0.00    +0.000 A 
ATOM     14  C   UNL     1       2.316   5.681  20.326  0.00  0.00    +0.000 A 
ATOM     15  N   UNL     1       2.291   4.633  21.259  0.00  0.00    +0.000 N 
ATOM     16  H   UNL     1       1.969   4.815  22.202  0.00  0.00    +0.000 HD
ENDBRANCH   1  12
BRANCH   3  17
ATOM     17  C   UNL     1      -0.185  11.249  19.350  0.00  0.00    +0.000 C 
BRANCH  17  18
ATOM     18  C   UNL     1       0.782  12.363  18.975  0.00  0.00    +0.000 A 
ATOM     19  C   UNL     1       2.003  12.061  18.351  0.00  0.00    +0.000 A 
ATOM     20  C   UNL     1       2.897  13.078  17.998  0.00  0.00    +0.000 A 
ATOM     21  C   UNL     1       2.577  14.408  18.260  0.00  0.00    +0.000 A 
ATOM     22  C   UNL     1       1.353  14.724  18.851  0.00  0.00    +0.000 A 
ATOM     23  C   UNL     1       0.470  13.711  19.225  0.00  0.00    +0.000 A 
ATOM     24  O   UNL     1       0.948  16.011  19.101  0.00  0.00    +0.000 OA
ATOM     25  C   UNL     1       1.740  16.955  18.370  0.00  0.00    +0.000 C 
ATOM     26  C   UNL     1       3.218  16.622  18.494  0.00  0.00    +0.000 C 
ATOM     27  O   UNL     1       3.504  15.351  17.898  0.00  0.00    +0.000 OA
ENDBRANCH  17  18
BRANCH  17  28
ATOM     28  C   UNL     1      -1.549  11.333  18.605  0.00  0.00    +0.000 C 
ATOM     29  F   UNL     1      -2.000  10.088  18.288  0.00  0.00    +0.000 F 
ATOM     30  F   UNL     1      -2.499  11.911  19.378  0.00  0.00    +0.000 F 
ATOM     31  F   UNL     1      -1.495  12.025  17.446  0.00  0.00    +0.000 F 
ENDBRANCH  17  28
ENDBRANCH   3  17
TORSDOF 4
ENDMDL
MODEL 8
REMARK VINA RESULT:      -8.3      1.390      2.046
REMARK  Name = 
REMARK  4 active torsions:
REMARK  status: ('A' for Active; 'I' for Inactive)
REMARK    1  A    between atoms: C_8  and  C_9
REMARK    2  A    between atoms: N_11  and  C_12
REMARK    3  A    between atoms: C_12  and  C_13
REMARK    4  A    between atoms: C_12  and  C_23
REMARK                            x       y       z     vdW  Elec       q    Type
REMARK                         _______ _______ _______ _____ _____    ______ ____
ROOT
ATOM      1  C   UNL     1       2.536   6.317  18.867  0.00  0.00    +0.000 C 
ATOM      2  O   UNL     1       1.971   5.408  19.463  0.00  0.00    +0.000 OA
ATOM      3  N   UNL     1       3.634   6.143  18.061  0.00  0.00    +0.000 N 
ATOM      4  H   UNL     1       3.943   6.906  17.474  0.00  0.00    +0.000 HD
ENDROOT
BRANCH   1  12
ATOM      5  O   UNL     1      -0.472  11.319  22.954  0.00  0.00    +0.000 OA
ATOM      6  C   UNL     1       0.090  11.129  21.874  0.00  0.00    +0.000 C 
ATOM      7  C   UNL     1       0.524  12.279  20.993  0.00  0.00    +0.000 C 
ATOM      8  S   UNL     1       0.309  11.945  19.232  0.00  0.00    +0.000 S 
ATOM      9  C   UNL     1       1.038  10.324  19.186  0.00  0.00    +0.000 A 
ATOM     10  C   UNL     1       1.579   9.876  17.976  0.00  0.00    +0.000 A 
ATOM     11  C   UNL     1       2.090   8.583  17.868  0.00  0.00    +0.000 A 
ATOM     12  C   UNL     1       2.037   7.715  18.966  0.00  0.00    +0.000 A 
ATOM     13  C   UNL     1       1.510   8.161  20.183  0.00  0.00    +0.000 A 
ATOM     14  C   UNL     1       1.016   9.466  20.296  0.00  0.00    +0.000 A 
ATOM     15  N   UNL     1       0.463   9.858  21.524  0.00  0.00    +0.000 N 
ATOM     16  H   UNL     1       0.288   9.159  22.236  0.00  0.00    +0.000 HD
ENDBRANCH   1  12
BRANCH   3  17
ATOM     17  C   UNL     1       4.246   4.825  17.806  0.00  0.00    +0.000 C 
BRANCH  17  18
ATOM     18  C   UNL     1       5.222   4.943  16.642  0.00  0.00    +0.000 A 
ATOM     19  C   UNL     1       6.413   5.673  16.788  0.00  0.00    +0.000 A 
ATOM     20  C   UNL     1       7.319   5.783  15.727  0.00  0.00    +0.000 A 
ATOM     21  C   UNL     1       7.046   5.160  14.512  0.00  0.00    +0.000 A 
ATOM     22  C   UNL     1       5.881   4.407  14.363  0.00  0.00    +0.000 A 
ATOM     23  C   UNL     1       4.965   4.314  15.412  0.00  0.00    +0.000 A 
ATOM     24  O   UNL     1       5.563   3.730  13.213  0.00  0.00    +0.000 OA
ATOM     25  C   UNL     1       6.706   3.596  12.359  0.00  0.00    +0.000 C 
ATOM     26  C   UNL     1       7.444   4.919  12.242  0.00  0.00    +0.000 C 
ATOM     27  O   UNL     1       7.971   5.320  13.513  0.00  0.00    +0.000 OA
ENDBRANCH  17  18
BRANCH  17  28
ATOM     28  C   UNL     1       4.879   4.209  19.087  0.00  0.00    +0.000 C 
ATOM     29  F   UNL     1       5.954   3.437  18.768  0.00  0.00    +0.000 F 
ATOM     30  F   UNL     1       5.322   5.172  19.931  0.00  0.00    +0.000 F 
ATOM     31  F   UNL     1       4.036   3.417  19.784  0.00  0.00    +0.000 F 
ENDBRANCH  17  28
ENDBRANCH   3  17
TORSDOF 4
ENDMDL
MODEL 9
REMARK VINA RESULT:      -8.2      4.718      9.674
REMARK  Name = 
REMARK  4 active torsions:
REMARK  status: ('A' for Active; 'I' for Inactive)
REMARK    1  A    between atoms: C_8  and  C_9
REMARK    2  A    between atoms: N_11  and  C_12
REMARK    3  A    between atoms: C_12  and  C_13
REMARK    4  A    between atoms: C_12  and  C_23
REMARK                            x       y       z     vdW  Elec       q    Type
REMARK                         _______ _______ _______ _____ _____    ______ ____
ROOT
ATOM      1  C   UNL     1       1.919   9.045  18.131  0.00  0.00    +0.000 C 
ATOM      2  O   UNL     1       1.788   9.435  16.977  0.00  0.00    +0.000 OA
ATOM      3  N   UNL     1       1.497   9.747  19.233  0.00  0.00    +0.000 N 
ATOM      4  H   UNL     1       1.488   9.292  20.136  0.00  0.00    +0.000 HD
ENDROOT
BRANCH   1  12
ATOM      5  O   UNL     1       2.104   3.301  22.345  0.00  0.00    +0.000 OA
ATOM      6  C   UNL     1       2.522   3.763  21.281  0.00  0.00    +0.000 C 
ATOM      7  C   UNL     1       3.255   2.903  20.276  0.00  0.00    +0.000 C 
ATOM      8  S   UNL     1       4.603   3.769  19.448  0.00  0.00    +0.000 S 
ATOM      9  C   UNL     1       3.734   5.264  19.034  0.00  0.00    +0.000 A 
ATOM     10  C   UNL     1       4.187   6.012  17.941  0.00  0.00    +0.000 A 
ATOM     11  C   UNL     1       3.590   7.231  17.625  0.00  0.00    +0.000 A 
ATOM     12  C   UNL     1       2.548   7.728  18.420  0.00  0.00    +0.000 A 
ATOM     13  C   UNL     1       2.081   6.978  19.506  0.00  0.00    +0.000 A 
ATOM     14  C   UNL     1       2.669   5.745  19.810  0.00  0.00    +0.000 A 
ATOM     15  N   UNL     1       2.193   5.046  20.929  0.00  0.00    +0.000 N 
ATOM     16  H   UNL     1       1.562   5.509  21.573  0.00  0.00    +0.000 HD
ENDBRANCH   1  12
BRANCH   3  17
ATOM     17  C   UNL     1       0.813  11.051  19.145  0.00  0.00    +0.000 C 
BRANCH  17  18
ATOM     18  C   UNL     1      -0.083  11.230  20.364  0.00  0.00    +0.000 A 
ATOM     19  C   UNL     1       0.090  10.418  21.496  0.00  0.00    +0.000 A 
ATOM     20  C   UNL     1      -0.725  10.578  22.622  0.00  0.00    +0.000 A 
ATOM     21  C   UNL     1      -1.718  11.554  22.630  0.00  0.00    +0.000 A 
ATOM     22  C   UNL     1      -1.880  12.388  21.523  0.00  0.00    +0.000 A 
ATOM     23  C   UNL     1      -1.084  12.217  20.390  0.00  0.00    +0.000 A 
ATOM     24  O   UNL     1      -2.805  13.400  21.472  0.00  0.00    +0.000 OA
ATOM     25  C   UNL     1      -3.301  13.715  22.779  0.00  0.00    +0.000 C 
ATOM     26  C   UNL     1      -3.655  12.445  23.536  0.00  0.00    +0.000 C 
ATOM     27  O   UNL     1      -2.486  11.647  23.762  0.00  0.00    +0.000 OA
ENDBRANCH  17  18
BRANCH  17  28
ATOM     28  C   UNL     1       1.809  12.227  18.929  0.00  0.00    +0.000 C 
ATOM     29  F   UNL     1       1.189  13.275  18.320  0.00  0.00    +0.000 F 
ATOM     30  F   UNL     1       2.294  12.686  20.107  0.00  0.00    +0.000 F 
ATOM     31  F   UNL     1       2.867  11.909  18.152  0.00  0.00    +0.000 F 
ENDBRANCH  17  28
ENDBRANCH   3  17
TORSDOF 4
ENDMDL
