MODEL 1
REMARK VINA RESULT:      -8.2      0.000      0.000
REMARK  Name = 
REMARK  7 active torsions:
REMARK  status: ('A' for Active; 'I' for Inactive)
REMARK    1  A    between atoms: C_1  and  C_2
REMARK    2  A    between atoms: C_6  and  N_7
REMARK    3  A    between atoms: C_12  and  C_13
REMARK    4  A    between atoms: C_13  and  C_14
REMARK    5  A    between atoms: C_17  and  C_18
REMARK    6  A    between atoms: C_18  and  O_19
REMARK    7  A    between atoms: C_21  and  C_22
REMARK                            x       y       z     vdW  Elec       q    Type
REMARK                         _______ _______ _______ _____ _____    ______ ____
ROOT
ATOM      1  N   UNL     1       6.130   5.515  15.665  0.00  0.00    +0.000 N 
ATOM      2  C   UNL     1       5.035   6.500  15.774  0.00  0.00    +0.000 C 
ATOM      3  C   UNL     1       4.002   5.739  16.549  0.00  0.00    +0.000 A 
ATOM      4  C   UNL     1       4.181   4.383  16.266  0.00  0.00    +0.000 A 
ATOM      5  C   UNL     1       3.467   3.373  16.896  0.00  0.00    +0.000 A 
ATOM      6  C   UNL     1       2.532   3.736  17.876  0.00  0.00    +0.000 A 
ATOM      7  C   UNL     1       2.406   5.110  18.211  0.00  0.00    +0.000 A 
ATOM      8  C   UNL     1       3.137   6.132  17.561  0.00  0.00    +0.000 A 
ATOM      9  C   UNL     1       5.493   4.245  15.593  0.00  0.00    +0.000 C 
ATOM     10  O   UNL     1       5.974   3.175  15.256  0.00  0.00    +0.000 OA
ENDROOT
BRANCH   1  16
ATOM     11  C   UNL     1       8.496   8.732  18.576  0.00  0.00    +0.000 C 
ATOM     12  C   UNL     1       7.983   7.351  18.295  0.00  0.00    +0.000 A 
ATOM     13  C   UNL     1       7.900   6.409  19.326  0.00  0.00    +0.000 A 
ATOM     14  C   UNL     1       7.534   5.095  19.052  0.00  0.00    +0.000 A 
ATOM     15  C   UNL     1       7.178   4.727  17.763  0.00  0.00    +0.000 A 
ATOM     16  C   UNL     1       7.071   5.699  16.756  0.00  0.00    +0.000 A 
ATOM     17  C   UNL     1       7.573   6.988  17.003  0.00  0.00    +0.000 A 
ENDBRANCH   1  16
BRANCH   8  18
ATOM     18  C   UNL     1       3.056   7.545  18.091  0.00  0.00    +0.000 C 
ATOM     19  F   UNL     1       2.637   7.636  19.383  0.00  0.00    +0.000 F 
ATOM     20  F   UNL     1       4.257   8.181  18.050  0.00  0.00    +0.000 F 
ATOM     21  F   UNL     1       2.195   8.315  17.371  0.00  0.00    +0.000 F 
ENDBRANCH   8  18
BRANCH   6  22
ATOM     22  C   UNL     1       1.849   2.658  18.696  0.00  0.00    +0.000 C 
BRANCH  22  23
ATOM     23  C   UNL     1       2.182   2.665  20.126  0.00  0.00    +0.000 C 
ATOM     24  N   UNL     1       1.532   2.842  21.212  0.00  0.00    +0.000 NA
ATOM     25  N   UNL     1       2.735   2.608  21.972  0.00  0.00    +0.000 NA
ATOM     26  C   UNL     1       3.380   2.392  20.889  0.00  0.00    +0.000 C 
BRANCH  26  27
ATOM     27  C   UNL     1       4.795   2.196  20.579  0.00  0.00    +0.000 C 
BRANCH  27  28
ATOM     28  O   UNL     1       5.343   1.309  21.556  0.00  0.00    +0.000 OA
ATOM     29  H   UNL     1       6.047   1.795  22.032  0.00  0.00    +0.000 HD
ENDBRANCH  27  28
ENDBRANCH  26  27
ENDBRANCH  22  23
ENDBRANCH   6  22
TORSDOF 6
ENDMDL
MODEL 2
REMARK VINA RESULT:      -7.8      2.798      6.149
REMARK  Name = 
REMARK  7 active torsions:
REMARK  status: ('A' for Active; 'I' for Inactive)
REMARK    1  A    between atoms: C_1  and  C_2
REMARK    2  A    between atoms: C_6  and  N_7
REMARK    3  A    between atoms: C_12  and  C_13
REMARK    4  A    between atoms: C_13  and  C_14
REMARK    5  A    between atoms: C_17  and  C_18
REMARK    6  A    between atoms: C_18  and  O_19
REMARK    7  A    between atoms: C_21  and  C_22
REMARK                            x       y       z     vdW  Elec       q    Type
REMARK                         _______ _______ _______ _____ _____    ______ ____
ROOT
ATOM      1  N   UNL     1       4.311   4.483  18.818  0.00  0.00    +0.000 N 
ATOM      2  C   UNL     1       5.649   5.042  19.094  0.00  0.00    +0.000 C 
ATOM      3  C   UNL     1       6.281   5.035  17.735  0.00  0.00    +0.000 A 
ATOM      4  C   UNL     1       5.700   3.994  17.009  0.00  0.00    +0.000 A 
ATOM      5  C   UNL     1       5.968   3.758  15.668  0.00  0.00    +0.000 A 
ATOM      6  C   UNL     1       6.855   4.622  15.009  0.00  0.00    +0.000 A 
ATOM      7  C   UNL     1       7.386   5.723  15.732  0.00  0.00    +0.000 A 
ATOM      8  C   UNL     1       7.108   5.952  17.101  0.00  0.00    +0.000 A 
ATOM      9  C   UNL     1       4.500   3.553  17.757  0.00  0.00    +0.000 C 
ATOM     10  O   UNL     1       3.736   2.686  17.365  0.00  0.00    +0.000 OA
ENDROOT
BRANCH   1  16
ATOM     11  C   UNL     1       1.353   7.917  20.786  0.00  0.00    +0.000 C 
ATOM     12  C   UNL     1       2.144   7.373  19.633  0.00  0.00    +0.000 A 
ATOM     13  C   UNL     1       2.437   8.189  18.535  0.00  0.00    +0.000 A 
ATOM     14  C   UNL     1       3.071   7.662  17.414  0.00  0.00    +0.000 A 
ATOM     15  C   UNL     1       3.480   6.337  17.407  0.00  0.00    +0.000 A 
ATOM     16  C   UNL     1       3.366   5.557  18.568  0.00  0.00    +0.000 A 
ATOM     17  C   UNL     1       2.606   6.048  19.642  0.00  0.00    +0.000 A 
ENDBRANCH   1  16
BRANCH   8  18
ATOM     18  C   UNL     1       7.588   7.232  17.744  0.00  0.00    +0.000 C 
ATOM     19  F   UNL     1       6.592   8.088  18.100  0.00  0.00    +0.000 F 
ATOM     20  F   UNL     1       8.298   7.004  18.881  0.00  0.00    +0.000 F 
ATOM     21  F   UNL     1       8.408   7.943  16.922  0.00  0.00    +0.000 F 
ENDBRANCH   8  18
BRANCH   6  22
ATOM     22  C   UNL     1       7.050   4.496  13.509  0.00  0.00    +0.000 C 
BRANCH  22  23
ATOM     23  C   UNL     1       5.990   3.759  12.809  0.00  0.00    +0.000 C 
ATOM     24  N   UNL     1       4.714   3.818  12.769  0.00  0.00    +0.000 NA
ATOM     25  N   UNL     1       4.695   2.747  11.802  0.00  0.00    +0.000 NA
ATOM     26  C   UNL     1       5.972   2.712  11.812  0.00  0.00    +0.000 C 
BRANCH  26  27
ATOM     27  C   UNL     1       6.961   1.808  11.227  0.00  0.00    +0.000 C 
BRANCH  27  28
ATOM     28  O   UNL     1       6.433   0.482  11.278  0.00  0.00    +0.000 OA
ATOM     29  H   UNL     1       6.375   0.225  12.221  0.00  0.00    +0.000 HD
ENDBRANCH  27  28
ENDBRANCH  26  27
ENDBRANCH  22  23
ENDBRANCH   6  22
TORSDOF 6
ENDMDL
MODEL 3
REMARK VINA RESULT:      -7.3      1.300      1.501
REMARK  Name = 
REMARK  7 active torsions:
REMARK  status: ('A' for Active; 'I' for Inactive)
REMARK    1  A    between atoms: C_1  and  C_2
REMARK    2  A    between atoms: C_6  and  N_7
REMARK    3  A    between atoms: C_12  and  C_13
REMARK    4  A    between atoms: C_13  and  C_14
REMARK    5  A    between atoms: C_17  and  C_18
REMARK    6  A    between atoms: C_18  and  O_19
REMARK    7  A    between atoms: C_21  and  C_22
REMARK                            x       y       z     vdW  Elec       q    Type
REMARK                         _______ _______ _______ _____ _____    ______ ____
ROOT
ATOM      1  N   UNL     1       6.308   5.787  15.498  0.00  0.00    +0.000 N 
ATOM      2  C   UNL     1       5.073   6.568  15.712  0.00  0.00    +0.000 C 
ATOM      3  C   UNL     1       4.225   5.611  16.493  0.00  0.00    +0.000 A 
ATOM      4  C   UNL     1       4.608   4.319  16.130  0.00  0.00    +0.000 A 
ATOM      5  C   UNL     1       4.106   3.176  16.737  0.00  0.00    +0.000 A 
ATOM      6  C   UNL     1       3.180   3.333  17.779  0.00  0.00    +0.000 A 
ATOM      7  C   UNL     1       2.849   4.651  18.194  0.00  0.00    +0.000 A 
ATOM      8  C   UNL     1       3.366   5.809  17.565  0.00  0.00    +0.000 A 
ATOM      9  C   UNL     1       5.885   4.432  15.387  0.00  0.00    +0.000 C 
ATOM     10  O   UNL     1       6.515   3.474  14.970  0.00  0.00    +0.000 OA
ENDROOT
BRANCH   1  16
ATOM     11  C   UNL     1       8.428   9.252  18.311  0.00  0.00    +0.000 C 
ATOM     12  C   UNL     1       8.055   7.823  18.051  0.00  0.00    +0.000 A 
ATOM     13  C   UNL     1       8.114   6.882  19.085  0.00  0.00    +0.000 A 
ATOM     14  C   UNL     1       7.879   5.535  18.827  0.00  0.00    +0.000 A 
ATOM     15  C   UNL     1       7.515   5.125  17.553  0.00  0.00    +0.000 A 
ATOM     16  C   UNL     1       7.265   6.075  16.551  0.00  0.00    +0.000 A 
ATOM     17  C   UNL     1       7.636   7.411  16.777  0.00  0.00    +0.000 A 
ENDBRANCH   1  16
BRANCH   8  18
ATOM     18  C   UNL     1       3.083   7.162  18.174  0.00  0.00    +0.000 C 
ATOM     19  F   UNL     1       2.789   7.129  19.502  0.00  0.00    +0.000 F 
ATOM     20  F   UNL     1       4.138   8.012  18.055  0.00  0.00    +0.000 F 
ATOM     21  F   UNL     1       2.028   7.783  17.579  0.00  0.00    +0.000 F 
ENDBRANCH   8  18
BRANCH   6  22
ATOM     22  C   UNL     1       2.732   2.120  18.572  0.00  0.00    +0.000 C 
BRANCH  22  23
ATOM     23  C   UNL     1       3.108   2.135  19.990  0.00  0.00    +0.000 C 
ATOM     24  N   UNL     1       4.175   1.892  20.653  0.00  0.00    +0.000 NA
ATOM     25  N   UNL     1       3.493   2.234  21.877  0.00  0.00    +0.000 NA
ATOM     26  C   UNL     1       2.437   2.516  21.214  0.00  0.00    +0.000 C 
BRANCH  26  27
ATOM     27  C   UNL     1       1.064   2.846  21.594  0.00  0.00    +0.000 C 
BRANCH  27  28
ATOM     28  O   UNL     1       0.557   3.786  20.645  0.00  0.00    +0.000 OA
ATOM     29  H   UNL     1       0.554   4.665  21.077  0.00  0.00    +0.000 HD
ENDBRANCH  27  28
ENDBRANCH  26  27
ENDBRANCH  22  23
ENDBRANCH   6  22
TORSDOF 6
ENDMDL
MODEL 4
REMARK VINA RESULT:      -7.3      3.719      5.256
REMARK  Name = 
REMARK  7 active torsions:
REMARK  status: ('A' for Active; 'I' for Inactive)
REMARK    1  A    between atoms: C_1  and  C_2
REMARK    2  A    between atoms: C_6  and  N_7
REMARK    3  A    between atoms: C_12  and  C_13
REMARK    4  A    between atoms: C_13  and  C_14
REMARK    5  A    between atoms: C_17  and  C_18
REMARK    6  A    between atoms: C_18  and  O_19
REMARK    7  A    between atoms: C_21  and  C_22
REMARK                            x       y       z     vdW  Elec       q    Type
REMARK                         _______ _______ _______ _____ _____    ______ ____
ROOT
ATOM      1  N   UNL     1       6.277   5.447  16.950  0.00  0.00    +0.000 N 
ATOM      2  C   UNL     1       5.397   4.611  17.790  0.00  0.00    +0.000 C 
ATOM      3  C   UNL     1       4.185   5.480  17.939  0.00  0.00    +0.000 A 
ATOM      4  C   UNL     1       4.606   6.807  17.844  0.00  0.00    +0.000 A 
ATOM      5  C   UNL     1       3.732   7.886  17.830  0.00  0.00    +0.000 A 
ATOM      6  C   UNL     1       2.356   7.622  17.897  0.00  0.00    +0.000 A 
ATOM      7  C   UNL     1       1.929   6.268  17.919  0.00  0.00    +0.000 A 
ATOM      8  C   UNL     1       2.830   5.176  17.936  0.00  0.00    +0.000 A 
ATOM      9  C   UNL     1       5.992   6.792  17.321  0.00  0.00    +0.000 C 
ATOM     10  O   UNL     1       6.637   7.798  17.075  0.00  0.00    +0.000 OA
ENDROOT
BRANCH   1  16
ATOM     11  C   UNL     1       8.178   5.549  12.390  0.00  0.00    +0.000 C 
ATOM     12  C   UNL     1       7.220   4.987  13.398  0.00  0.00    +0.000 A 
ATOM     13  C   UNL     1       6.572   3.773  13.150  0.00  0.00    +0.000 A 
ATOM     14  C   UNL     1       5.599   3.301  14.026  0.00  0.00    +0.000 A 
ATOM     15  C   UNL     1       5.315   4.000  15.190  0.00  0.00    +0.000 A 
ATOM     16  C   UNL     1       6.086   5.115  15.549  0.00  0.00    +0.000 A 
ATOM     17  C   UNL     1       6.967   5.663  14.601  0.00  0.00    +0.000 A 
ENDBRANCH   1  16
BRANCH   8  18
ATOM     18  C   UNL     1       2.287   3.773  17.799  0.00  0.00    +0.000 C 
ATOM     19  F   UNL     1       2.779   2.890  18.710  0.00  0.00    +0.000 F 
ATOM     20  F   UNL     1       0.935   3.728  17.939  0.00  0.00    +0.000 F 
ATOM     21  F   UNL     1       2.559   3.233  16.580  0.00  0.00    +0.000 F 
ENDBRANCH   8  18
BRANCH   6  22
ATOM     22  C   UNL     1       1.366   8.759  17.723  0.00  0.00    +0.000 C 
BRANCH  22  23
ATOM     23  C   UNL     1       1.247   9.656  18.878  0.00  0.00    +0.000 C 
ATOM     24  N   UNL     1       1.255  10.923  19.053  0.00  0.00    +0.000 NA
ATOM     25  N   UNL     1       1.036  10.730  20.466  0.00  0.00    +0.000 NA
ATOM     26  C   UNL     1       0.989   9.465  20.289  0.00  0.00    +0.000 C 
BRANCH  26  27
ATOM     27  C   UNL     1       0.938   8.320  21.196  0.00  0.00    +0.000 C 
BRANCH  27  28
ATOM     28  O   UNL     1       1.856   8.561  22.264  0.00  0.00    +0.000 OA
ATOM     29  H   UNL     1       1.336   8.621  23.090  0.00  0.00    +0.000 HD
ENDBRANCH  27  28
ENDBRANCH  26  27
ENDBRANCH  22  23
ENDBRANCH   6  22
TORSDOF 6
ENDMDL
MODEL 5
REMARK VINA RESULT:      -7.2      1.386      1.729
REMARK  Name = 
REMARK  7 active torsions:
REMARK  status: ('A' for Active; 'I' for Inactive)
REMARK    1  A    between atoms: C_1  and  C_2
REMARK    2  A    between atoms: C_6  and  N_7
REMARK    3  A    between atoms: C_12  and  C_13
REMARK    4  A    between atoms: C_13  and  C_14
REMARK    5  A    between atoms: C_17  and  C_18
REMARK    6  A    between atoms: C_18  and  O_19
REMARK    7  A    between atoms: C_21  and  C_22
REMARK                            x       y       z     vdW  Elec       q    Type
REMARK                         _______ _______ _______ _____ _____    ______ ____
ROOT
ATOM      1  N   UNL     1       6.235   5.526  15.582  0.00  0.00    +0.000 N 
ATOM      2  C   UNL     1       5.010   6.337  15.730  0.00  0.00    +0.000 C 
ATOM      3  C   UNL     1       4.171   5.480  16.628  0.00  0.00    +0.000 A 
ATOM      4  C   UNL     1       4.538   4.153  16.403  0.00  0.00    +0.000 A 
ATOM      5  C   UNL     1       4.040   3.088  17.142  0.00  0.00    +0.000 A 
ATOM      6  C   UNL     1       3.135   3.368  18.177  0.00  0.00    +0.000 A 
ATOM      7  C   UNL     1       2.821   4.726  18.449  0.00  0.00    +0.000 A 
ATOM      8  C   UNL     1       3.333   5.803  17.687  0.00  0.00    +0.000 A 
ATOM      9  C   UNL     1       5.801   4.171  15.630  0.00  0.00    +0.000 C 
ATOM     10  O   UNL     1       6.417   3.168  15.310  0.00  0.00    +0.000 OA
ENDROOT
BRANCH   1  16
ATOM     11  C   UNL     1       8.269   9.246  18.120  0.00  0.00    +0.000 C 
ATOM     12  C   UNL     1       7.964   7.787  17.951  0.00  0.00    +0.000 A 
ATOM     13  C   UNL     1       8.112   6.909  19.031  0.00  0.00    +0.000 A 
ATOM     14  C   UNL     1       7.941   5.540  18.854  0.00  0.00    +0.000 A 
ATOM     15  C   UNL     1       7.552   5.042  17.619  0.00  0.00    +0.000 A 
ATOM     16  C   UNL     1       7.214   5.921  16.579  0.00  0.00    +0.000 A 
ATOM     17  C   UNL     1       7.520   7.285  16.719  0.00  0.00    +0.000 A 
ENDBRANCH   1  16
BRANCH   8  18
ATOM     18  C   UNL     1       3.071   7.217  18.147  0.00  0.00    +0.000 C 
ATOM     19  F   UNL     1       1.917   7.758  17.668  0.00  0.00    +0.000 F 
ATOM     20  F   UNL     1       2.985   7.313  19.500  0.00  0.00    +0.000 F 
ATOM     21  F   UNL     1       4.062   8.072  17.769  0.00  0.00    +0.000 F 
ENDBRANCH   8  18
BRANCH   6  22
ATOM     22  C   UNL     1       2.694   2.253  19.107  0.00  0.00    +0.000 C 
BRANCH  22  23
ATOM     23  C   UNL     1       2.546   2.646  20.514  0.00  0.00    +0.000 C 
ATOM     24  N   UNL     1       2.986   2.210  21.632  0.00  0.00    +0.000 NA
ATOM     25  N   UNL     1       2.310   3.284  22.318  0.00  0.00    +0.000 NA
ATOM     26  C   UNL     1       1.901   3.745  21.198  0.00  0.00    +0.000 C 
BRANCH  26  27
ATOM     27  C   UNL     1       0.966   4.805  20.823  0.00  0.00    +0.000 C 
BRANCH  27  28
ATOM     28  O   UNL     1       1.544   6.056  21.198  0.00  0.00    +0.000 OA
ATOM     29  H   UNL     1       1.435   6.152  22.166  0.00  0.00    +0.000 HD
ENDBRANCH  27  28
ENDBRANCH  26  27
ENDBRANCH  22  23
ENDBRANCH   6  22
TORSDOF 6
ENDMDL
MODEL 6
REMARK VINA RESULT:      -7.2      3.913      5.616
REMARK  Name = 
REMARK  7 active torsions:
REMARK  status: ('A' for Active; 'I' for Inactive)
REMARK    1  A    between atoms: C_1  and  C_2
REMARK    2  A    between atoms: C_6  and  N_7
REMARK    3  A    between atoms: C_12  and  C_13
REMARK    4  A    between atoms: C_13  and  C_14
REMARK    5  A    between atoms: C_17  and  C_18
REMARK    6  A    between atoms: C_18  and  O_19
REMARK    7  A    between atoms: C_21  and  C_22
REMARK                            x       y       z     vdW  Elec       q    Type
REMARK                         _______ _______ _______ _____ _____    ______ ____
ROOT
ATOM      1  N   UNL     1       6.479   5.168  16.738  0.00  0.00    +0.000 N 
ATOM      2  C   UNL     1       5.579   4.324  17.550  0.00  0.00    +0.000 C 
ATOM      3  C   UNL     1       4.429   5.248  17.809  0.00  0.00    +0.000 A 
ATOM      4  C   UNL     1       4.927   6.552  17.795  0.00  0.00    +0.000 A 
ATOM      5  C   UNL     1       4.121   7.677  17.894  0.00  0.00    +0.000 A 
ATOM      6  C   UNL     1       2.734   7.490  17.997  0.00  0.00    +0.000 A 
ATOM      7  C   UNL     1       2.226   6.165  17.938  0.00  0.00    +0.000 A 
ATOM      8  C   UNL     1       3.059   5.025  17.839  0.00  0.00    +0.000 A 
ATOM      9  C   UNL     1       6.290   6.494  17.217  0.00  0.00    +0.000 C 
ATOM     10  O   UNL     1       6.986   7.477  17.019  0.00  0.00    +0.000 OA
ENDROOT
BRANCH   1  16
ATOM     11  C   UNL     1       8.165   5.625  12.115  0.00  0.00    +0.000 C 
ATOM     12  C   UNL     1       7.248   4.991  13.120  0.00  0.00    +0.000 A 
ATOM     13  C   UNL     1       6.573   3.807  12.805  0.00  0.00    +0.000 A 
ATOM     14  C   UNL     1       5.635   3.275  13.685  0.00  0.00    +0.000 A 
ATOM     15  C   UNL     1       5.415   3.878  14.914  0.00  0.00    +0.000 A 
ATOM     16  C   UNL     1       6.218   4.953  15.325  0.00  0.00    +0.000 A 
ATOM     17  C   UNL     1       7.060   5.569  14.384  0.00  0.00    +0.000 A 
ENDBRANCH   1  16
BRANCH   8  18
ATOM     18  C   UNL     1       2.426   3.671  17.623  0.00  0.00    +0.000 C 
ATOM     19  F   UNL     1       2.900   2.692  18.442  0.00  0.00    +0.000 F 
ATOM     20  F   UNL     1       1.081   3.692  17.820  0.00  0.00    +0.000 F 
ATOM     21  F   UNL     1       2.615   3.212  16.355  0.00  0.00    +0.000 F 
ENDBRANCH   8  18
BRANCH   6  22
ATOM     22  C   UNL     1       1.811   8.693  17.946  0.00  0.00    +0.000 C 
BRANCH  22  23
ATOM     23  C   UNL     1       1.261   9.105  19.244  0.00  0.00    +0.000 C 
ATOM     24  N   UNL     1       1.329   8.666  20.442  0.00  0.00    +0.000 NA
ATOM     25  N   UNL     1       0.518   9.770  20.893  0.00  0.00    +0.000 NA
ATOM     26  C   UNL     1       0.480  10.233  19.702  0.00  0.00    +0.000 C 
BRANCH  26  27
ATOM     27  C   UNL     1      -0.260  11.320  19.065  0.00  0.00    +0.000 C 
BRANCH  27  28
ATOM     28  O   UNL     1      -1.624  10.914  18.942  0.00  0.00    +0.000 OA
ATOM     29  H   UNL     1      -2.064  11.544  18.336  0.00  0.00    +0.000 HD
ENDBRANCH  27  28
ENDBRANCH  26  27
ENDBRANCH  22  23
ENDBRANCH   6  22
TORSDOF 6
ENDMDL
MODEL 7
REMARK VINA RESULT:      -7.2      8.547     10.988
REMARK  Name = 
REMARK  7 active torsions:
REMARK  status: ('A' for Active; 'I' for Inactive)
REMARK    1  A    between atoms: C_1  and  C_2
REMARK    2  A    between atoms: C_6  and  N_7
REMARK    3  A    between atoms: C_12  and  C_13
REMARK    4  A    between atoms: C_13  and  C_14
REMARK    5  A    between atoms: C_17  and  C_18
REMARK    6  A    between atoms: C_18  and  O_19
REMARK    7  A    between atoms: C_21  and  C_22
REMARK                            x       y       z     vdW  Elec       q    Type
REMARK                         _______ _______ _______ _____ _____    ______ ____
ROOT
ATOM      1  N   UNL     1      -0.271  11.709  18.636  0.00  0.00    +0.000 N 
ATOM      2  C   UNL     1       0.465  10.887  19.618  0.00  0.00    +0.000 C 
ATOM      3  C   UNL     1      -0.099  11.371  20.919  0.00  0.00    +0.000 A 
ATOM      4  C   UNL     1      -0.496  12.696  20.737  0.00  0.00    +0.000 A 
ATOM      5  C   UNL     1      -1.165  13.433  21.706  0.00  0.00    +0.000 A 
ATOM      6  C   UNL     1      -1.468  12.802  22.922  0.00  0.00    +0.000 A 
ATOM      7  C   UNL     1      -1.128  11.432  23.075  0.00  0.00    +0.000 A 
ATOM      8  C   UNL     1      -0.444  10.693  22.081  0.00  0.00    +0.000 A 
ATOM      9  C   UNL     1      -0.496  12.958  19.279  0.00  0.00    +0.000 C 
ATOM     10  O   UNL     1      -0.844  14.015  18.778  0.00  0.00    +0.000 OA
ENDROOT
BRANCH   1  16
ATOM     11  C   UNL     1      -5.128  11.926  17.756  0.00  0.00    +0.000 C 
ATOM     12  C   UNL     1      -3.785  11.291  17.546  0.00  0.00    +0.000 A 
ATOM     13  C   UNL     1      -3.585  10.407  16.480  0.00  0.00    +0.000 A 
ATOM     14  C   UNL     1      -2.378   9.728  16.344  0.00  0.00    +0.000 A 
ATOM     15  C   UNL     1      -1.338   9.978  17.227  0.00  0.00    +0.000 A 
ATOM     16  C   UNL     1      -1.454  10.999  18.183  0.00  0.00    +0.000 A 
ATOM     17  C   UNL     1      -2.713  11.580  18.404  0.00  0.00    +0.000 A 
ENDBRANCH   1  16
BRANCH   8  18
ATOM     18  C   UNL     1      -0.265   9.204  22.266  0.00  0.00    +0.000 C 
ATOM     19  F   UNL     1      -0.846   8.445  21.298  0.00  0.00    +0.000 F 
ATOM     20  F   UNL     1       1.045   8.840  22.279  0.00  0.00    +0.000 F 
ATOM     21  F   UNL     1      -0.791   8.766  23.442  0.00  0.00    +0.000 F 
ENDBRANCH   8  18
BRANCH   6  22
ATOM     22  C   UNL     1      -2.335  13.519  23.941  0.00  0.00    +0.000 C 
BRANCH  22  23
ATOM     23  C   UNL     1      -3.674  12.945  24.125  0.00  0.00    +0.000 C 
ATOM     24  N   UNL     1      -4.298  12.383  25.088  0.00  0.00    +0.000 NA
ATOM     25  N   UNL     1      -5.471  12.262  24.258  0.00  0.00    +0.000 NA
ATOM     26  C   UNL     1      -4.862  12.860  23.306  0.00  0.00    +0.000 C 
BRANCH  26  27
ATOM     27  C   UNL     1      -5.185  13.113  21.903  0.00  0.00    +0.000 C 
BRANCH  27  28
ATOM     28  O   UNL     1      -5.900  11.982  21.403  0.00  0.00    +0.000 OA
ATOM     29  H   UNL     1      -6.855  12.167  21.513  0.00  0.00    +0.000 HD
ENDBRANCH  27  28
ENDBRANCH  26  27
ENDBRANCH  22  23
ENDBRANCH   6  22
TORSDOF 6
ENDMDL
MODEL 8
REMARK VINA RESULT:      -7.1      1.287      1.529
REMARK  Name = 
REMARK  7 active torsions:
REMARK  status: ('A' for Active; 'I' for Inactive)
REMARK    1  A    between atoms: C_1  and  C_2
REMARK    2  A    between atoms: C_6  and  N_7
REMARK    3  A    between atoms: C_12  and  C_13
REMARK    4  A    between atoms: C_13  and  C_14
REMARK    5  A    between atoms: C_17  and  C_18
REMARK    6  A    between atoms: C_18  and  O_19
REMARK    7  A    between atoms: C_21  and  C_22
REMARK                            x       y       z     vdW  Elec       q    Type
REMARK                         _______ _______ _______ _____ _____    ______ ____
ROOT
ATOM      1  N   UNL     1       6.408   5.837  15.480  0.00  0.00    +0.000 N 
ATOM      2  C   UNL     1       5.183   6.636  15.681  0.00  0.00    +0.000 C 
ATOM      3  C   UNL     1       4.287   5.668  16.392  0.00  0.00    +0.000 A 
ATOM      4  C   UNL     1       4.657   4.383  15.990  0.00  0.00    +0.000 A 
ATOM      5  C   UNL     1       4.110   3.228  16.532  0.00  0.00    +0.000 A 
ATOM      6  C   UNL     1       3.149   3.364  17.545  0.00  0.00    +0.000 A 
ATOM      7  C   UNL     1       2.830   4.670  18.001  0.00  0.00    +0.000 A 
ATOM      8  C   UNL     1       3.393   5.841  17.439  0.00  0.00    +0.000 A 
ATOM      9  C   UNL     1       5.963   4.497  15.300  0.00  0.00    +0.000 C 
ATOM     10  O   UNL     1       6.588   3.543  14.867  0.00  0.00    +0.000 OA
ENDROOT
BRANCH   1  16
ATOM     11  C   UNL     1       8.494   9.141  18.506  0.00  0.00    +0.000 C 
ATOM     12  C   UNL     1       8.101   7.731  18.175  0.00  0.00    +0.000 A 
ATOM     13  C   UNL     1       8.102   6.750  19.172  0.00  0.00    +0.000 A 
ATOM     14  C   UNL     1       7.849   5.420  18.851  0.00  0.00    +0.000 A 
ATOM     15  C   UNL     1       7.524   5.068  17.550  0.00  0.00    +0.000 A 
ATOM     16  C   UNL     1       7.332   6.062  16.578  0.00  0.00    +0.000 A 
ATOM     17  C   UNL     1       7.721   7.380  16.871  0.00  0.00    +0.000 A 
ENDBRANCH   1  16
BRANCH   8  18
ATOM     18  C   UNL     1       3.116   7.175  18.091  0.00  0.00    +0.000 C 
ATOM     19  F   UNL     1       2.073   7.860  17.547  0.00  0.00    +0.000 F 
ATOM     20  F   UNL     1       2.821   7.052  19.413  0.00  0.00    +0.000 F 
ATOM     21  F   UNL     1       4.185   8.015  18.018  0.00  0.00    +0.000 F 
ENDBRANCH   8  18
BRANCH   6  22
ATOM     22  C   UNL     1       2.647   2.130  18.271  0.00  0.00    +0.000 C 
BRANCH  22  23
ATOM     23  C   UNL     1       1.585   2.380  19.254  0.00  0.00    +0.000 C 
ATOM     24  N   UNL     1       0.314   2.250  19.274  0.00  0.00    +0.000 NA
ATOM     25  N   UNL     1       0.288   2.710  20.641  0.00  0.00    +0.000 NA
ATOM     26  C   UNL     1       1.563   2.804  20.637  0.00  0.00    +0.000 C 
BRANCH  26  27
ATOM     27  C   UNL     1       2.538   3.351  21.578  0.00  0.00    +0.000 C 
BRANCH  27  28
ATOM     28  O   UNL     1       2.456   4.776  21.521  0.00  0.00    +0.000 OA
ATOM     29  H   UNL     1       3.372   5.122  21.499  0.00  0.00    +0.000 HD
ENDBRANCH  27  28
ENDBRANCH  26  27
ENDBRANCH  22  23
ENDBRANCH   6  22
TORSDOF 6
ENDMDL
MODEL 9
REMARK VINA RESULT:      -7.0      2.967      6.373
REMARK  Name = 
REMARK  7 active torsions:
REMARK  status: ('A' for Active; 'I' for Inactive)
REMARK    1  A    between atoms: C_1  and  C_2
REMARK    2  A    between atoms: C_6  and  N_7
REMARK    3  A    between atoms: C_12  and  C_13
REMARK    4  A    between atoms: C_13  and  C_14
REMARK    5  A    between atoms: C_17  and  C_18
REMARK    6  A    between atoms: C_18  and  O_19
REMARK    7  A    between atoms: C_21  and  C_22
REMARK                            x       y       z     vdW  Elec       q    Type
REMARK                         _______ _______ _______ _____ _____    ______ ____
ROOT
ATOM      1  N   UNL     1       3.888   4.245  18.478  0.00  0.00    +0.000 N 
ATOM      2  C   UNL     1       5.289   4.603  18.776  0.00  0.00    +0.000 C 
ATOM      3  C   UNL     1       5.883   4.724  17.405  0.00  0.00    +0.000 A 
ATOM      4  C   UNL     1       5.166   3.872  16.562  0.00  0.00    +0.000 A 
ATOM      5  C   UNL     1       5.372   3.807  15.191  0.00  0.00    +0.000 A 
ATOM      6  C   UNL     1       6.338   4.653  14.626  0.00  0.00    +0.000 A 
ATOM      7  C   UNL     1       7.012   5.569  15.477  0.00  0.00    +0.000 A 
ATOM      8  C   UNL     1       6.796   5.624  16.875  0.00  0.00    +0.000 A 
ATOM      9  C   UNL     1       3.940   3.465  17.288  0.00  0.00    +0.000 C 
ATOM     10  O   UNL     1       3.071   2.757  16.808  0.00  0.00    +0.000 OA
ENDROOT
BRANCH   1  16
ATOM     11  C   UNL     1       1.375   7.646  21.034  0.00  0.00    +0.000 C 
ATOM     12  C   UNL     1       2.082   7.200  19.788  0.00  0.00    +0.000 A 
ATOM     13  C   UNL     1       2.452   8.137  18.818  0.00  0.00    +0.000 A 
ATOM     14  C   UNL     1       3.005   7.721  17.611  0.00  0.00    +0.000 A 
ATOM     15  C   UNL     1       3.258   6.375  17.390  0.00  0.00    +0.000 A 
ATOM     16  C   UNL     1       3.071   5.444  18.423  0.00  0.00    +0.000 A 
ATOM     17  C   UNL     1       2.387   5.846  19.582  0.00  0.00    +0.000 A 
ENDBRANCH   1  16
BRANCH   8  18
ATOM     18  C   UNL     1       7.439   6.734  17.674  0.00  0.00    +0.000 C 
ATOM     19  F   UNL     1       8.248   7.552  16.947  0.00  0.00    +0.000 F 
ATOM     20  F   UNL     1       6.520   7.550  18.255  0.00  0.00    +0.000 F 
ATOM     21  F   UNL     1       8.214   6.255  18.685  0.00  0.00    +0.000 F 
ENDBRANCH   8  18
BRANCH   6  22
ATOM     22  C   UNL     1       6.479   4.727  13.117  0.00  0.00    +0.000 C 
BRANCH  22  23
ATOM     23  C   UNL     1       6.106   3.501  12.402  0.00  0.00    +0.000 C 
ATOM     24  N   UNL     1       6.652   2.363  12.197  0.00  0.00    +0.000 NA
ATOM     25  N   UNL     1       5.485   1.934  11.466  0.00  0.00    +0.000 NA
ATOM     26  C   UNL     1       4.920   3.056  11.702  0.00  0.00    +0.000 C 
BRANCH  26  27
ATOM     27  C   UNL     1       3.686   3.683  11.234  0.00  0.00    +0.000 C 
BRANCH  27  28
ATOM     28  O   UNL     1       3.261   2.996  10.055  0.00  0.00    +0.000 OA
ATOM     29  H   UNL     1       3.805   3.326   9.311  0.00  0.00    +0.000 HD
ENDBRANCH  27  28
ENDBRANCH  26  27
ENDBRANCH  22  23
ENDBRANCH   6  22
TORSDOF 6
ENDMDL
