MODEL 1
REMARK VINA RESULT:      -7.2      0.000      0.000
REMARK  Name = 
REMARK  2 active torsions:
REMARK  status: ('A' for Active; 'I' for Inactive)
REMARK    1  A    between atoms: C_4  and  N_5
REMARK    2  A    between atoms: N_10  and  C_11
REMARK                            x       y       z     vdW  Elec       q    Type
REMARK                         _______ _______ _______ _____ _____    ______ ____
ROOT
ATOM      1  N   UNL     1       2.535   7.242  18.526  0.00  0.00    +0.000 N 
ATOM      2  N   UNL     1       2.732   8.076  17.456  0.00  0.00    +0.000 NA
ATOM      3  N   UNL     1       2.122   9.230  17.698  0.00  0.00    +0.000 NA
ATOM      4  C   UNL     1       1.590   9.167  18.954  0.00  0.00    +0.000 A 
ATOM      5  C   UNL     1       0.866  10.099  19.717  0.00  0.00    +0.000 A 
ATOM      6  N   UNL     1       0.495  11.344  19.217  0.00  0.00    +0.000 N 
ATOM      7  N   UNL     1       0.542   9.750  20.987  0.00  0.00    +0.000 NA
ATOM      8  C   UNL     1       0.887   8.526  21.438  0.00  0.00    +0.000 A 
ATOM      9  N   UNL     1       1.540   7.556  20.778  0.00  0.00    +0.000 NA
ATOM     10  C   UNL     1       1.865   7.939  19.526  0.00  0.00    +0.000 A 
ATOM     11  H   UNL     1       0.956  11.575  18.340  0.00  0.00    +0.000 HD
ENDROOT
BRANCH   6  12
ATOM     12  C   UNL     1       0.257  12.436  20.169  0.00  0.00    +0.000 C 
ATOM     13  C   UNL     1      -0.563  13.547  19.443  0.00  0.00    +0.000 C 
ATOM     14  C   UNL     1       0.294  14.749  19.023  0.00  0.00    +0.000 C 
ATOM     15  C   UNL     1       0.961  15.246  20.246  0.00  0.00    +0.000 A 
ATOM     16  N   UNL     1       0.963  16.425  20.820  0.00  0.00    +0.000 NA
ATOM     17  C   UNL     1       1.548  16.165  22.035  0.00  0.00    +0.000 A 
ATOM     18  N   UNL     1       1.919  14.895  22.236  0.00  0.00    +0.000 NA
ATOM     19  N   UNL     1       1.544  14.340  21.079  0.00  0.00    +0.000 N 
ATOM     20  C   UNL     1       1.590  12.927  20.792  0.00  0.00    +0.000 C 
ENDBRANCH   6  12
BRANCH   1  24
ATOM     21  C   UNL     1       3.750   3.189  18.448  0.00  0.00    +0.000 A 
ATOM     22  C   UNL     1       2.556   3.577  17.841  0.00  0.00    +0.000 A 
ATOM     23  C   UNL     1       2.162   4.918  17.859  0.00  0.00    +0.000 A 
ATOM     24  C   UNL     1       2.967   5.887  18.481  0.00  0.00    +0.000 A 
ATOM     25  C   UNL     1       4.169   5.489  19.083  0.00  0.00    +0.000 A 
ATOM     26  C   UNL     1       4.552   4.144  19.068  0.00  0.00    +0.000 A 
ENDBRANCH   1  24
TORSDOF 2
ENDMDL
MODEL 2
REMARK VINA RESULT:      -7.2      1.481      1.723
REMARK  Name = 
REMARK  2 active torsions:
REMARK  status: ('A' for Active; 'I' for Inactive)
REMARK    1  A    between atoms: C_4  and  N_5
REMARK    2  A    between atoms: N_10  and  C_11
REMARK                            x       y       z     vdW  Elec       q    Type
REMARK                         _______ _______ _______ _____ _____    ______ ____
ROOT
ATOM      1  N   UNL     1       3.021   6.058  18.347  0.00  0.00    +0.000 N 
ATOM      2  N   UNL     1       3.451   6.730  17.232  0.00  0.00    +0.000 NA
ATOM      3  N   UNL     1       2.977   7.970  17.272  0.00  0.00    +0.000 NA
ATOM      4  C   UNL     1       2.300   8.121  18.449  0.00  0.00    +0.000 A 
ATOM      5  C   UNL     1       1.623   9.216  19.012  0.00  0.00    +0.000 A 
ATOM      6  N   UNL     1       1.483  10.429  18.342  0.00  0.00    +0.000 N 
ATOM      7  N   UNL     1       1.111   9.062  20.258  0.00  0.00    +0.000 NA
ATOM      8  C   UNL     1       1.235   7.868  20.873  0.00  0.00    +0.000 A 
ATOM      9  N   UNL     1       1.824   6.754  20.407  0.00  0.00    +0.000 NA
ATOM     10  C   UNL     1       2.339   6.945  19.175  0.00  0.00    +0.000 A 
ATOM     11  H   UNL     1       2.069  10.497  17.513  0.00  0.00    +0.000 HD
ENDROOT
BRANCH   6  12
ATOM     12  C   UNL     1       1.285  11.647  19.138  0.00  0.00    +0.000 C 
ATOM     13  C   UNL     1      -0.244  11.949  19.197  0.00  0.00    +0.000 C 
ATOM     14  C   UNL     1      -0.670  13.081  18.250  0.00  0.00    +0.000 C 
ATOM     15  C   UNL     1       0.154  14.260  18.598  0.00  0.00    +0.000 A 
ATOM     16  N   UNL     1      -0.175  15.477  18.958  0.00  0.00    +0.000 NA
ATOM     17  C   UNL     1       1.023  15.997  19.381  0.00  0.00    +0.000 A 
ATOM     18  N   UNL     1       2.074  15.173  19.289  0.00  0.00    +0.000 NA
ATOM     19  N   UNL     1       1.492  14.084  18.779  0.00  0.00    +0.000 N 
ATOM     20  C   UNL     1       2.148  12.813  18.590  0.00  0.00    +0.000 C 
ENDBRANCH   6  12
BRANCH   1  24
ATOM     21  C   UNL     1       3.675   1.905  18.826  0.00  0.00    +0.000 A 
ATOM     22  C   UNL     1       2.818   2.372  17.831  0.00  0.00    +0.000 A 
ATOM     23  C   UNL     1       2.611   3.745  17.667  0.00  0.00    +0.000 A 
ATOM     24  C   UNL     1       3.270   4.666  18.499  0.00  0.00    +0.000 A 
ATOM     25  C   UNL     1       4.136   4.188  19.492  0.00  0.00    +0.000 A 
ATOM     26  C   UNL     1       4.331   2.812  19.655  0.00  0.00    +0.000 A 
ENDBRANCH   1  24
TORSDOF 2
ENDMDL
MODEL 3
REMARK VINA RESULT:      -7.2      2.426      8.547
REMARK  Name = 
REMARK  2 active torsions:
REMARK  status: ('A' for Active; 'I' for Inactive)
REMARK    1  A    between atoms: C_4  and  N_5
REMARK    2  A    between atoms: N_10  and  C_11
REMARK                            x       y       z     vdW  Elec       q    Type
REMARK                         _______ _______ _______ _____ _____    ______ ____
ROOT
ATOM      1  N   UNL     1       0.623  10.233  21.436  0.00  0.00    +0.000 N 
ATOM      2  N   UNL     1       1.226   9.322  22.264  0.00  0.00    +0.000 NA
ATOM      3  N   UNL     1       1.716   8.334  21.524  0.00  0.00    +0.000 NA
ATOM      4  C   UNL     1       1.492   8.642  20.213  0.00  0.00    +0.000 A 
ATOM      5  C   UNL     1       1.812   7.971  19.020  0.00  0.00    +0.000 A 
ATOM      6  N   UNL     1       2.426   6.721  19.010  0.00  0.00    +0.000 N 
ATOM      7  N   UNL     1       1.513   8.594  17.853  0.00  0.00    +0.000 NA
ATOM      8  C   UNL     1       0.892   9.791  17.890  0.00  0.00    +0.000 A 
ATOM      9  N   UNL     1       0.509  10.491  18.971  0.00  0.00    +0.000 NA
ATOM     10  C   UNL     1       0.837   9.856  20.114  0.00  0.00    +0.000 A 
ATOM     11  H   UNL     1       2.780   6.444  19.922  0.00  0.00    +0.000 HD
ENDROOT
BRANCH   6  12
ATOM     12  C   UNL     1       3.211   6.339  17.829  0.00  0.00    +0.000 C 
ATOM     13  C   UNL     1       3.160   4.786  17.691  0.00  0.00    +0.000 C 
ATOM     14  C   UNL     1       4.446   4.098  18.169  0.00  0.00    +0.000 C 
ATOM     15  C   UNL     1       5.561   4.698  17.403  0.00  0.00    +0.000 A 
ATOM     16  N   UNL     1       6.476   4.162  16.631  0.00  0.00    +0.000 NA
ATOM     17  C   UNL     1       7.037   5.260  16.027  0.00  0.00    +0.000 A 
ATOM     18  N   UNL     1       6.528   6.443  16.394  0.00  0.00    +0.000 NA
ATOM     19  N   UNL     1       5.602   6.053  17.275  0.00  0.00    +0.000 N 
ATOM     20  C   UNL     1       4.643   6.930  17.901  0.00  0.00    +0.000 C 
ENDBRANCH   6  12
BRANCH   1  24
ATOM     21  C   UNL     1      -1.618  13.473  22.981  0.00  0.00    +0.000 A 
ATOM     22  C   UNL     1      -1.955  12.162  23.316  0.00  0.00    +0.000 A 
ATOM     23  C   UNL     1      -1.207  11.094  22.814  0.00  0.00    +0.000 A 
ATOM     24  C   UNL     1      -0.107  11.331  21.972  0.00  0.00    +0.000 A 
ATOM     25  C   UNL     1       0.229  12.653  21.646  0.00  0.00    +0.000 A 
ATOM     26  C   UNL     1      -0.530  13.716  22.146  0.00  0.00    +0.000 A 
ENDBRANCH   1  24
TORSDOF 2
ENDMDL
MODEL 4
REMARK VINA RESULT:      -7.1      2.478      8.734
REMARK  Name = 
REMARK  2 active torsions:
REMARK  status: ('A' for Active; 'I' for Inactive)
REMARK    1  A    between atoms: C_4  and  N_5
REMARK    2  A    between atoms: N_10  and  C_11
REMARK                            x       y       z     vdW  Elec       q    Type
REMARK                         _______ _______ _______ _____ _____    ______ ____
ROOT
ATOM      1  N   UNL     1       0.021  10.771  22.112  0.00  0.00    +0.000 N 
ATOM      2  N   UNL     1       0.597   9.921  23.020  0.00  0.00    +0.000 NA
ATOM      3  N   UNL     1       1.181   8.927  22.361  0.00  0.00    +0.000 NA
ATOM      4  C   UNL     1       1.045   9.173  21.025  0.00  0.00    +0.000 A 
ATOM      5  C   UNL     1       1.481   8.471  19.889  0.00  0.00    +0.000 A 
ATOM      6  N   UNL     1       2.144   7.249  19.977  0.00  0.00    +0.000 N 
ATOM      7  N   UNL     1       1.247   9.034  18.678  0.00  0.00    +0.000 NA
ATOM      8  C   UNL     1       0.576  10.203  18.618  0.00  0.00    +0.000 A 
ATOM      9  N   UNL     1       0.085  10.928  19.636  0.00  0.00    +0.000 NA
ATOM     10  C   UNL     1       0.351  10.353  20.827  0.00  0.00    +0.000 A 
ATOM     11  H   UNL     1       2.439   7.024  20.924  0.00  0.00    +0.000 HD
ENDROOT
BRANCH   6  12
ATOM     12  C   UNL     1       3.031   6.856  18.875  0.00  0.00    +0.000 C 
ATOM     13  C   UNL     1       2.184   6.080  17.820  0.00  0.00    +0.000 C 
ATOM     14  C   UNL     1       2.389   4.560  17.885  0.00  0.00    +0.000 C 
ATOM     15  C   UNL     1       3.841   4.319  17.733  0.00  0.00    +0.000 A 
ATOM     16  N   UNL     1       4.520   3.599  16.872  0.00  0.00    +0.000 NA
ATOM     17  C   UNL     1       5.814   3.996  17.105  0.00  0.00    +0.000 A 
ATOM     18  N   UNL     1       5.971   4.910  18.072  0.00  0.00    +0.000 NA
ATOM     19  N   UNL     1       4.703   5.085  18.457  0.00  0.00    +0.000 N 
ATOM     20  C   UNL     1       4.263   6.078  19.406  0.00  0.00    +0.000 C 
ENDBRANCH   6  12
BRANCH   1  24
ATOM     21  C   UNL     1      -2.454  13.977  23.338  0.00  0.00    +0.000 A 
ATOM     22  C   UNL     1      -2.857  12.659  23.545  0.00  0.00    +0.000 A 
ATOM     23  C   UNL     1      -2.033  11.601  23.149  0.00  0.00    +0.000 A 
ATOM     24  C   UNL     1      -0.790  11.857  22.546  0.00  0.00    +0.000 A 
ATOM     25  C   UNL     1      -0.390  13.186  22.348  0.00  0.00    +0.000 A 
ATOM     26  C   UNL     1      -1.224  14.238  22.739  0.00  0.00    +0.000 A 
ENDBRANCH   1  24
TORSDOF 2
ENDMDL
MODEL 5
REMARK VINA RESULT:      -7.1      2.364      3.392
REMARK  Name = 
REMARK  2 active torsions:
REMARK  status: ('A' for Active; 'I' for Inactive)
REMARK    1  A    between atoms: C_4  and  N_5
REMARK    2  A    between atoms: N_10  and  C_11
REMARK                            x       y       z     vdW  Elec       q    Type
REMARK                         _______ _______ _______ _____ _____    ______ ____
ROOT
ATOM      1  N   UNL     1       2.306   6.822  19.119  0.00  0.00    +0.000 N 
ATOM      2  N   UNL     1       1.825   6.532  20.370  0.00  0.00    +0.000 NA
ATOM      3  N   UNL     1       1.346   7.646  20.910  0.00  0.00    +0.000 NA
ATOM      4  C   UNL     1       1.453   8.641  19.982  0.00  0.00    +0.000 A 
ATOM      5  C   UNL     1       1.088   9.998  20.010  0.00  0.00    +0.000 A 
ATOM      6  N   UNL     1       0.557  10.603  21.147  0.00  0.00    +0.000 N 
ATOM      7  N   UNL     1       1.260  10.716  18.872  0.00  0.00    +0.000 NA
ATOM      8  C   UNL     1       1.804  10.114  17.795  0.00  0.00    +0.000 A 
ATOM      9  N   UNL     1       2.219   8.842  17.680  0.00  0.00    +0.000 NA
ATOM     10  C   UNL     1       2.019   8.150  18.820  0.00  0.00    +0.000 A 
ATOM     11  H   UNL     1       0.290   9.936  21.866  0.00  0.00    +0.000 HD
ENDROOT
BRANCH   6  12
ATOM     12  C   UNL     1      -0.287  11.792  20.974  0.00  0.00    +0.000 C 
ATOM     13  C   UNL     1      -0.467  12.470  22.367  0.00  0.00    +0.000 C 
ATOM     14  C   UNL     1      -1.836  12.186  23.001  0.00  0.00    +0.000 C 
ATOM     15  C   UNL     1      -2.857  12.623  22.024  0.00  0.00    +0.000 A 
ATOM     16  N   UNL     1      -3.849  13.475  22.121  0.00  0.00    +0.000 NA
ATOM     17  C   UNL     1      -4.248  13.620  20.815  0.00  0.00    +0.000 A 
ATOM     18  N   UNL     1      -3.567  12.893  19.921  0.00  0.00    +0.000 NA
ATOM     19  N   UNL     1      -2.700  12.263  20.720  0.00  0.00    +0.000 N 
ATOM     20  C   UNL     1      -1.616  11.430  20.261  0.00  0.00    +0.000 C 
ENDBRANCH   6  12
BRANCH   1  24
ATOM     21  C   UNL     1       4.362   3.838  16.933  0.00  0.00    +0.000 A 
ATOM     22  C   UNL     1       2.998   3.707  17.192  0.00  0.00    +0.000 A 
ATOM     23  C   UNL     1       2.319   4.699  17.905  0.00  0.00    +0.000 A 
ATOM     24  C   UNL     1       3.001   5.839  18.361  0.00  0.00    +0.000 A 
ATOM     25  C   UNL     1       4.371   5.966  18.091  0.00  0.00    +0.000 A 
ATOM     26  C   UNL     1       5.045   4.965  17.384  0.00  0.00    +0.000 A 
ENDBRANCH   1  24
TORSDOF 2
ENDMDL
MODEL 6
REMARK VINA RESULT:      -7.1      2.545      8.802
REMARK  Name = 
REMARK  2 active torsions:
REMARK  status: ('A' for Active; 'I' for Inactive)
REMARK    1  A    between atoms: C_4  and  N_5
REMARK    2  A    between atoms: N_10  and  C_11
REMARK                            x       y       z     vdW  Elec       q    Type
REMARK                         _______ _______ _______ _____ _____    ______ ____
ROOT
ATOM      1  N   UNL     1      -0.275  10.868  22.321  0.00  0.00    +0.000 N 
ATOM      2  N   UNL     1       0.202   9.975  23.246  0.00  0.00    +0.000 NA
ATOM      3  N   UNL     1       0.800   8.978  22.605  0.00  0.00    +0.000 NA
ATOM      4  C   UNL     1       0.773   9.262  21.270  0.00  0.00    +0.000 A 
ATOM      5  C   UNL     1       1.270   8.572  20.151  0.00  0.00    +0.000 A 
ATOM      6  N   UNL     1       1.883   7.326  20.255  0.00  0.00    +0.000 N 
ATOM      7  N   UNL     1       1.146   9.173  18.941  0.00  0.00    +0.000 NA
ATOM      8  C   UNL     1       0.523  10.366  18.863  0.00  0.00    +0.000 A 
ATOM      9  N   UNL     1      -0.019  11.083  19.862  0.00  0.00    +0.000 NA
ATOM     10  C   UNL     1       0.136  10.470  21.053  0.00  0.00    +0.000 A 
ATOM     11  H   UNL     1       2.098   7.067  21.214  0.00  0.00    +0.000 HD
ENDROOT
BRANCH   6  12
ATOM     12  C   UNL     1       2.836   6.928  19.212  0.00  0.00    +0.000 C 
ATOM     13  C   UNL     1       2.027   6.451  17.966  0.00  0.00    +0.000 C 
ATOM     14  C   UNL     1       1.982   4.923  17.829  0.00  0.00    +0.000 C 
ATOM     15  C   UNL     1       3.385   4.455  17.804  0.00  0.00    +0.000 A 
ATOM     16  N   UNL     1       4.052   3.745  16.927  0.00  0.00    +0.000 NA
ATOM     17  C   UNL     1       5.349   3.878  17.358  0.00  0.00    +0.000 A 
ATOM     18  N   UNL     1       5.517   4.620  18.460  0.00  0.00    +0.000 NA
ATOM     19  N   UNL     1       4.252   4.962  18.724  0.00  0.00    +0.000 N 
ATOM     20  C   UNL     1       3.850   5.887  19.755  0.00  0.00    +0.000 C 
ENDBRANCH   6  12
BRANCH   1  24
ATOM     21  C   UNL     1      -2.610  14.163  23.584  0.00  0.00    +0.000 A 
ATOM     22  C   UNL     1      -1.330  14.364  23.071  0.00  0.00    +0.000 A 
ATOM     23  C   UNL     1      -0.564  13.276  22.644  0.00  0.00    +0.000 A 
ATOM     24  C   UNL     1      -1.079  11.971  22.722  0.00  0.00    +0.000 A 
ATOM     25  C   UNL     1      -2.371  11.779  23.233  0.00  0.00    +0.000 A 
ATOM     26  C   UNL     1      -3.127  12.872  23.666  0.00  0.00    +0.000 A 
ENDBRANCH   1  24
TORSDOF 2
ENDMDL
MODEL 7
REMARK VINA RESULT:      -7.1      2.381      8.534
REMARK  Name = 
REMARK  2 active torsions:
REMARK  status: ('A' for Active; 'I' for Inactive)
REMARK    1  A    between atoms: C_4  and  N_5
REMARK    2  A    between atoms: N_10  and  C_11
REMARK                            x       y       z     vdW  Elec       q    Type
REMARK                         _______ _______ _______ _____ _____    ______ ____
ROOT
ATOM      1  N   UNL     1       0.658  10.132  21.346  0.00  0.00    +0.000 N 
ATOM      2  N   UNL     1       1.141   9.181  22.208  0.00  0.00    +0.000 NA
ATOM      3  N   UNL     1       1.622   8.168  21.497  0.00  0.00    +0.000 NA
ATOM      4  C   UNL     1       1.516   8.495  20.176  0.00  0.00    +0.000 A 
ATOM      5  C   UNL     1       1.882   7.811  19.004  0.00  0.00    +0.000 A 
ATOM      6  N   UNL     1       2.416   6.525  19.028  0.00  0.00    +0.000 N 
ATOM      7  N   UNL     1       1.710   8.457  17.824  0.00  0.00    +0.000 NA
ATOM      8  C   UNL     1       1.163   9.689  17.826  0.00  0.00    +0.000 A 
ATOM      9  N   UNL     1       0.745  10.408  18.881  0.00  0.00    +0.000 NA
ATOM     10  C   UNL     1       0.947   9.748  20.040  0.00  0.00    +0.000 A 
ATOM     11  H   UNL     1       2.684   6.223  19.961  0.00  0.00    +0.000 HD
ENDROOT
BRANCH   6  12
ATOM     12  C   UNL     1       3.261   6.100  17.906  0.00  0.00    +0.000 C 
ATOM     13  C   UNL     1       3.478   4.559  18.014  0.00  0.00    +0.000 C 
ATOM     14  C   UNL     1       4.860   4.184  18.566  0.00  0.00    +0.000 C 
ATOM     15  C   UNL     1       5.860   4.835  17.691  0.00  0.00    +0.000 A 
ATOM     16  N   UNL     1       6.857   4.348  16.993  0.00  0.00    +0.000 NA
ATOM     17  C   UNL     1       7.226   5.415  16.213  0.00  0.00    +0.000 A 
ATOM     18  N   UNL     1       6.521   6.538  16.401  0.00  0.00    +0.000 NA
ATOM     19  N   UNL     1       5.670   6.140  17.352  0.00  0.00    +0.000 N 
ATOM     20  C   UNL     1       4.571   6.929  17.853  0.00  0.00    +0.000 C 
ENDBRANCH   6  12
BRANCH   1  24
ATOM     21  C   UNL     1      -1.343  13.542  22.853  0.00  0.00    +0.000 A 
ATOM     22  C   UNL     1      -0.262  13.688  21.985  0.00  0.00    +0.000 A 
ATOM     23  C   UNL     1       0.391  12.560  21.479  0.00  0.00    +0.000 A 
ATOM     24  C   UNL     1      -0.040  11.271  21.836  0.00  0.00    +0.000 A 
ATOM     25  C   UNL     1      -1.132  11.134  22.705  0.00  0.00    +0.000 A 
ATOM     26  C   UNL     1      -1.774  12.268  23.213  0.00  0.00    +0.000 A 
ENDBRANCH   1  24
TORSDOF 2
ENDMDL
MODEL 8
REMARK VINA RESULT:      -7.1      1.146      1.454
REMARK  Name = 
REMARK  2 active torsions:
REMARK  status: ('A' for Active; 'I' for Inactive)
REMARK    1  A    between atoms: C_4  and  N_5
REMARK    2  A    between atoms: N_10  and  C_11
REMARK                            x       y       z     vdW  Elec       q    Type
REMARK                         _______ _______ _______ _____ _____    ______ ____
ROOT
ATOM      1  N   UNL     1       2.445   7.593  18.287  0.00  0.00    +0.000 N 
ATOM      2  N   UNL     1       2.473   8.610  17.369  0.00  0.00    +0.000 NA
ATOM      3  N   UNL     1       1.831   9.657  17.873  0.00  0.00    +0.000 NA
ATOM      4  C   UNL     1       1.449   9.341  19.146  0.00  0.00    +0.000 A 
ATOM      5  C   UNL     1       0.766  10.072  20.133  0.00  0.00    +0.000 A 
ATOM      6  N   UNL     1       0.271  11.353  19.903  0.00  0.00    +0.000 N 
ATOM      7  N   UNL     1       0.608   9.487  21.346  0.00  0.00    +0.000 NA
ATOM      8  C   UNL     1       1.070   8.234  21.534  0.00  0.00    +0.000 A 
ATOM      9  N   UNL     1       1.697   7.442  20.649  0.00  0.00    +0.000 NA
ATOM     10  C   UNL     1       1.855   8.057  19.459  0.00  0.00    +0.000 A 
ATOM     11  H   UNL     1       0.616  11.764  19.039  0.00  0.00    +0.000 HD
ENDROOT
BRANCH   6  12
ATOM     12  C   UNL     1       0.083  12.245  21.053  0.00  0.00    +0.000 C 
ATOM     13  C   UNL     1      -1.387  12.767  21.032  0.00  0.00    +0.000 C 
ATOM     14  C   UNL     1      -1.505  14.207  20.512  0.00  0.00    +0.000 C 
ATOM     15  C   UNL     1      -0.621  15.040  21.357  0.00  0.00    +0.000 A 
ATOM     16  N   UNL     1      -0.862  16.101  22.089  0.00  0.00    +0.000 NA
ATOM     17  C   UNL     1       0.297  16.234  22.813  0.00  0.00    +0.000 A 
ATOM     18  N   UNL     1       1.244  15.322  22.558  0.00  0.00    +0.000 NA
ATOM     19  N   UNL     1       0.634  14.586  21.623  0.00  0.00    +0.000 N 
ATOM     20  C   UNL     1       1.160  13.361  21.071  0.00  0.00    +0.000 C 
ENDBRANCH   6  12
BRANCH   1  24
ATOM     21  C   UNL     1       3.940   3.781  17.221  0.00  0.00    +0.000 A 
ATOM     22  C   UNL     1       4.778   4.895  17.204  0.00  0.00    +0.000 A 
ATOM     23  C   UNL     1       4.285   6.151  17.567  0.00  0.00    +0.000 A 
ATOM     24  C   UNL     1       2.944   6.302  17.958  0.00  0.00    +0.000 A 
ATOM     25  C   UNL     1       2.110   5.175  17.979  0.00  0.00    +0.000 A 
ATOM     26  C   UNL     1       2.609   3.923  17.607  0.00  0.00    +0.000 A 
ENDBRANCH   1  24
TORSDOF 2
ENDMDL
MODEL 9
REMARK VINA RESULT:      -7.0      0.993      1.420
REMARK  Name = 
REMARK  2 active torsions:
REMARK  status: ('A' for Active; 'I' for Inactive)
REMARK    1  A    between atoms: C_4  and  N_5
REMARK    2  A    between atoms: N_10  and  C_11
REMARK                            x       y       z     vdW  Elec       q    Type
REMARK                         _______ _______ _______ _____ _____    ______ ____
ROOT
ATOM      1  N   UNL     1       2.774   6.519  18.469  0.00  0.00    +0.000 N 
ATOM      2  N   UNL     1       3.134   7.255  17.370  0.00  0.00    +0.000 NA
ATOM      3  N   UNL     1       2.646   8.483  17.502  0.00  0.00    +0.000 NA
ATOM      4  C   UNL     1       2.031   8.561  18.718  0.00  0.00    +0.000 A 
ATOM      5  C   UNL     1       1.370   9.614  19.374  0.00  0.00    +0.000 A 
ATOM      6  N   UNL     1       1.177  10.858  18.778  0.00  0.00    +0.000 N 
ATOM      7  N   UNL     1       0.928   9.386  20.635  0.00  0.00    +0.000 NA
ATOM      8  C   UNL     1       1.100   8.164  21.178  0.00  0.00    +0.000 A 
ATOM      9  N   UNL     1       1.679   7.086  20.623  0.00  0.00    +0.000 NA
ATOM     10  C   UNL     1       2.125   7.350  19.378  0.00  0.00    +0.000 A 
ATOM     11  H   UNL     1       1.717  10.979  17.925  0.00  0.00    +0.000 HD
ENDROOT
BRANCH   6  12
ATOM     12  C   UNL     1       1.006  12.029  19.647  0.00  0.00    +0.000 C 
ATOM     13  C   UNL     1      -0.413  12.624  19.391  0.00  0.00    +0.000 C 
ATOM     14  C   UNL     1      -0.386  13.884  18.514  0.00  0.00    +0.000 C 
ATOM     15  C   UNL     1       0.519  14.847  19.179  0.00  0.00    +0.000 A 
ATOM     16  N   UNL     1       0.331  16.076  19.596  0.00  0.00    +0.000 NA
ATOM     17  C   UNL     1       1.459  16.314  20.342  0.00  0.00    +0.000 A 
ATOM     18  N   UNL     1       2.339  15.306  20.395  0.00  0.00    +0.000 NA
ATOM     19  N   UNL     1       1.719  14.395  19.638  0.00  0.00    +0.000 N 
ATOM     20  C   UNL     1       2.168  13.037  19.455  0.00  0.00    +0.000 C 
ENDBRANCH   6  12
BRANCH   1  24
ATOM     21  C   UNL     1       3.675   2.387  18.617  0.00  0.00    +0.000 A 
ATOM     22  C   UNL     1       4.404   3.294  19.385  0.00  0.00    +0.000 A 
ATOM     23  C   UNL     1       4.098   4.657  19.343  0.00  0.00    +0.000 A 
ATOM     24  C   UNL     1       3.050   5.125  18.533  0.00  0.00    +0.000 A 
ATOM     25  C   UNL     1       2.317   4.205  17.770  0.00  0.00    +0.000 A 
ATOM     26  C   UNL     1       2.635   2.844  17.811  0.00  0.00    +0.000 A 
ENDBRANCH   1  24
TORSDOF 2
ENDMDL
