MODEL 1
REMARK VINA RESULT:      -7.9      0.000      0.000
REMARK  Name = 
REMARK  5 active torsions:
REMARK  status: ('A' for Active; 'I' for Inactive)
REMARK    1  A    between atoms: C_1  and  C_2
REMARK    2  A    between atoms: C_2  and  C_3
REMARK    3  A    between atoms: N_13  and  C_14
REMARK    4  A    between atoms: C_14  and  C_15
REMARK    5  A    between atoms: N_23  and  C_24
REMARK                            x       y       z     vdW  Elec       q    Type
REMARK                         _______ _______ _______ _____ _____    ______ ____
ROOT
ATOM      1  C   UNL     1       1.469  12.073  19.606  0.00  0.00    +0.000 C 
ATOM      2  C   UNL     1       0.847  10.693  19.438  0.00  0.00    +0.000 C 
ATOM      3  N   UNL     1       0.988   9.901  20.640  0.00  0.00    +0.000 N 
ATOM      4  C   UNL     1       1.263   8.582  20.335  0.00  0.00    +0.000 C 
ATOM      5  O   UNL     1       1.051   7.668  21.110  0.00  0.00    +0.000 OA
ATOM      6  N   UNL     1       1.695   8.523  19.044  0.00  0.00    +0.000 N 
ATOM      7  C   UNL     1       1.646   9.771  18.485  0.00  0.00    +0.000 C 
ATOM      8  O   UNL     1       2.039  10.062  17.362  0.00  0.00    +0.000 OA
ATOM      9  H   UNL     1       0.511  10.103  21.510  0.00  0.00    +0.000 HD
ENDROOT
BRANCH   2  10
ATOM     10  C   UNL     1      -0.603  10.751  18.924  0.00  0.00    +0.000 A 
ATOM     11  C   UNL     1      -1.508  11.667  19.501  0.00  0.00    +0.000 A 
ATOM     12  C   UNL     1      -2.800  11.822  18.996  0.00  0.00    +0.000 A 
ATOM     13  C   UNL     1      -3.205  11.063  17.908  0.00  0.00    +0.000 A 
ATOM     14  F   UNL     1      -4.439  11.221  17.413  0.00  0.00    +0.000 F 
ATOM     15  C   UNL     1      -2.342  10.149  17.320  0.00  0.00    +0.000 A 
ATOM     16  C   UNL     1      -1.048   9.991  17.824  0.00  0.00    +0.000 A 
ENDBRANCH   2  10
BRANCH   6  17
ATOM     17  C   UNL     1       1.746   7.311  18.262  0.00  0.00    +0.000 C 
BRANCH  17  18
ATOM     18  C   UNL     1       3.134   6.798  18.085  0.00  0.00    +0.000 A 
ATOM     19  N   UNL     1       4.062   7.409  17.372  0.00  0.00    +0.000 NA
ATOM     20  C   UNL     1       5.239   6.771  17.649  0.00  0.00    +0.000 A 
ATOM     21  C   UNL     1       6.533   7.067  17.195  0.00  0.00    +0.000 A 
ATOM     22  C   UNL     1       7.601   6.285  17.646  0.00  0.00    +0.000 A 
ATOM     23  C   UNL     1       7.382   5.230  18.531  0.00  0.00    +0.000 A 
ATOM     24  C   UNL     1       6.096   4.918  18.991  0.00  0.00    +0.000 A 
ATOM     25  C   UNL     1       5.036   5.709  18.525  0.00  0.00    +0.000 A 
ATOM     26  N   UNL     1       3.677   5.714  18.754  0.00  0.00    +0.000 N 
BRANCH  26  27
ATOM     27  C   UNL     1       2.929   4.777  19.578  0.00  0.00    +0.000 C 
ATOM     28  F   UNL     1       2.584   5.294  20.787  0.00  0.00    +0.000 F 
ATOM     29  F   UNL     1       1.767   4.425  18.971  0.00  0.00    +0.000 F 
ENDBRANCH  26  27
ENDBRANCH  17  18
ENDBRANCH   6  17
TORSDOF 4
ENDMDL
MODEL 2
REMARK VINA RESULT:      -7.9      4.046      5.570
REMARK  Name = 
REMARK  5 active torsions:
REMARK  status: ('A' for Active; 'I' for Inactive)
REMARK    1  A    between atoms: C_1  and  C_2
REMARK    2  A    between atoms: C_2  and  C_3
REMARK    3  A    between atoms: N_13  and  C_14
REMARK    4  A    between atoms: C_14  and  C_15
REMARK    5  A    between atoms: N_23  and  C_24
REMARK                            x       y       z     vdW  Elec       q    Type
REMARK                         _______ _______ _______ _____ _____    ______ ____
ROOT
ATOM      1  C   UNL     1       1.085   3.418  20.720  0.00  0.00    +0.000 C 
ATOM      2  C   UNL     1       1.897   3.907  19.529  0.00  0.00    +0.000 C 
ATOM      3  N   UNL     1       1.410   3.337  18.291  0.00  0.00    +0.000 N 
ATOM      4  C   UNL     1       2.458   3.020  17.447  0.00  0.00    +0.000 C 
ATOM      5  O   UNL     1       2.320   2.896  16.244  0.00  0.00    +0.000 OA
ATOM      6  N   UNL     1       3.603   2.977  18.184  0.00  0.00    +0.000 N 
ATOM      7  C   UNL     1       3.329   3.323  19.479  0.00  0.00    +0.000 C 
ATOM      8  O   UNL     1       4.133   3.307  20.404  0.00  0.00    +0.000 OA
ATOM      9  H   UNL     1       0.513   3.560  17.879  0.00  0.00    +0.000 HD
ENDROOT
BRANCH   2  10
ATOM     10  C   UNL     1       2.016   5.441  19.477  0.00  0.00    +0.000 A 
ATOM     11  C   UNL     1       2.331   6.072  18.255  0.00  0.00    +0.000 A 
ATOM     12  C   UNL     1       2.347   7.464  18.143  0.00  0.00    +0.000 A 
ATOM     13  C   UNL     1       2.052   8.242  19.252  0.00  0.00    +0.000 A 
ATOM     14  F   UNL     1       2.053   9.576  19.143  0.00  0.00    +0.000 F 
ATOM     15  C   UNL     1       1.745   7.654  20.471  0.00  0.00    +0.000 A 
ATOM     16  C   UNL     1       1.727   6.262  20.586  0.00  0.00    +0.000 A 
ENDBRANCH   2  10
BRANCH   6  17
ATOM     17  C   UNL     1       4.930   3.022  17.621  0.00  0.00    +0.000 C 
BRANCH  17  18
ATOM     18  C   UNL     1       5.620   4.319  17.873  0.00  0.00    +0.000 A 
ATOM     19  N   UNL     1       6.430   4.539  18.893  0.00  0.00    +0.000 NA
ATOM     20  C   UNL     1       7.041   5.736  18.644  0.00  0.00    +0.000 A 
ATOM     21  C   UNL     1       8.031   6.394  19.389  0.00  0.00    +0.000 A 
ATOM     22  C   UNL     1       8.536   7.609  18.914  0.00  0.00    +0.000 A 
ATOM     23  C   UNL     1       8.062   8.155  17.722  0.00  0.00    +0.000 A 
ATOM     24  C   UNL     1       7.071   7.513  16.968  0.00  0.00    +0.000 A 
ATOM     25  C   UNL     1       6.573   6.299  17.461  0.00  0.00    +0.000 A 
ATOM     26  N   UNL     1       5.631   5.399  17.008  0.00  0.00    +0.000 N 
BRANCH  26  27
ATOM     27  C   UNL     1       4.807   5.528  15.816  0.00  0.00    +0.000 C 
ATOM     28  F   UNL     1       4.629   6.820  15.432  0.00  0.00    +0.000 F 
ATOM     29  F   UNL     1       5.385   4.896  14.763  0.00  0.00    +0.000 F 
ENDBRANCH  26  27
ENDBRANCH  17  18
ENDBRANCH   6  17
TORSDOF 4
ENDMDL
MODEL 3
REMARK VINA RESULT:      -7.9      2.574      4.406
REMARK  Name = 
REMARK  5 active torsions:
REMARK  status: ('A' for Active; 'I' for Inactive)
REMARK    1  A    between atoms: C_1  and  C_2
REMARK    2  A    between atoms: C_2  and  C_3
REMARK    3  A    between atoms: N_13  and  C_14
REMARK    4  A    between atoms: C_14  and  C_15
REMARK    5  A    between atoms: N_23  and  C_24
REMARK                            x       y       z     vdW  Elec       q    Type
REMARK                         _______ _______ _______ _____ _____    ______ ____
ROOT
ATOM      1  C   UNL     1      -1.423  10.739  19.010  0.00  0.00    +0.000 C 
ATOM      2  C   UNL     1       0.080  10.501  19.065  0.00  0.00    +0.000 C 
ATOM      3  N   UNL     1       0.579   9.995  17.805  0.00  0.00    +0.000 N 
ATOM      4  C   UNL     1       1.550   9.034  18.007  0.00  0.00    +0.000 C 
ATOM      5  O   UNL     1       2.374   8.741  17.160  0.00  0.00    +0.000 OA
ATOM      6  N   UNL     1       1.454   8.592  19.292  0.00  0.00    +0.000 N 
ATOM      7  C   UNL     1       0.479   9.294  19.948  0.00  0.00    +0.000 C 
ATOM      8  O   UNL     1       0.101   9.083  21.094  0.00  0.00    +0.000 OA
ATOM      9  H   UNL     1       0.610  10.536  16.950  0.00  0.00    +0.000 HD
ENDROOT
BRANCH   2  10
ATOM     10  C   UNL     1       0.861  11.728  19.570  0.00  0.00    +0.000 A 
ATOM     11  C   UNL     1       1.871  12.290  18.761  0.00  0.00    +0.000 A 
ATOM     12  C   UNL     1       2.530  13.461  19.138  0.00  0.00    +0.000 A 
ATOM     13  C   UNL     1       2.190  14.085  20.329  0.00  0.00    +0.000 A 
ATOM     14  F   UNL     1       2.811  15.217  20.684  0.00  0.00    +0.000 F 
ATOM     15  C   UNL     1       1.205  13.556  21.151  0.00  0.00    +0.000 A 
ATOM     16  C   UNL     1       0.544  12.384  20.777  0.00  0.00    +0.000 A 
ENDBRANCH   2  10
BRANCH   6  17
ATOM     17  C   UNL     1       2.491   7.860  19.977  0.00  0.00    +0.000 C 
BRANCH  17  18
ATOM     18  C   UNL     1       2.432   6.394  19.713  0.00  0.00    +0.000 A 
ATOM     19  N   UNL     1       1.512   5.590  20.212  0.00  0.00    +0.000 NA
ATOM     20  C   UNL     1       1.648   4.398  19.557  0.00  0.00    +0.000 A 
ATOM     21  C   UNL     1       0.878   3.232  19.674  0.00  0.00    +0.000 A 
ATOM     22  C   UNL     1       1.189   2.135  18.866  0.00  0.00    +0.000 A 
ATOM     23  C   UNL     1       2.247   2.199  17.959  0.00  0.00    +0.000 A 
ATOM     24  C   UNL     1       3.029   3.355  17.833  0.00  0.00    +0.000 A 
ATOM     25  C   UNL     1       2.706   4.444  18.654  0.00  0.00    +0.000 A 
ATOM     26  N   UNL     1       3.224   5.713  18.803  0.00  0.00    +0.000 N 
BRANCH  26  27
ATOM     27  C   UNL     1       4.376   6.271  18.112  0.00  0.00    +0.000 C 
ATOM     28  F   UNL     1       5.525   5.589  18.365  0.00  0.00    +0.000 F 
ATOM     29  F   UNL     1       4.197   6.226  16.767  0.00  0.00    +0.000 F 
ENDBRANCH  26  27
ENDBRANCH  17  18
ENDBRANCH   6  17
TORSDOF 4
ENDMDL
MODEL 4
REMARK VINA RESULT:      -7.7      0.371      1.102
REMARK  Name = 
REMARK  5 active torsions:
REMARK  status: ('A' for Active; 'I' for Inactive)
REMARK    1  A    between atoms: C_1  and  C_2
REMARK    2  A    between atoms: C_2  and  C_3
REMARK    3  A    between atoms: N_13  and  C_14
REMARK    4  A    between atoms: C_14  and  C_15
REMARK    5  A    between atoms: N_23  and  C_24
REMARK                            x       y       z     vdW  Elec       q    Type
REMARK                         _______ _______ _______ _____ _____    ______ ____
ROOT
ATOM      1  C   UNL     1       1.517  12.151  19.627  0.00  0.00    +0.000 C 
ATOM      2  C   UNL     1       0.867  10.790  19.419  0.00  0.00    +0.000 C 
ATOM      3  N   UNL     1       0.966   9.972  20.608  0.00  0.00    +0.000 N 
ATOM      4  C   UNL     1       1.217   8.653  20.282  0.00  0.00    +0.000 C 
ATOM      5  O   UNL     1       0.969   7.730  21.035  0.00  0.00    +0.000 OA
ATOM      6  N   UNL     1       1.674   8.609  19.000  0.00  0.00    +0.000 N 
ATOM      7  C   UNL     1       1.665   9.868  18.464  0.00  0.00    +0.000 C 
ATOM      8  O   UNL     1       2.087  10.171  17.355  0.00  0.00    +0.000 OA
ATOM      9  H   UNL     1       0.475  10.168  21.472  0.00  0.00    +0.000 HD
ENDROOT
BRANCH   2  10
ATOM     10  C   UNL     1      -0.570  10.891  18.877  0.00  0.00    +0.000 A 
ATOM     11  C   UNL     1      -0.990  10.012  17.855  0.00  0.00    +0.000 A 
ATOM     12  C   UNL     1      -2.313  10.003  17.409  0.00  0.00    +0.000 A 
ATOM     13  C   UNL     1      -3.233  10.872  17.976  0.00  0.00    +0.000 A 
ATOM     14  F   UNL     1      -4.505  10.854  17.560  0.00  0.00    +0.000 F 
ATOM     15  C   UNL     1      -2.852  11.753  18.979  0.00  0.00    +0.000 A 
ATOM     16  C   UNL     1      -1.528  11.765  19.427  0.00  0.00    +0.000 A 
ENDBRANCH   2  10
BRANCH   6  17
ATOM     17  C   UNL     1       1.715   7.412  18.195  0.00  0.00    +0.000 C 
BRANCH  17  18
ATOM     18  C   UNL     1       3.090   6.854  18.060  0.00  0.00    +0.000 A 
ATOM     19  N   UNL     1       4.052   7.422  17.356  0.00  0.00    +0.000 NA
ATOM     20  C   UNL     1       5.202   6.756  17.672  0.00  0.00    +0.000 A 
ATOM     21  C   UNL     1       6.514   7.004  17.242  0.00  0.00    +0.000 A 
ATOM     22  C   UNL     1       7.548   6.201  17.733  0.00  0.00    +0.000 A 
ATOM     23  C   UNL     1       7.279   5.172  18.634  0.00  0.00    +0.000 A 
ATOM     24  C   UNL     1       5.974   4.908  19.071  0.00  0.00    +0.000 A 
ATOM     25  C   UNL     1       4.949   5.720  18.566  0.00  0.00    +0.000 A 
ATOM     26  N   UNL     1       3.585   5.770  18.763  0.00  0.00    +0.000 N 
BRANCH  26  27
ATOM     27  C   UNL     1       2.792   4.873  19.589  0.00  0.00    +0.000 C 
ATOM     28  F   UNL     1       3.259   3.595  19.582  0.00  0.00    +0.000 F 
ATOM     29  F   UNL     1       2.807   5.274  20.886  0.00  0.00    +0.000 F 
ENDBRANCH  26  27
ENDBRANCH  17  18
ENDBRANCH   6  17
TORSDOF 4
ENDMDL
MODEL 5
REMARK VINA RESULT:      -7.5      4.275      5.757
REMARK  Name = 
REMARK  5 active torsions:
REMARK  status: ('A' for Active; 'I' for Inactive)
REMARK    1  A    between atoms: C_1  and  C_2
REMARK    2  A    between atoms: C_2  and  C_3
REMARK    3  A    between atoms: N_13  and  C_14
REMARK    4  A    between atoms: C_14  and  C_15
REMARK    5  A    between atoms: N_23  and  C_24
REMARK                            x       y       z     vdW  Elec       q    Type
REMARK                         _______ _______ _______ _____ _____    ______ ____
ROOT
ATOM      1  C   UNL     1       1.142   3.012  21.073  0.00  0.00    +0.000 C 
ATOM      2  C   UNL     1       1.856   3.435  19.797  0.00  0.00    +0.000 C 
ATOM      3  N   UNL     1       1.337   2.730  18.645  0.00  0.00    +0.000 N 
ATOM      4  C   UNL     1       2.354   2.395  17.771  0.00  0.00    +0.000 C 
ATOM      5  O   UNL     1       2.158   2.155  16.593  0.00  0.00    +0.000 OA
ATOM      6  N   UNL     1       3.538   2.482  18.438  0.00  0.00    +0.000 N 
ATOM      7  C   UNL     1       3.316   2.928  19.712  0.00  0.00    +0.000 C 
ATOM      8  O   UNL     1       4.170   3.041  20.584  0.00  0.00    +0.000 OA
ATOM      9  H   UNL     1       0.407   2.865  18.270  0.00  0.00    +0.000 HD
ENDROOT
BRANCH   2  10
ATOM     10  C   UNL     1       1.880   4.962  19.604  0.00  0.00    +0.000 A 
ATOM     11  C   UNL     1       1.642   5.805  20.710  0.00  0.00    +0.000 A 
ATOM     12  C   UNL     1       1.756   7.192  20.600  0.00  0.00    +0.000 A 
ATOM     13  C   UNL     1       2.108   7.755  19.382  0.00  0.00    +0.000 A 
ATOM     14  F   UNL     1       2.233   9.084  19.279  0.00  0.00    +0.000 F 
ATOM     15  C   UNL     1       2.344   6.955  18.273  0.00  0.00    +0.000 A 
ATOM     16  C   UNL     1       2.231   5.567  18.380  0.00  0.00    +0.000 A 
ENDBRANCH   2  10
BRANCH   6  17
ATOM     17  C   UNL     1       4.827   2.549  17.794  0.00  0.00    +0.000 C 
BRANCH  17  18
ATOM     18  C   UNL     1       5.486   3.876  17.957  0.00  0.00    +0.000 A 
ATOM     19  N   UNL     1       6.233   4.208  18.994  0.00  0.00    +0.000 NA
ATOM     20  C   UNL     1       6.842   5.386  18.665  0.00  0.00    +0.000 A 
ATOM     21  C   UNL     1       7.780   6.130  19.396  0.00  0.00    +0.000 A 
ATOM     22  C   UNL     1       8.296   7.302  18.835  0.00  0.00    +0.000 A 
ATOM     23  C   UNL     1       7.885   7.723  17.570  0.00  0.00    +0.000 A 
ATOM     24  C   UNL     1       6.947   6.994  16.829  0.00  0.00    +0.000 A 
ATOM     25  C   UNL     1       6.436   5.824  17.408  0.00  0.00    +0.000 A 
ATOM     26  N   UNL     1       5.533   4.869  16.993  0.00  0.00    +0.000 N 
BRANCH  26  27
ATOM     27  C   UNL     1       4.777   4.867  15.750  0.00  0.00    +0.000 C 
ATOM     28  F   UNL     1       4.705   6.096  15.173  0.00  0.00    +0.000 F 
ATOM     29  F   UNL     1       5.361   4.052  14.835  0.00  0.00    +0.000 F 
ENDBRANCH  26  27
ENDBRANCH  17  18
ENDBRANCH   6  17
TORSDOF 4
ENDMDL
MODEL 6
REMARK VINA RESULT:      -7.5      1.018      1.239
REMARK  Name = 
REMARK  5 active torsions:
REMARK  status: ('A' for Active; 'I' for Inactive)
REMARK    1  A    between atoms: C_1  and  C_2
REMARK    2  A    between atoms: C_2  and  C_3
REMARK    3  A    between atoms: N_13  and  C_14
REMARK    4  A    between atoms: C_14  and  C_15
REMARK    5  A    between atoms: N_23  and  C_24
REMARK                            x       y       z     vdW  Elec       q    Type
REMARK                         _______ _______ _______ _____ _____    ______ ____
ROOT
ATOM      1  C   UNL     1       1.607  11.983  18.803  0.00  0.00    +0.000 C 
ATOM      2  C   UNL     1       0.943  10.634  19.047  0.00  0.00    +0.000 C 
ATOM      3  N   UNL     1       1.153  10.182  20.405  0.00  0.00    +0.000 N 
ATOM      4  C   UNL     1       1.374   8.818  20.443  0.00  0.00    +0.000 C 
ATOM      5  O   UNL     1       1.199   8.150  21.446  0.00  0.00    +0.000 OA
ATOM      6  N   UNL     1       1.709   8.404  19.189  0.00  0.00    +0.000 N 
ATOM      7  C   UNL     1       1.648   9.462  18.324  0.00  0.00    +0.000 C 
ATOM      8  O   UNL     1       1.964   9.430  17.141  0.00  0.00    +0.000 OA
ATOM      9  H   UNL     1       0.746  10.625  21.219  0.00  0.00    +0.000 HD
ENDROOT
BRANCH   2  10
ATOM     10  C   UNL     1      -0.540  10.615  18.631  0.00  0.00    +0.000 A 
ATOM     11  C   UNL     1      -1.436  11.538  19.212  0.00  0.00    +0.000 A 
ATOM     12  C   UNL     1      -2.763  11.621  18.787  0.00  0.00    +0.000 A 
ATOM     13  C   UNL     1      -3.213  10.783  17.778  0.00  0.00    +0.000 A 
ATOM     14  F   UNL     1      -4.481  10.872  17.360  0.00  0.00    +0.000 F 
ATOM     15  C   UNL     1      -2.359   9.860  17.190  0.00  0.00    +0.000 A 
ATOM     16  C   UNL     1      -1.030   9.774  17.612  0.00  0.00    +0.000 A 
ENDBRANCH   2  10
BRANCH   6  17
ATOM     17  C   UNL     1       1.675   7.028  18.755  0.00  0.00    +0.000 C 
BRANCH  17  18
ATOM     18  C   UNL     1       2.938   6.602  18.089  0.00  0.00    +0.000 A 
ATOM     19  N   UNL     1       3.979   7.394  17.903  0.00  0.00    +0.000 NA
ATOM     20  C   UNL     1       5.004   6.588  17.493  0.00  0.00    +0.000 A 
ATOM     21  C   UNL     1       6.337   6.926  17.218  0.00  0.00    +0.000 A 
ATOM     22  C   UNL     1       7.225   5.913  16.841  0.00  0.00    +0.000 A 
ATOM     23  C   UNL     1       6.791   4.592  16.741  0.00  0.00    +0.000 A 
ATOM     24  C   UNL     1       5.462   4.239  17.008  0.00  0.00    +0.000 A 
ATOM     25  C   UNL     1       4.585   5.266  17.380  0.00  0.00    +0.000 A 
ATOM     26  N   UNL     1       3.249   5.305  17.720  0.00  0.00    +0.000 N 
BRANCH  26  27
ATOM     27  C   UNL     1       2.320   4.185  17.729  0.00  0.00    +0.000 C 
ATOM     28  F   UNL     1       2.476   3.360  16.660  0.00  0.00    +0.000 F 
ATOM     29  F   UNL     1       2.506   3.416  18.832  0.00  0.00    +0.000 F 
ENDBRANCH  26  27
ENDBRANCH  17  18
ENDBRANCH   6  17
TORSDOF 4
ENDMDL
MODEL 7
REMARK VINA RESULT:      -7.4      2.727      7.935
REMARK  Name = 
REMARK  5 active torsions:
REMARK  status: ('A' for Active; 'I' for Inactive)
REMARK    1  A    between atoms: C_1  and  C_2
REMARK    2  A    between atoms: C_2  and  C_3
REMARK    3  A    between atoms: N_13  and  C_14
REMARK    4  A    between atoms: C_14  and  C_15
REMARK    5  A    between atoms: N_23  and  C_24
REMARK                            x       y       z     vdW  Elec       q    Type
REMARK                         _______ _______ _______ _____ _____    ______ ____
ROOT
ATOM      1  C   UNL     1       1.601   3.917  17.200  0.00  0.00    +0.000 C 
ATOM      2  C   UNL     1       2.468   4.625  18.232  0.00  0.00    +0.000 C 
ATOM      3  N   UNL     1       2.099   4.247  19.578  0.00  0.00    +0.000 N 
ATOM      4  C   UNL     1       2.158   5.333  20.431  0.00  0.00    +0.000 C 
ATOM      5  O   UNL     1       2.271   5.219  21.637  0.00  0.00    +0.000 OA
ATOM      6  N   UNL     1       2.161   6.469  19.678  0.00  0.00    +0.000 N 
ATOM      7  C   UNL     1       2.169   6.140  18.350  0.00  0.00    +0.000 C 
ATOM      8  O   UNL     1       2.099   6.935  17.420  0.00  0.00    +0.000 OA
ATOM      9  H   UNL     1       2.243   3.324  19.967  0.00  0.00    +0.000 HD
ENDROOT
BRANCH   2  10
ATOM     10  C   UNL     1       3.974   4.467  17.956  0.00  0.00    +0.000 A 
ATOM     11  C   UNL     1       4.412   4.140  16.654  0.00  0.00    +0.000 A 
ATOM     12  C   UNL     1       5.770   4.089  16.340  0.00  0.00    +0.000 A 
ATOM     13  C   UNL     1       6.711   4.362  17.322  0.00  0.00    +0.000 A 
ATOM     14  F   UNL     1       8.014   4.328  17.018  0.00  0.00    +0.000 F 
ATOM     15  C   UNL     1       6.316   4.681  18.613  0.00  0.00    +0.000 A 
ATOM     16  C   UNL     1       4.956   4.733  18.931  0.00  0.00    +0.000 A 
ENDBRANCH   2  10
BRANCH   6  17
ATOM     17  C   UNL     1       2.558   7.766  20.170  0.00  0.00    +0.000 C 
BRANCH  17  18
ATOM     18  C   UNL     1       1.408   8.569  20.672  0.00  0.00    +0.000 A 
ATOM     19  N   UNL     1       0.969   8.534  21.917  0.00  0.00    +0.000 NA
ATOM     20  C   UNL     1       0.084   9.568  22.040  0.00  0.00    +0.000 A 
ATOM     21  C   UNL     1      -0.617  10.001  23.175  0.00  0.00    +0.000 A 
ATOM     22  C   UNL     1      -1.453  11.116  23.066  0.00  0.00    +0.000 A 
ATOM     23  C   UNL     1      -1.587  11.786  21.850  0.00  0.00    +0.000 A 
ATOM     24  C   UNL     1      -0.898  11.364  20.706  0.00  0.00    +0.000 A 
ATOM     25  C   UNL     1      -0.067  10.241  20.831  0.00  0.00    +0.000 A 
ATOM     26  N   UNL     1       0.752   9.557  19.958  0.00  0.00    +0.000 N 
BRANCH  26  27
ATOM     27  C   UNL     1       0.935   9.831  18.542  0.00  0.00    +0.000 C 
ATOM     28  F   UNL     1      -0.211   9.697  17.824  0.00  0.00    +0.000 F 
ATOM     29  F   UNL     1       1.355  11.108  18.350  0.00  0.00    +0.000 F 
ENDBRANCH  26  27
ENDBRANCH  17  18
ENDBRANCH   6  17
TORSDOF 4
ENDMDL
MODEL 8
REMARK VINA RESULT:      -7.3      2.622      4.053
REMARK  Name = 
REMARK  5 active torsions:
REMARK  status: ('A' for Active; 'I' for Inactive)
REMARK    1  A    between atoms: C_1  and  C_2
REMARK    2  A    between atoms: C_2  and  C_3
REMARK    3  A    between atoms: N_13  and  C_14
REMARK    4  A    between atoms: C_14  and  C_15
REMARK    5  A    between atoms: N_23  and  C_24
REMARK                            x       y       z     vdW  Elec       q    Type
REMARK                         _______ _______ _______ _____ _____    ______ ____
ROOT
ATOM      1  C   UNL     1      -3.230  11.443  17.041  0.00  0.00    +0.000 C 
ATOM      2  C   UNL     1      -2.297  11.811  18.187  0.00  0.00    +0.000 C 
ATOM      3  N   UNL     1      -1.309  12.782  17.770  0.00  0.00    +0.000 N 
ATOM      4  C   UNL     1      -0.079  12.513  18.340  0.00  0.00    +0.000 C 
ATOM      5  O   UNL     1       0.789  13.357  18.463  0.00  0.00    +0.000 OA
ATOM      6  N   UNL     1      -0.087  11.226  18.786  0.00  0.00    +0.000 N 
ATOM      7  C   UNL     1      -1.321  10.673  18.575  0.00  0.00    +0.000 C 
ATOM      8  O   UNL     1      -1.625   9.508  18.798  0.00  0.00    +0.000 OA
ATOM      9  H   UNL     1      -1.525  13.740  17.527  0.00  0.00    +0.000 HD
ENDROOT
BRANCH   2  10
ATOM     10  C   UNL     1      -3.053  12.231  19.460  0.00  0.00    +0.000 A 
ATOM     11  C   UNL     1      -4.462  12.302  19.440  0.00  0.00    +0.000 A 
ATOM     12  C   UNL     1      -5.189  12.578  20.599  0.00  0.00    +0.000 A 
ATOM     13  C   UNL     1      -4.516  12.791  21.794  0.00  0.00    +0.000 A 
ATOM     14  F   UNL     1      -5.212  13.042  22.909  0.00  0.00    +0.000 F 
ATOM     15  C   UNL     1      -3.131  12.735  21.848  0.00  0.00    +0.000 A 
ATOM     16  C   UNL     1      -2.401  12.458  20.689  0.00  0.00    +0.000 A 
ENDBRANCH   2  10
BRANCH   6  17
ATOM     17  C   UNL     1       0.864  10.690  19.730  0.00  0.00    +0.000 C 
BRANCH  17  18
ATOM     18  C   UNL     1       1.434   9.383  19.295  0.00  0.00    +0.000 A 
ATOM     19  N   UNL     1       2.021   9.185  18.129  0.00  0.00    +0.000 NA
ATOM     20  C   UNL     1       2.615   7.956  18.204  0.00  0.00    +0.000 A 
ATOM     21  C   UNL     1       3.413   7.301  17.255  0.00  0.00    +0.000 A 
ATOM     22  C   UNL     1       3.946   6.048  17.572  0.00  0.00    +0.000 A 
ATOM     23  C   UNL     1       3.688   5.460  18.810  0.00  0.00    +0.000 A 
ATOM     24  C   UNL     1       2.890   6.099  19.768  0.00  0.00    +0.000 A 
ATOM     25  C   UNL     1       2.360   7.353  19.432  0.00  0.00    +0.000 A 
ATOM     26  N   UNL     1       1.564   8.262  20.096  0.00  0.00    +0.000 N 
BRANCH  26  27
ATOM     27  C   UNL     1       0.981   8.105  21.420  0.00  0.00    +0.000 C 
ATOM     28  F   UNL     1       1.464   9.000  22.321  0.00  0.00    +0.000 F 
ATOM     29  F   UNL     1      -0.363   8.296  21.378  0.00  0.00    +0.000 F 
ENDBRANCH  26  27
ENDBRANCH  17  18
ENDBRANCH   6  17
TORSDOF 4
ENDMDL
MODEL 9
REMARK VINA RESULT:      -7.3      0.954      1.379
REMARK  Name = 
REMARK  5 active torsions:
REMARK  status: ('A' for Active; 'I' for Inactive)
REMARK    1  A    between atoms: C_1  and  C_2
REMARK    2  A    between atoms: C_2  and  C_3
REMARK    3  A    between atoms: N_13  and  C_14
REMARK    4  A    between atoms: C_14  and  C_15
REMARK    5  A    between atoms: N_23  and  C_24
REMARK                            x       y       z     vdW  Elec       q    Type
REMARK                         _______ _______ _______ _____ _____    ______ ____
ROOT
ATOM      1  C   UNL     1       1.701  12.132  18.825  0.00  0.00    +0.000 C 
ATOM      2  C   UNL     1       0.974  10.814  19.058  0.00  0.00    +0.000 C 
ATOM      3  N   UNL     1       1.150  10.349  20.417  0.00  0.00    +0.000 N 
ATOM      4  C   UNL     1       1.309   8.977  20.453  0.00  0.00    +0.000 C 
ATOM      5  O   UNL     1       1.093   8.315  21.452  0.00  0.00    +0.000 OA
ATOM      6  N   UNL     1       1.638   8.551  19.202  0.00  0.00    +0.000 N 
ATOM      7  C   UNL     1       1.634   9.613  18.339  0.00  0.00    +0.000 C 
ATOM      8  O   UNL     1       1.961   9.570  17.159  0.00  0.00    +0.000 OA
ATOM      9  H   UNL     1       0.754  10.808  21.228  0.00  0.00    +0.000 HD
ENDROOT
BRANCH   2  10
ATOM     10  C   UNL     1      -0.503  10.863  18.626  0.00  0.00    +0.000 A 
ATOM     11  C   UNL     1      -0.981   9.930  17.682  0.00  0.00    +0.000 A 
ATOM     12  C   UNL     1      -2.334   9.875  17.342  0.00  0.00    +0.000 A 
ATOM     13  C   UNL     1      -3.226  10.753  17.939  0.00  0.00    +0.000 A 
ATOM     14  F   UNL     1      -4.526  10.691  17.625  0.00  0.00    +0.000 F 
ATOM     15  C   UNL     1      -2.788  11.687  18.868  0.00  0.00    +0.000 A 
ATOM     16  C   UNL     1      -1.435  11.744  19.210  0.00  0.00    +0.000 A 
ENDBRANCH   2  10
BRANCH   6  17
ATOM     17  C   UNL     1       1.547   7.180  18.764  0.00  0.00    +0.000 C 
BRANCH  17  18
ATOM     18  C   UNL     1       2.798   6.697  18.113  0.00  0.00    +0.000 A 
ATOM     19  N   UNL     1       3.859   7.454  17.899  0.00  0.00    +0.000 NA
ATOM     20  C   UNL     1       4.862   6.609  17.519  0.00  0.00    +0.000 A 
ATOM     21  C   UNL     1       6.204   6.901  17.232  0.00  0.00    +0.000 A 
ATOM     22  C   UNL     1       7.065   5.853  16.892  0.00  0.00    +0.000 A 
ATOM     23  C   UNL     1       6.597   4.541  16.839  0.00  0.00    +0.000 A 
ATOM     24  C   UNL     1       5.259   4.232  17.119  0.00  0.00    +0.000 A 
ATOM     25  C   UNL     1       4.409   5.294  17.453  0.00  0.00    +0.000 A 
ATOM     26  N   UNL     1       3.075   5.380  17.791  0.00  0.00    +0.000 N 
BRANCH  26  27
ATOM     27  C   UNL     1       2.118   4.286  17.840  0.00  0.00    +0.000 C 
ATOM     28  F   UNL     1       1.699   4.006  19.103  0.00  0.00    +0.000 F 
ATOM     29  F   UNL     1       1.002   4.592  17.130  0.00  0.00    +0.000 F 
ENDBRANCH  26  27
ENDBRANCH  17  18
ENDBRANCH   6  17
TORSDOF 4
ENDMDL
