MODEL 1
REMARK VINA RESULT:      -9.4      0.000      0.000
REMARK  Name = 
REMARK  5 active torsions:
REMARK  status: ('A' for Active; 'I' for Inactive)
REMARK    1  A    between atoms: C_1  and  O_2
REMARK    2  A    between atoms: O_2  and  C_3
REMARK    3  A    between atoms: C_6  and  S_7
REMARK    4  A    between atoms: S_7  and  N_10
REMARK    5  A    between atoms: C_18  and  C_19
REMARK                            x       y       z     vdW  Elec       q    Type
REMARK                         _______ _______ _______ _____ _____    ______ ____
ROOT
ATOM      1  C   UNL     1       3.242   4.880  18.857  0.00  0.00    +0.000 A 
ATOM      2  C   UNL     1       4.106   3.794  18.638  0.00  0.00    +0.000 A 
ATOM      3  C   UNL     1       5.273   3.942  17.893  0.00  0.00    +0.000 A 
ATOM      4  C   UNL     1       5.594   5.181  17.343  0.00  0.00    +0.000 A 
ATOM      5  C   UNL     1       4.758   6.290  17.569  0.00  0.00    +0.000 A 
ATOM      6  C   UNL     1       3.562   6.152  18.318  0.00  0.00    +0.000 A 
ENDROOT
BRANCH   6   7
ATOM      7  C   UNL     1       2.707   7.410  18.515  0.00  0.00    +0.000 C 
ATOM      8  O   UNL     1       2.684   8.249  17.625  0.00  0.00    +0.000 OA
ATOM      9  N   UNL     1       2.024   7.467  19.713  0.00  0.00    +0.000 N 
ATOM     10  C   UNL     1       1.250   8.501  20.184  0.00  0.00    +0.000 A 
ATOM     11  N   UNL     1       0.900   9.657  19.661  0.00  0.00    +0.000 NA
ATOM     12  C   UNL     1       0.205  10.329  20.655  0.00  0.00    +0.000 A 
ATOM     13  C   UNL     1      -0.375  11.609  20.675  0.00  0.00    +0.000 A 
ATOM     14  C   UNL     1      -0.964  12.070  21.864  0.00  0.00    +0.000 A 
ATOM     15  C   UNL     1      -0.990  11.274  23.013  0.00  0.00    +0.000 A 
ATOM     16  C   UNL     1      -0.457   9.982  23.001  0.00  0.00    +0.000 A 
ATOM     17  C   UNL     1       0.126   9.553  21.806  0.00  0.00    +0.000 A 
ATOM     18  N   UNL     1       0.723   8.381  21.448  0.00  0.00    +0.000 N 
ATOM     19  H   UNL     1       2.155   6.680  20.334  0.00  0.00    +0.000 HD
ATOM     20  H   UNL     1       0.819   7.570  22.040  0.00  0.00    +0.000 HD
ENDBRANCH   6   7
BRANCH   4  21
ATOM     21  S   UNL     1       7.177   5.352  16.518  0.00  0.00    +0.000 S 
ATOM     22  O   UNL     1       7.496   6.764  16.493  0.00  0.00    +0.000 OA
ATOM     23  O   UNL     1       8.075   4.398  17.137  0.00  0.00    +0.000 OA
BRANCH  21  24
ATOM     24  N   UNL     1       6.873   4.836  14.920  0.00  0.00    +0.000 NA
ATOM     25  C   UNL     1       5.469   4.727  14.480  0.00  0.00    +0.000 C 
ATOM     26  C   UNL     1       5.229   3.436  13.695  0.00  0.00    +0.000 C 
ATOM     27  C   UNL     1       5.594   3.526  12.217  0.00  0.00    +0.000 C 
ATOM     28  C   UNL     1       7.072   3.785  11.960  0.00  0.00    +0.000 C 
ATOM     29  C   UNL     1       7.530   5.147  12.469  0.00  0.00    +0.000 C 
ATOM     30  C   UNL     1       7.931   5.166  13.939  0.00  0.00    +0.000 C 
ENDBRANCH  21  24
ENDBRANCH   4  21
BRANCH   1  32
ATOM     31  C   UNL     1       1.277   3.600  19.378  0.00  0.00    +0.000 C 
ATOM     32  O   UNL     1       2.087   4.753  19.597  0.00  0.00    +0.000 OA
ENDBRANCH   1  32
TORSDOF 4
ENDMDL
MODEL 2
REMARK VINA RESULT:      -8.8      4.329      7.746
REMARK  Name = 
REMARK  5 active torsions:
REMARK  status: ('A' for Active; 'I' for Inactive)
REMARK    1  A    between atoms: C_1  and  O_2
REMARK    2  A    between atoms: O_2  and  C_3
REMARK    3  A    between atoms: C_6  and  S_7
REMARK    4  A    between atoms: S_7  and  N_10
REMARK    5  A    between atoms: C_18  and  C_19
REMARK                            x       y       z     vdW  Elec       q    Type
REMARK                         _______ _______ _______ _____ _____    ______ ____
ROOT
ATOM      1  C   UNL     1       6.448   5.501  16.063  0.00  0.00    +0.000 A 
ATOM      2  C   UNL     1       5.397   4.724  15.547  0.00  0.00    +0.000 A 
ATOM      3  C   UNL     1       4.237   4.500  16.285  0.00  0.00    +0.000 A 
ATOM      4  C   UNL     1       4.111   5.043  17.561  0.00  0.00    +0.000 A 
ATOM      5  C   UNL     1       5.138   5.844  18.091  0.00  0.00    +0.000 A 
ATOM      6  C   UNL     1       6.328   6.074  17.355  0.00  0.00    +0.000 A 
ENDROOT
BRANCH   6   7
ATOM      7  C   UNL     1       7.399   6.957  18.007  0.00  0.00    +0.000 C 
ATOM      8  O   UNL     1       8.114   6.470  18.873  0.00  0.00    +0.000 OA
ATOM      9  N   UNL     1       7.454   8.251  17.531  0.00  0.00    +0.000 N 
ATOM     10  C   UNL     1       8.258   9.273  17.981  0.00  0.00    +0.000 A 
ATOM     11  N   UNL     1       9.193   9.323  18.905  0.00  0.00    +0.000 NA
ATOM     12  C   UNL     1       9.570  10.656  18.990  0.00  0.00    +0.000 A 
ATOM     13  C   UNL     1      10.501  11.303  19.821  0.00  0.00    +0.000 A 
ATOM     14  C   UNL     1      10.628  12.700  19.740  0.00  0.00    +0.000 A 
ATOM     15  C   UNL     1       9.857  13.444  18.844  0.00  0.00    +0.000 A 
ATOM     16  C   UNL     1       8.956  12.816  17.979  0.00  0.00    +0.000 A 
ATOM     17  C   UNL     1       8.848  11.427  18.086  0.00  0.00    +0.000 A 
ATOM     18  N   UNL     1       8.091  10.514  17.414  0.00  0.00    +0.000 N 
ATOM     19  H   UNL     1       6.789   8.484  16.806  0.00  0.00    +0.000 HD
ATOM     20  H   UNL     1       7.459  10.724  16.657  0.00  0.00    +0.000 HD
ENDBRANCH   6   7
BRANCH   4  21
ATOM     21  S   UNL     1       2.542   4.847  18.409  0.00  0.00    +0.000 S 
ATOM     22  O   UNL     1       1.589   4.356  17.436  0.00  0.00    +0.000 OA
ATOM     23  O   UNL     1       2.815   4.105  19.623  0.00  0.00    +0.000 OA
BRANCH  21  24
ATOM     24  N   UNL     1       2.102   6.437  18.846  0.00  0.00    +0.000 NA
ATOM     25  C   UNL     1       2.356   6.872  20.233  0.00  0.00    +0.000 C 
ATOM     26  C   UNL     1       1.161   7.638  20.805  0.00  0.00    +0.000 C 
ATOM     27  C   UNL     1       1.134   9.118  20.438  0.00  0.00    +0.000 C 
ATOM     28  C   UNL     1       0.997   9.382  18.945  0.00  0.00    +0.000 C 
ATOM     29  C   UNL     1       2.200   8.893  18.145  0.00  0.00    +0.000 C 
ATOM     30  C   UNL     1       2.133   7.425  17.745  0.00  0.00    +0.000 C 
ENDBRANCH  21  24
ENDBRANCH   4  21
BRANCH   1  32
ATOM     31  C   UNL     1       7.649   5.283  13.994  0.00  0.00    +0.000 C 
ATOM     32  O   UNL     1       7.599   5.737  15.345  0.00  0.00    +0.000 OA
ENDBRANCH   1  32
TORSDOF 4
ENDMDL
MODEL 3
REMARK VINA RESULT:      -8.7      4.272      7.723
REMARK  Name = 
REMARK  5 active torsions:
REMARK  status: ('A' for Active; 'I' for Inactive)
REMARK    1  A    between atoms: C_1  and  O_2
REMARK    2  A    between atoms: O_2  and  C_3
REMARK    3  A    between atoms: C_6  and  S_7
REMARK    4  A    between atoms: S_7  and  N_10
REMARK    5  A    between atoms: C_18  and  C_19
REMARK                            x       y       z     vdW  Elec       q    Type
REMARK                         _______ _______ _______ _____ _____    ______ ____
ROOT
ATOM      1  C   UNL     1       6.610   5.279  16.169  0.00  0.00    +0.000 A 
ATOM      2  C   UNL     1       5.613   4.408  15.700  0.00  0.00    +0.000 A 
ATOM      3  C   UNL     1       4.548   4.029  16.515  0.00  0.00    +0.000 A 
ATOM      4  C   UNL     1       4.467   4.509  17.820  0.00  0.00    +0.000 A 
ATOM      5  C   UNL     1       5.441   5.401  18.305  0.00  0.00    +0.000 A 
ATOM      6  C   UNL     1       6.535   5.789  17.490  0.00  0.00    +0.000 A 
ENDROOT
BRANCH   6   7
ATOM      7  C   UNL     1       7.552   6.763  18.096  0.00  0.00    +0.000 C 
ATOM      8  O   UNL     1       8.311   6.353  18.964  0.00  0.00    +0.000 OA
ATOM      9  N   UNL     1       7.511   8.042  17.580  0.00  0.00    +0.000 N 
ATOM     10  C   UNL     1       8.249   9.130  17.985  0.00  0.00    +0.000 A 
ATOM     11  N   UNL     1       9.193   9.273  18.891  0.00  0.00    +0.000 NA
ATOM     12  C   UNL     1       9.478  10.630  18.929  0.00  0.00    +0.000 A 
ATOM     13  C   UNL     1      10.376  11.365  19.724  0.00  0.00    +0.000 A 
ATOM     14  C   UNL     1      10.405  12.764  19.599  0.00  0.00    +0.000 A 
ATOM     15  C   UNL     1       9.571  13.426  18.694  0.00  0.00    +0.000 A 
ATOM     16  C   UNL     1       8.703  12.710  17.864  0.00  0.00    +0.000 A 
ATOM     17  C   UNL     1       8.691  11.321  18.015  0.00  0.00    +0.000 A 
ATOM     18  N   UNL     1       7.989  10.338  17.384  0.00  0.00    +0.000 N 
ATOM     19  H   UNL     1       6.820   8.206  16.861  0.00  0.00    +0.000 HD
ATOM     20  H   UNL     1       7.332  10.481  16.632  0.00  0.00    +0.000 HD
ENDBRANCH   6   7
BRANCH   4  21
ATOM     21  S   UNL     1       3.004   4.107  18.776  0.00  0.00    +0.000 S 
ATOM     22  O   UNL     1       2.055   3.496  17.870  0.00  0.00    +0.000 OA
ATOM     23  O   UNL     1       3.459   3.405  19.960  0.00  0.00    +0.000 OA
BRANCH  21  24
ATOM     24  N   UNL     1       2.392   5.625  19.261  0.00  0.00    +0.000 NA
ATOM     25  C   UNL     1       1.924   6.552  18.213  0.00  0.00    +0.000 C 
ATOM     26  C   UNL     1       2.411   7.980  18.473  0.00  0.00    +0.000 C 
ATOM     27  C   UNL     1       1.538   8.771  19.442  0.00  0.00    +0.000 C 
ATOM     28  C   UNL     1       1.490   8.189  20.848  0.00  0.00    +0.000 C 
ATOM     29  C   UNL     1       0.829   6.815  20.896  0.00  0.00    +0.000 C 
ATOM     30  C   UNL     1       1.771   5.655  20.604  0.00  0.00    +0.000 C 
ENDBRANCH  21  24
ENDBRANCH   4  21
BRANCH   1  32
ATOM     31  C   UNL     1       7.653   5.275  14.004  0.00  0.00    +0.000 C 
ATOM     32  O   UNL     1       7.666   5.669  15.375  0.00  0.00    +0.000 OA
ENDBRANCH   1  32
TORSDOF 4
ENDMDL
MODEL 4
REMARK VINA RESULT:      -8.4      1.148      1.678
REMARK  Name = 
REMARK  5 active torsions:
REMARK  status: ('A' for Active; 'I' for Inactive)
REMARK    1  A    between atoms: C_1  and  O_2
REMARK    2  A    between atoms: O_2  and  C_3
REMARK    3  A    between atoms: C_6  and  S_7
REMARK    4  A    between atoms: S_7  and  N_10
REMARK    5  A    between atoms: C_18  and  C_19
REMARK                            x       y       z     vdW  Elec       q    Type
REMARK                         _______ _______ _______ _____ _____    ______ ____
ROOT
ATOM      1  C   UNL     1       3.080   3.413  18.715  0.00  0.00    +0.000 A 
ATOM      2  C   UNL     1       3.816   2.726  17.735  0.00  0.00    +0.000 A 
ATOM      3  C   UNL     1       4.864   3.344  17.057  0.00  0.00    +0.000 A 
ATOM      4  C   UNL     1       5.188   4.669  17.341  0.00  0.00    +0.000 A 
ATOM      5  C   UNL     1       4.482   5.371  18.334  0.00  0.00    +0.000 A 
ATOM      6  C   UNL     1       3.408   4.757  19.027  0.00  0.00    +0.000 A 
ENDROOT
BRANCH   6   7
ATOM      7  C   UNL     1       2.689   5.593  20.093  0.00  0.00    +0.000 C 
ATOM      8  O   UNL     1       2.437   5.075  21.173  0.00  0.00    +0.000 OA
ATOM      9  N   UNL     1       2.395   6.887  19.716  0.00  0.00    +0.000 N 
ATOM     10  C   UNL     1       1.695   7.828  20.435  0.00  0.00    +0.000 A 
ATOM     11  N   UNL     1       1.167   7.809  21.640  0.00  0.00    +0.000 NA
ATOM     12  C   UNL     1       0.484   9.010  21.773  0.00  0.00    +0.000 A 
ATOM     13  C   UNL     1      -0.288   9.522  22.830  0.00  0.00    +0.000 A 
ATOM     14  C   UNL     1      -0.937  10.757  22.660  0.00  0.00    +0.000 A 
ATOM     15  C   UNL     1      -0.813  11.480  21.470  0.00  0.00    +0.000 A 
ATOM     16  C   UNL     1      -0.015  11.008  20.424  0.00  0.00    +0.000 A 
ATOM     17  C   UNL     1       0.613   9.775  20.620  0.00  0.00    +0.000 A 
ATOM     18  N   UNL     1       1.445   9.037  19.832  0.00  0.00    +0.000 N 
ATOM     19  H   UNL     1       2.681   7.151  18.783  0.00  0.00    +0.000 HD
ATOM     20  H   UNL     1       1.778   9.309  18.920  0.00  0.00    +0.000 HD
ENDBRANCH   6   7
BRANCH   4  21
ATOM     21  S   UNL     1       6.635   5.370  16.545  0.00  0.00    +0.000 S 
ATOM     22  O   UNL     1       6.479   6.809  16.566  0.00  0.00    +0.000 OA
ATOM     23  O   UNL     1       7.790   4.739  17.152  0.00  0.00    +0.000 OA
BRANCH  21  24
ATOM     24  N   UNL     1       6.524   4.835  14.928  0.00  0.00    +0.000 NA
ATOM     25  C   UNL     1       5.189   4.786  14.303  0.00  0.00    +0.000 C 
ATOM     26  C   UNL     1       4.991   3.491  13.512  0.00  0.00    +0.000 C 
ATOM     27  C   UNL     1       5.558   3.531  12.096  0.00  0.00    +0.000 C 
ATOM     28  C   UNL     1       7.068   3.711  12.040  0.00  0.00    +0.000 C 
ATOM     29  C   UNL     1       7.523   5.060  12.587  0.00  0.00    +0.000 C 
ATOM     30  C   UNL     1       7.721   5.091  14.096  0.00  0.00    +0.000 C 
ENDBRANCH  21  24
ENDBRANCH   4  21
BRANCH   1  32
ATOM     31  C   UNL     1       0.828   2.575  18.695  0.00  0.00    +0.000 C 
ATOM     32  O   UNL     1       2.045   2.815  19.399  0.00  0.00    +0.000 OA
ENDBRANCH   1  32
TORSDOF 4
ENDMDL
MODEL 5
REMARK VINA RESULT:      -8.4      3.060      5.093
REMARK  Name = 
REMARK  5 active torsions:
REMARK  status: ('A' for Active; 'I' for Inactive)
REMARK    1  A    between atoms: C_1  and  O_2
REMARK    2  A    between atoms: O_2  and  C_3
REMARK    3  A    between atoms: C_6  and  S_7
REMARK    4  A    between atoms: S_7  and  N_10
REMARK    5  A    between atoms: C_18  and  C_19
REMARK                            x       y       z     vdW  Elec       q    Type
REMARK                         _______ _______ _______ _____ _____    ______ ____
ROOT
ATOM      1  C   UNL     1       1.607   9.688  18.752  0.00  0.00    +0.000 A 
ATOM      2  C   UNL     1       2.314   8.990  17.759  0.00  0.00    +0.000 A 
ATOM      3  C   UNL     1       2.681   7.658  17.939  0.00  0.00    +0.000 A 
ATOM      4  C   UNL     1       2.357   7.003  19.124  0.00  0.00    +0.000 A 
ATOM      5  C   UNL     1       1.629   7.673  20.124  0.00  0.00    +0.000 A 
ATOM      6  C   UNL     1       1.255   9.031  19.958  0.00  0.00    +0.000 A 
ENDROOT
BRANCH   6   7
ATOM      7  C   UNL     1       0.465   9.687  21.097  0.00  0.00    +0.000 C 
ATOM      8  O   UNL     1       0.677   9.321  22.245  0.00  0.00    +0.000 OA
ATOM      9  N   UNL     1      -0.430  10.659  20.699  0.00  0.00    +0.000 N 
ATOM     10  C   UNL     1      -1.316  11.353  21.490  0.00  0.00    +0.000 A 
ATOM     11  N   UNL     1      -1.540  11.345  22.786  0.00  0.00    +0.000 NA
ATOM     12  C   UNL     1      -2.637  12.171  22.986  0.00  0.00    +0.000 A 
ATOM     13  C   UNL     1      -3.336  12.514  24.157  0.00  0.00    +0.000 A 
ATOM     14  C   UNL     1      -4.476  13.328  24.053  0.00  0.00    +0.000 A 
ATOM     15  C   UNL     1      -4.912  13.806  22.814  0.00  0.00    +0.000 A 
ATOM     16  C   UNL     1      -4.207  13.512  21.644  0.00  0.00    +0.000 A 
ATOM     17  C   UNL     1      -3.080  12.696  21.777  0.00  0.00    +0.000 A 
ATOM     18  N   UNL     1      -2.179  12.225  20.870  0.00  0.00    +0.000 N 
ATOM     19  H   UNL     1      -0.474  10.839  19.705  0.00  0.00    +0.000 HD
ATOM     20  H   UNL     1      -2.180  12.434  19.884  0.00  0.00    +0.000 HD
ENDBRANCH   6   7
BRANCH   4  21
ATOM     21  S   UNL     1       2.724   5.251  19.246  0.00  0.00    +0.000 S 
ATOM     22  O   UNL     1       2.903   4.948  20.651  0.00  0.00    +0.000 OA
ATOM     23  O   UNL     1       1.724   4.560  18.458  0.00  0.00    +0.000 OA
BRANCH  21  24
ATOM     24  N   UNL     1       4.230   5.084  18.459  0.00  0.00    +0.000 NA
ATOM     25  C   UNL     1       5.407   4.738  19.278  0.00  0.00    +0.000 C 
ATOM     26  C   UNL     1       6.623   5.582  18.891  0.00  0.00    +0.000 C 
ATOM     27  C   UNL     1       7.403   5.043  17.696  0.00  0.00    +0.000 C 
ATOM     28  C   UNL     1       6.608   5.017  16.399  0.00  0.00    +0.000 C 
ATOM     29  C   UNL     1       5.426   4.053  16.450  0.00  0.00    +0.000 C 
ATOM     30  C   UNL     1       4.157   4.647  17.047  0.00  0.00    +0.000 C 
ENDBRANCH  21  24
ENDBRANCH   4  21
BRANCH   1  32
ATOM     31  C   UNL     1       2.249  11.959  18.301  0.00  0.00    +0.000 C 
ATOM     32  O   UNL     1       1.231  11.003  18.588  0.00  0.00    +0.000 OA
ENDBRANCH   1  32
TORSDOF 4
ENDMDL
MODEL 6
REMARK VINA RESULT:      -8.4      0.460      1.193
REMARK  Name = 
REMARK  5 active torsions:
REMARK  status: ('A' for Active; 'I' for Inactive)
REMARK    1  A    between atoms: C_1  and  O_2
REMARK    2  A    between atoms: O_2  and  C_3
REMARK    3  A    between atoms: C_6  and  S_7
REMARK    4  A    between atoms: S_7  and  N_10
REMARK    5  A    between atoms: C_18  and  C_19
REMARK                            x       y       z     vdW  Elec       q    Type
REMARK                         _______ _______ _______ _____ _____    ______ ____
ROOT
ATOM      1  C   UNL     1       2.934   5.081  18.645  0.00  0.00    +0.000 A 
ATOM      2  C   UNL     1       3.794   3.996  18.406  0.00  0.00    +0.000 A 
ATOM      3  C   UNL     1       5.008   4.172  17.746  0.00  0.00    +0.000 A 
ATOM      4  C   UNL     1       5.379   5.438  17.302  0.00  0.00    +0.000 A 
ATOM      5  C   UNL     1       4.547   6.545  17.551  0.00  0.00    +0.000 A 
ATOM      6  C   UNL     1       3.305   6.379  18.214  0.00  0.00    +0.000 A 
ENDROOT
BRANCH   6   7
ATOM      7  C   UNL     1       2.457   7.637  18.443  0.00  0.00    +0.000 C 
ATOM      8  O   UNL     1       2.418   8.486  17.563  0.00  0.00    +0.000 OA
ATOM      9  N   UNL     1       1.799   7.682  19.655  0.00  0.00    +0.000 N 
ATOM     10  C   UNL     1       1.036   8.712  20.153  0.00  0.00    +0.000 A 
ATOM     11  N   UNL     1       0.680   9.874  19.650  0.00  0.00    +0.000 NA
ATOM     12  C   UNL     1       0.006  10.536  20.666  0.00  0.00    +0.000 A 
ATOM     13  C   UNL     1      -0.570  11.818  20.713  0.00  0.00    +0.000 A 
ATOM     14  C   UNL     1      -1.134  12.266  21.919  0.00  0.00    +0.000 A 
ATOM     15  C   UNL     1      -1.139  11.457  23.058  0.00  0.00    +0.000 A 
ATOM     16  C   UNL     1      -0.610  10.164  23.021  0.00  0.00    +0.000 A 
ATOM     17  C   UNL     1      -0.051   9.747  21.810  0.00  0.00    +0.000 A 
ATOM     18  N   UNL     1       0.535   8.578  21.426  0.00  0.00    +0.000 N 
ATOM     19  H   UNL     1       1.940   6.887  20.264  0.00  0.00    +0.000 HD
ATOM     20  H   UNL     1       0.640   7.761  22.006  0.00  0.00    +0.000 HD
ENDBRANCH   6   7
BRANCH   4  21
ATOM     21  S   UNL     1       7.014   5.635  16.589  0.00  0.00    +0.000 S 
ATOM     22  O   UNL     1       7.294   7.055  16.547  0.00  0.00    +0.000 OA
ATOM     23  O   UNL     1       7.890   4.725  17.299  0.00  0.00    +0.000 OA
BRANCH  21  24
ATOM     24  N   UNL     1       6.842   5.068  14.988  0.00  0.00    +0.000 NA
ATOM     25  C   UNL     1       8.054   4.971  14.152  0.00  0.00    +0.000 C 
ATOM     26  C   UNL     1       7.804   5.509  12.742  0.00  0.00    +0.000 C 
ATOM     27  C   UNL     1       7.170   4.499  11.791  0.00  0.00    +0.000 C 
ATOM     28  C   UNL     1       5.780   4.042  12.209  0.00  0.00    +0.000 C 
ATOM     29  C   UNL     1       5.784   3.263  13.520  0.00  0.00    +0.000 C 
ATOM     30  C   UNL     1       5.716   4.134  14.768  0.00  0.00    +0.000 C 
ENDBRANCH  21  24
ENDBRANCH   4  21
BRANCH   1  32
ATOM     31  C   UNL     1       1.710   4.108  20.470  0.00  0.00    +0.000 C 
ATOM     32  O   UNL     1       1.733   4.926  19.302  0.00  0.00    +0.000 OA
ENDBRANCH   1  32
TORSDOF 4
ENDMDL
MODEL 7
REMARK VINA RESULT:      -8.3      1.206      1.801
REMARK  Name = 
REMARK  5 active torsions:
REMARK  status: ('A' for Active; 'I' for Inactive)
REMARK    1  A    between atoms: C_1  and  O_2
REMARK    2  A    between atoms: O_2  and  C_3
REMARK    3  A    between atoms: C_6  and  S_7
REMARK    4  A    between atoms: S_7  and  N_10
REMARK    5  A    between atoms: C_18  and  C_19
REMARK                            x       y       z     vdW  Elec       q    Type
REMARK                         _______ _______ _______ _____ _____    ______ ____
ROOT
ATOM      1  C   UNL     1       2.637   4.398  18.249  0.00  0.00    +0.000 A 
ATOM      2  C   UNL     1       3.344   3.448  17.494  0.00  0.00    +0.000 A 
ATOM      3  C   UNL     1       4.566   3.764  16.903  0.00  0.00    +0.000 A 
ATOM      4  C   UNL     1       5.098   5.043  17.051  0.00  0.00    +0.000 A 
ATOM      5  C   UNL     1       4.421   6.004  17.823  0.00  0.00    +0.000 A 
ATOM      6  C   UNL     1       3.172   5.699  18.423  0.00  0.00    +0.000 A 
ENDROOT
BRANCH   6   7
ATOM      7  C   UNL     1       2.499   6.804  19.246  0.00  0.00    +0.000 C 
ATOM      8  O   UNL     1       2.376   6.644  20.452  0.00  0.00    +0.000 OA
ATOM      9  N   UNL     1       2.093   7.905  18.519  0.00  0.00    +0.000 N 
ATOM     10  C   UNL     1       1.402   9.001  18.980  0.00  0.00    +0.000 A 
ATOM     11  N   UNL     1       0.984   9.345  20.179  0.00  0.00    +0.000 NA
ATOM     12  C   UNL     1       0.242  10.504  20.004  0.00  0.00    +0.000 A 
ATOM     13  C   UNL     1      -0.466  11.298  20.923  0.00  0.00    +0.000 A 
ATOM     14  C   UNL     1      -1.202  12.396  20.448  0.00  0.00    +0.000 A 
ATOM     15  C   UNL     1      -1.228  12.712  19.086  0.00  0.00    +0.000 A 
ATOM     16  C   UNL     1      -0.497  11.962  18.162  0.00  0.00    +0.000 A 
ATOM     17  C   UNL     1       0.221  10.873  18.663  0.00  0.00    +0.000 A 
ATOM     18  N   UNL     1       1.026   9.952  18.061  0.00  0.00    +0.000 N 
ATOM     19  H   UNL     1       2.280   7.872  17.526  0.00  0.00    +0.000 HD
ATOM     20  H   UNL     1       1.260   9.934  17.081  0.00  0.00    +0.000 HD
ENDBRANCH   6   7
BRANCH   4  21
ATOM     21  S   UNL     1       6.739   5.353  16.395  0.00  0.00    +0.000 S 
ATOM     22  O   UNL     1       6.943   6.786  16.414  0.00  0.00    +0.000 OA
ATOM     23  O   UNL     1       7.643   4.464  17.097  0.00  0.00    +0.000 OA
BRANCH  21  24
ATOM     24  N   UNL     1       6.643   4.840  14.770  0.00  0.00    +0.000 NA
ATOM     25  C   UNL     1       5.306   4.717  14.158  0.00  0.00    +0.000 C 
ATOM     26  C   UNL     1       5.182   3.426  13.346  0.00  0.00    +0.000 C 
ATOM     27  C   UNL     1       5.728   3.527  11.925  0.00  0.00    +0.000 C 
ATOM     28  C   UNL     1       7.223   3.804  11.856  0.00  0.00    +0.000 C 
ATOM     29  C   UNL     1       7.598   5.169  12.422  0.00  0.00    +0.000 C 
ATOM     30  C   UNL     1       7.812   5.187  13.930  0.00  0.00    +0.000 C 
ENDBRANCH  21  24
ENDBRANCH   4  21
BRANCH   1  32
ATOM     31  C   UNL     1       1.438   3.221  19.968  0.00  0.00    +0.000 C 
ATOM     32  O   UNL     1       1.431   4.101  18.845  0.00  0.00    +0.000 OA
ENDBRANCH   1  32
TORSDOF 4
ENDMDL
MODEL 8
REMARK VINA RESULT:      -8.1      3.006      4.938
REMARK  Name = 
REMARK  5 active torsions:
REMARK  status: ('A' for Active; 'I' for Inactive)
REMARK    1  A    between atoms: C_1  and  O_2
REMARK    2  A    between atoms: O_2  and  C_3
REMARK    3  A    between atoms: C_6  and  S_7
REMARK    4  A    between atoms: S_7  and  N_10
REMARK    5  A    between atoms: C_18  and  C_19
REMARK                            x       y       z     vdW  Elec       q    Type
REMARK                         _______ _______ _______ _____ _____    ______ ____
ROOT
ATOM      1  C   UNL     1       1.714   9.613  18.759  0.00  0.00    +0.000 A 
ATOM      2  C   UNL     1       2.444   8.939  17.766  0.00  0.00    +0.000 A 
ATOM      3  C   UNL     1       2.815   7.606  17.927  0.00  0.00    +0.000 A 
ATOM      4  C   UNL     1       2.471   6.925  19.092  0.00  0.00    +0.000 A 
ATOM      5  C   UNL     1       1.720   7.571  20.090  0.00  0.00    +0.000 A 
ATOM      6  C   UNL     1       1.342   8.930  19.944  0.00  0.00    +0.000 A 
ENDROOT
BRANCH   6   7
ATOM      7  C   UNL     1       0.526   9.559  21.080  0.00  0.00    +0.000 C 
ATOM      8  O   UNL     1       0.669   9.125  22.215  0.00  0.00    +0.000 OA
ATOM      9  N   UNL     1      -0.310  10.587  20.695  0.00  0.00    +0.000 N 
ATOM     10  C   UNL     1      -1.203  11.276  21.482  0.00  0.00    +0.000 A 
ATOM     11  N   UNL     1      -1.488  11.211  22.765  0.00  0.00    +0.000 NA
ATOM     12  C   UNL     1      -2.559  12.070  22.959  0.00  0.00    +0.000 A 
ATOM     13  C   UNL     1      -3.298  12.381  24.114  0.00  0.00    +0.000 A 
ATOM     14  C   UNL     1      -4.399  13.248  24.004  0.00  0.00    +0.000 A 
ATOM     15  C   UNL     1      -4.756  13.808  22.774  0.00  0.00    +0.000 A 
ATOM     16  C   UNL     1      -4.009  13.545  21.623  0.00  0.00    +0.000 A 
ATOM     17  C   UNL     1      -2.923  12.676  21.762  0.00  0.00    +0.000 A 
ATOM     18  N   UNL     1      -2.000  12.215  20.872  0.00  0.00    +0.000 N 
ATOM     19  H   UNL     1      -0.299  10.821  19.712  0.00  0.00    +0.000 HD
ATOM     20  H   UNL     1      -1.947  12.475  19.900  0.00  0.00    +0.000 HD
ENDBRANCH   6   7
BRANCH   4  21
ATOM     21  S   UNL     1       2.846   5.173  19.186  0.00  0.00    +0.000 S 
ATOM     22  O   UNL     1       3.009   4.845  20.586  0.00  0.00    +0.000 OA
ATOM     23  O   UNL     1       1.859   4.492  18.372  0.00  0.00    +0.000 OA
BRANCH  21  24
ATOM     24  N   UNL     1       4.362   5.028  18.414  0.00  0.00    +0.000 NA
ATOM     25  C   UNL     1       4.400   5.097  16.940  0.00  0.00    +0.000 C 
ATOM     26  C   UNL     1       5.315   4.019  16.356  0.00  0.00    +0.000 C 
ATOM     27  C   UNL     1       6.792   4.402  16.326  0.00  0.00    +0.000 C 
ATOM     28  C   UNL     1       7.400   4.624  17.704  0.00  0.00    +0.000 C 
ATOM     29  C   UNL     1       6.793   5.817  18.433  0.00  0.00    +0.000 C 
ATOM     30  C   UNL     1       5.520   5.499  19.206  0.00  0.00    +0.000 C 
ENDBRANCH  21  24
ENDBRANCH   4  21
BRANCH   1  32
ATOM     31  C   UNL     1       2.306  11.858  18.139  0.00  0.00    +0.000 C 
ATOM     32  O   UNL     1       1.333  10.929  18.614  0.00  0.00    +0.000 OA
ENDBRANCH   1  32
TORSDOF 4
ENDMDL
MODEL 9
REMARK VINA RESULT:      -8.1      3.005      4.962
REMARK  Name = 
REMARK  5 active torsions:
REMARK  status: ('A' for Active; 'I' for Inactive)
REMARK    1  A    between atoms: C_1  and  O_2
REMARK    2  A    between atoms: O_2  and  C_3
REMARK    3  A    between atoms: C_6  and  S_7
REMARK    4  A    between atoms: S_7  and  N_10
REMARK    5  A    between atoms: C_18  and  C_19
REMARK                            x       y       z     vdW  Elec       q    Type
REMARK                         _______ _______ _______ _____ _____    ______ ____
ROOT
ATOM      1  C   UNL     1       1.610   9.521  18.786  0.00  0.00    +0.000 A 
ATOM      2  C   UNL     1       2.461   8.892  17.861  0.00  0.00    +0.000 A 
ATOM      3  C   UNL     1       2.856   7.567  18.033  0.00  0.00    +0.000 A 
ATOM      4  C   UNL     1       2.413   6.848  19.140  0.00  0.00    +0.000 A 
ATOM      5  C   UNL     1       1.541   7.448  20.067  0.00  0.00    +0.000 A 
ATOM      6  C   UNL     1       1.138   8.798  19.910  0.00  0.00    +0.000 A 
ENDROOT
BRANCH   6   7
ATOM      7  C   UNL     1       0.188   9.376  20.967  0.00  0.00    +0.000 C 
ATOM      8  O   UNL     1      -0.586   8.619  21.536  0.00  0.00    +0.000 OA
ATOM      9  N   UNL     1       0.310  10.734  21.178  0.00  0.00    +0.000 N 
ATOM     10  C   UNL     1      -0.457  11.523  22.004  0.00  0.00    +0.000 A 
ATOM     11  N   UNL     1      -1.444  11.245  22.829  0.00  0.00    +0.000 NA
ATOM     12  C   UNL     1      -1.900  12.468  23.298  0.00  0.00    +0.000 A 
ATOM     13  C   UNL     1      -2.950  12.789  24.177  0.00  0.00    +0.000 A 
ATOM     14  C   UNL     1      -3.241  14.141  24.423  0.00  0.00    +0.000 A 
ATOM     15  C   UNL     1      -2.498  15.161  23.821  0.00  0.00    +0.000 A 
ATOM     16  C   UNL     1      -1.423  14.863  22.978  0.00  0.00    +0.000 A 
ATOM     17  C   UNL     1      -1.161  13.510  22.748  0.00  0.00    +0.000 A 
ATOM     18  N   UNL     1      -0.213  12.875  22.003  0.00  0.00    +0.000 N 
ATOM     19  H   UNL     1       1.009  11.207  20.621  0.00  0.00    +0.000 HD
ATOM     20  H   UNL     1       0.519  13.330  21.480  0.00  0.00    +0.000 HD
ENDBRANCH   6   7
BRANCH   4  21
ATOM     21  S   UNL     1       2.831   5.107  19.237  0.00  0.00    +0.000 S 
ATOM     22  O   UNL     1       3.036   4.793  20.635  0.00  0.00    +0.000 OA
ATOM     23  O   UNL     1       1.840   4.397  18.453  0.00  0.00    +0.000 OA
BRANCH  21  24
ATOM     24  N   UNL     1       4.331   4.991  18.429  0.00  0.00    +0.000 NA
ATOM     25  C   UNL     1       5.531   4.690  19.233  0.00  0.00    +0.000 C 
ATOM     26  C   UNL     1       6.711   5.576  18.826  0.00  0.00    +0.000 C 
ATOM     27  C   UNL     1       7.493   5.062  17.622  0.00  0.00    +0.000 C 
ATOM     28  C   UNL     1       6.680   5.003  16.336  0.00  0.00    +0.000 C 
ATOM     29  C   UNL     1       5.535   3.998  16.406  0.00  0.00    +0.000 C 
ATOM     30  C   UNL     1       4.254   4.548  17.020  0.00  0.00    +0.000 C 
ENDBRANCH  21  24
ENDBRANCH   4  21
BRANCH   1  32
ATOM     31  C   UNL     1       2.195  11.799  18.293  0.00  0.00    +0.000 C 
ATOM     32  O   UNL     1       1.205  10.828  18.629  0.00  0.00    +0.000 OA
ENDBRANCH   1  32
TORSDOF 4
ENDMDL
