MODEL 1
REMARK VINA RESULT:      -8.1      0.000      0.000
REMARK  Name = 
REMARK  4 active torsions:
REMARK  status: ('A' for Active; 'I' for Inactive)
REMARK    1  A    between atoms: C_2  and  C_14
REMARK    2  A    between atoms: N_3  and  C_4
REMARK    3  A    between atoms: C_12  and  O_13
REMARK    4  A    between atoms: C_17  and  N_18
REMARK                            x       y       z     vdW  Elec       q    Type
REMARK                         _______ _______ _______ _____ _____    ______ ____
ROOT
ATOM      1  O   UNL     1       2.377   5.020  18.078  0.00  0.00    +0.000 OA
ATOM      2  C   UNL     1       3.059   5.990  18.390  0.00  0.00    +0.000 C 
ATOM      3  N   UNL     1       4.440   5.979  18.349  0.00  0.00    +0.000 N 
ATOM      4  H   UNL     1       4.976   6.829  18.465  0.00  0.00    +0.000 HD
ENDROOT
BRANCH   3   5
ATOM      5  C   UNL     1       5.151   4.758  17.999  0.00  0.00    +0.000 C 
ATOM      6  C   UNL     1       5.536   4.702  16.547  0.00  0.00    +0.000 A 
ATOM      7  C   UNL     1       4.717   4.437  15.458  0.00  0.00    +0.000 A 
ATOM      8  C   UNL     1       5.306   4.317  14.197  0.00  0.00    +0.000 A 
ATOM      9  C   UNL     1       6.690   4.478  14.033  0.00  0.00    +0.000 A 
ATOM     10  C   UNL     1       7.503   4.776  15.126  0.00  0.00    +0.000 A 
ATOM     11  C   UNL     1       6.913   4.879  16.376  0.00  0.00    +0.000 A 
ATOM     12  C   UNL     1       7.587   5.168  17.677  0.00  0.00    +0.000 C 
ATOM     13  C   UNL     1       6.550   4.651  18.691  0.00  0.00    +0.000 C 
BRANCH  13  14
ATOM     14  O   UNL     1       6.663   5.387  19.907  0.00  0.00    +0.000 OA
ATOM     15  H   UNL     1       6.065   4.961  20.545  0.00  0.00    +0.000 HD
ENDBRANCH  13  14
ENDBRANCH   3   5
BRANCH   2  16
ATOM     16  C   UNL     1       2.392   7.239  18.847  0.00  0.00    +0.000 A 
ATOM     17  C   UNL     1       1.925   7.408  20.149  0.00  0.00    +0.000 A 
ATOM     18  C   UNL     1       1.256   8.588  20.511  0.00  0.00    +0.000 A 
ATOM     19  C   UNL     1       1.017   9.615  19.586  0.00  0.00    +0.000 A 
ATOM     20  C   UNL     1       1.479   9.419  18.275  0.00  0.00    +0.000 A 
ATOM     21  C   UNL     1       2.160   8.249  17.910  0.00  0.00    +0.000 A 
BRANCH  19  22
ATOM     22  N   UNL     1       0.320  10.802  19.946  0.00  0.00    +0.000 N 
ATOM     23  C   UNL     1       0.933  11.867  20.708  0.00  0.00    +0.000 C 
ATOM     24  C   UNL     1      -0.224  12.739  21.141  0.00  0.00    +0.000 C 
ATOM     25  C   UNL     1      -1.231  12.575  20.021  0.00  0.00    +0.000 C 
ATOM     26  C   UNL     1      -0.957  11.186  19.506  0.00  0.00    +0.000 C 
ATOM     27  O   UNL     1      -1.751  10.575  18.806  0.00  0.00    +0.000 OA
ENDBRANCH  19  22
ENDBRANCH   2  16
TORSDOF 4
ENDMDL
MODEL 2
REMARK VINA RESULT:      -8.0      0.968      1.245
REMARK  Name = 
REMARK  4 active torsions:
REMARK  status: ('A' for Active; 'I' for Inactive)
REMARK    1  A    between atoms: C_2  and  C_14
REMARK    2  A    between atoms: N_3  and  C_4
REMARK    3  A    between atoms: C_12  and  O_13
REMARK    4  A    between atoms: C_17  and  N_18
REMARK                            x       y       z     vdW  Elec       q    Type
REMARK                         _______ _______ _______ _____ _____    ______ ____
ROOT
ATOM      1  O   UNL     1       2.745   4.867  19.375  0.00  0.00    +0.000 OA
ATOM      2  C   UNL     1       3.135   5.920  18.884  0.00  0.00    +0.000 C 
ATOM      3  N   UNL     1       4.243   5.999  18.062  0.00  0.00    +0.000 N 
ATOM      4  H   UNL     1       4.459   6.845  17.551  0.00  0.00    +0.000 HD
ENDROOT
BRANCH   3   5
ATOM      5  C   UNL     1       5.050   4.815  17.808  0.00  0.00    +0.000 C 
ATOM      6  C   UNL     1       5.513   4.718  16.381  0.00  0.00    +0.000 A 
ATOM      7  C   UNL     1       4.770   4.348  15.268  0.00  0.00    +0.000 A 
ATOM      8  C   UNL     1       5.431   4.209  14.045  0.00  0.00    +0.000 A 
ATOM      9  C   UNL     1       6.808   4.457  13.941  0.00  0.00    +0.000 A 
ATOM     10  C   UNL     1       7.541   4.860  15.056  0.00  0.00    +0.000 A 
ATOM     11  C   UNL     1       6.882   4.981  16.269  0.00  0.00    +0.000 A 
ATOM     12  C   UNL     1       7.467   5.375  17.585  0.00  0.00    +0.000 C 
ATOM     13  C   UNL     1       6.415   4.836  18.572  0.00  0.00    +0.000 C 
BRANCH  13  14
ATOM     14  O   UNL     1       6.416   5.634  19.754  0.00  0.00    +0.000 OA
ATOM     15  H   UNL     1       5.531   6.032  19.820  0.00  0.00    +0.000 HD
ENDBRANCH  13  14
ENDBRANCH   3   5
BRANCH   2  16
ATOM     16  C   UNL     1       2.407   7.183  19.184  0.00  0.00    +0.000 A 
ATOM     17  C   UNL     1       1.823   7.438  20.423  0.00  0.00    +0.000 A 
ATOM     18  C   UNL     1       1.103   8.624  20.632  0.00  0.00    +0.000 A 
ATOM     19  C   UNL     1       0.926   9.572  19.612  0.00  0.00    +0.000 A 
ATOM     20  C   UNL     1       1.506   9.289  18.366  0.00  0.00    +0.000 A 
ATOM     21  C   UNL     1       2.239   8.113  18.154  0.00  0.00    +0.000 A 
BRANCH  19  22
ATOM     22  N   UNL     1       0.178  10.764  19.817  0.00  0.00    +0.000 N 
ATOM     23  C   UNL     1      -1.171  10.935  19.324  0.00  0.00    +0.000 C 
ATOM     24  C   UNL     1      -1.441  12.416  19.462  0.00  0.00    +0.000 C 
ATOM     25  C   UNL     1      -0.607  12.820  20.661  0.00  0.00    +0.000 C 
ATOM     26  C   UNL     1       0.546  11.851  20.626  0.00  0.00    +0.000 C 
ATOM     27  O   UNL     1       1.581  12.038  21.248  0.00  0.00    +0.000 OA
ENDBRANCH  19  22
ENDBRANCH   2  16
TORSDOF 4
ENDMDL
MODEL 3
REMARK VINA RESULT:      -8.0      1.253      1.694
REMARK  Name = 
REMARK  4 active torsions:
REMARK  status: ('A' for Active; 'I' for Inactive)
REMARK    1  A    between atoms: C_2  and  C_14
REMARK    2  A    between atoms: N_3  and  C_4
REMARK    3  A    between atoms: C_12  and  O_13
REMARK    4  A    between atoms: C_17  and  N_18
REMARK                            x       y       z     vdW  Elec       q    Type
REMARK                         _______ _______ _______ _____ _____    ______ ____
ROOT
ATOM      1  O   UNL     1       2.500   4.579  18.676  0.00  0.00    +0.000 OA
ATOM      2  C   UNL     1       3.082   5.651  18.797  0.00  0.00    +0.000 C 
ATOM      3  N   UNL     1       4.426   5.811  18.515  0.00  0.00    +0.000 N 
ATOM      4  H   UNL     1       4.849   6.729  18.478  0.00  0.00    +0.000 HD
ENDROOT
BRANCH   3   5
ATOM      5  C   UNL     1       5.232   4.664  18.126  0.00  0.00    +0.000 C 
ATOM      6  C   UNL     1       5.563   4.652  16.660  0.00  0.00    +0.000 A 
ATOM      7  C   UNL     1       4.730   4.318  15.601  0.00  0.00    +0.000 A 
ATOM      8  C   UNL     1       5.277   4.259  14.317  0.00  0.00    +0.000 A 
ATOM      9  C   UNL     1       6.632   4.549  14.101  0.00  0.00    +0.000 A 
ATOM     10  C   UNL     1       7.457   4.916  15.164  0.00  0.00    +0.000 A 
ATOM     11  C   UNL     1       6.910   4.957  16.437  0.00  0.00    +0.000 A 
ATOM     12  C   UNL     1       7.605   5.300  17.713  0.00  0.00    +0.000 C 
ATOM     13  C   UNL     1       6.661   4.683  18.762  0.00  0.00    +0.000 C 
BRANCH  13  14
ATOM     14  O   UNL     1       6.753   5.420  19.980  0.00  0.00    +0.000 OA
ATOM     15  H   UNL     1       7.684   5.684  20.074  0.00  0.00    +0.000 HD
ENDBRANCH  13  14
ENDBRANCH   3   5
BRANCH   2  16
ATOM     16  C   UNL     1       2.333   6.841  19.282  0.00  0.00    +0.000 A 
ATOM     17  C   UNL     1       2.189   8.000  18.521  0.00  0.00    +0.000 A 
ATOM     18  C   UNL     1       1.516   9.112  19.050  0.00  0.00    +0.000 A 
ATOM     19  C   UNL     1       0.991   9.108  20.351  0.00  0.00    +0.000 A 
ATOM     20  C   UNL     1       1.161   7.939  21.109  0.00  0.00    +0.000 A 
ATOM     21  C   UNL     1       1.820   6.819  20.581  0.00  0.00    +0.000 A 
BRANCH  19  22
ATOM     22  N   UNL     1       0.327  10.243  20.896  0.00  0.00    +0.000 N 
ATOM     23  C   UNL     1      -0.335  11.231  20.074  0.00  0.00    +0.000 C 
ATOM     24  C   UNL     1      -0.593  12.391  21.008  0.00  0.00    +0.000 C 
ATOM     25  C   UNL     1      -0.774  11.728  22.358  0.00  0.00    +0.000 C 
ATOM     26  C   UNL     1       0.080  10.491  22.256  0.00  0.00    +0.000 C 
ATOM     27  O   UNL     1       0.431   9.851  23.237  0.00  0.00    +0.000 OA
ENDBRANCH  19  22
ENDBRANCH   2  16
TORSDOF 4
ENDMDL
MODEL 4
REMARK VINA RESULT:      -7.7      5.428      7.075
REMARK  Name = 
REMARK  4 active torsions:
REMARK  status: ('A' for Active; 'I' for Inactive)
REMARK    1  A    between atoms: C_2  and  C_14
REMARK    2  A    between atoms: N_3  and  C_4
REMARK    3  A    between atoms: C_12  and  O_13
REMARK    4  A    between atoms: C_17  and  N_18
REMARK                            x       y       z     vdW  Elec       q    Type
REMARK                         _______ _______ _______ _____ _____    ______ ____
ROOT
ATOM      1  O   UNL     1       8.249   6.487  19.184  0.00  0.00    +0.000 OA
ATOM      2  C   UNL     1       7.951   7.176  18.215  0.00  0.00    +0.000 C 
ATOM      3  N   UNL     1       7.377   6.654  17.071  0.00  0.00    +0.000 N 
ATOM      4  H   UNL     1       7.004   7.256  16.349  0.00  0.00    +0.000 HD
ENDROOT
BRANCH   3   5
ATOM      5  C   UNL     1       7.174   5.218  16.946  0.00  0.00    +0.000 C 
ATOM      6  C   UNL     1       5.861   4.762  17.518  0.00  0.00    +0.000 A 
ATOM      7  C   UNL     1       5.521   4.609  18.855  0.00  0.00    +0.000 A 
ATOM      8  C   UNL     1       4.276   4.056  19.166  0.00  0.00    +0.000 A 
ATOM      9  C   UNL     1       3.383   3.683  18.150  0.00  0.00    +0.000 A 
ATOM     10  C   UNL     1       3.717   3.871  16.809  0.00  0.00    +0.000 A 
ATOM     11  C   UNL     1       4.960   4.405  16.509  0.00  0.00    +0.000 A 
ATOM     12  C   UNL     1       5.531   4.671  15.155  0.00  0.00    +0.000 C 
ATOM     13  C   UNL     1       7.039   4.752  15.459  0.00  0.00    +0.000 C 
BRANCH  13  14
ATOM     14  O   UNL     1       7.671   5.612  14.513  0.00  0.00    +0.000 OA
ATOM     15  H   UNL     1       8.612   5.365  14.500  0.00  0.00    +0.000 HD
ENDBRANCH  13  14
ENDBRANCH   3   5
BRANCH   2  16
ATOM     16  C   UNL     1       8.221   8.639  18.245  0.00  0.00    +0.000 A 
ATOM     17  C   UNL     1       7.618   9.533  17.362  0.00  0.00    +0.000 A 
ATOM     18  C   UNL     1       7.951  10.896  17.402  0.00  0.00    +0.000 A 
ATOM     19  C   UNL     1       8.904  11.398  18.301  0.00  0.00    +0.000 A 
ATOM     20  C   UNL     1       9.513  10.480  19.170  0.00  0.00    +0.000 A 
ATOM     21  C   UNL     1       9.175   9.120  19.146  0.00  0.00    +0.000 A 
BRANCH  19  22
ATOM     22  N   UNL     1       9.257  12.776  18.328  0.00  0.00    +0.000 N 
ATOM     23  C   UNL     1       8.593  13.737  19.181  0.00  0.00    +0.000 C 
ATOM     24  C   UNL     1       9.036  15.083  18.652  0.00  0.00    +0.000 C 
ATOM     25  C   UNL     1      10.424  14.812  18.107  0.00  0.00    +0.000 C 
ATOM     26  C   UNL     1      10.357  13.367  17.686  0.00  0.00    +0.000 C 
ATOM     27  O   UNL     1      11.176  12.864  16.931  0.00  0.00    +0.000 OA
ENDBRANCH  19  22
ENDBRANCH   2  16
TORSDOF 4
ENDMDL
MODEL 5
REMARK VINA RESULT:      -7.6      0.883      1.326
REMARK  Name = 
REMARK  4 active torsions:
REMARK  status: ('A' for Active; 'I' for Inactive)
REMARK    1  A    between atoms: C_2  and  C_14
REMARK    2  A    between atoms: N_3  and  C_4
REMARK    3  A    between atoms: C_12  and  O_13
REMARK    4  A    between atoms: C_17  and  N_18
REMARK                            x       y       z     vdW  Elec       q    Type
REMARK                         _______ _______ _______ _____ _____    ______ ____
ROOT
ATOM      1  O   UNL     1       2.533   4.604  18.371  0.00  0.00    +0.000 OA
ATOM      2  C   UNL     1       3.129   5.640  18.642  0.00  0.00    +0.000 C 
ATOM      3  N   UNL     1       4.499   5.774  18.513  0.00  0.00    +0.000 N 
ATOM      4  H   UNL     1       4.948   6.676  18.597  0.00  0.00    +0.000 HD
ENDROOT
BRANCH   3   5
ATOM      5  C   UNL     1       5.308   4.633  18.112  0.00  0.00    +0.000 C 
ATOM      6  C   UNL     1       5.625   4.629  16.642  0.00  0.00    +0.000 A 
ATOM      7  C   UNL     1       4.783   4.293  15.591  0.00  0.00    +0.000 A 
ATOM      8  C   UNL     1       5.318   4.242  14.301  0.00  0.00    +0.000 A 
ATOM      9  C   UNL     1       6.670   4.542  14.073  0.00  0.00    +0.000 A 
ATOM     10  C   UNL     1       7.502   4.911  15.129  0.00  0.00    +0.000 A 
ATOM     11  C   UNL     1       6.967   4.944  16.407  0.00  0.00    +0.000 A 
ATOM     12  C   UNL     1       7.673   5.287  17.678  0.00  0.00    +0.000 C 
ATOM     13  C   UNL     1       6.744   4.661  18.734  0.00  0.00    +0.000 C 
BRANCH  13  14
ATOM     14  O   UNL     1       6.843   5.394  19.953  0.00  0.00    +0.000 OA
ATOM     15  H   UNL     1       7.491   4.925  20.506  0.00  0.00    +0.000 HD
ENDBRANCH  13  14
ENDBRANCH   3   5
BRANCH   2  16
ATOM     16  C   UNL     1       2.366   6.814  19.147  0.00  0.00    +0.000 A 
ATOM     17  C   UNL     1       2.202   7.981  18.403  0.00  0.00    +0.000 A 
ATOM     18  C   UNL     1       1.517   9.076  18.951  0.00  0.00    +0.000 A 
ATOM     19  C   UNL     1       1.000   9.048  20.255  0.00  0.00    +0.000 A 
ATOM     20  C   UNL     1       1.191   7.871  20.995  0.00  0.00    +0.000 A 
ATOM     21  C   UNL     1       1.861   6.768  20.449  0.00  0.00    +0.000 A 
BRANCH  19  22
ATOM     22  N   UNL     1       0.325  10.166  20.819  0.00  0.00    +0.000 N 
ATOM     23  C   UNL     1       0.108  10.312  22.241  0.00  0.00    +0.000 C 
ATOM     24  C   UNL     1      -0.909  11.424  22.358  0.00  0.00    +0.000 C 
ATOM     25  C   UNL     1      -0.619  12.299  21.155  0.00  0.00    +0.000 C 
ATOM     26  C   UNL     1      -0.077  11.327  20.140  0.00  0.00    +0.000 C 
ATOM     27  O   UNL     1      -0.007  11.591  18.948  0.00  0.00    +0.000 OA
ENDBRANCH  19  22
ENDBRANCH   2  16
TORSDOF 4
ENDMDL
MODEL 6
REMARK VINA RESULT:      -7.6      2.340      3.063
REMARK  Name = 
REMARK  4 active torsions:
REMARK  status: ('A' for Active; 'I' for Inactive)
REMARK    1  A    between atoms: C_2  and  C_14
REMARK    2  A    between atoms: N_3  and  C_4
REMARK    3  A    between atoms: C_12  and  O_13
REMARK    4  A    between atoms: C_17  and  N_18
REMARK                            x       y       z     vdW  Elec       q    Type
REMARK                         _______ _______ _______ _____ _____    ______ ____
ROOT
ATOM      1  O   UNL     1       2.599   8.424  17.035  0.00  0.00    +0.000 OA
ATOM      2  C   UNL     1       2.331   8.050  18.172  0.00  0.00    +0.000 C 
ATOM      3  N   UNL     1       2.760   6.840  18.684  0.00  0.00    +0.000 N 
ATOM      4  H   UNL     1       2.656   6.619  19.665  0.00  0.00    +0.000 HD
ENDROOT
BRANCH   3   5
ATOM      5  C   UNL     1       3.500   5.912  17.842  0.00  0.00    +0.000 C 
ATOM      6  C   UNL     1       4.989   6.106  17.926  0.00  0.00    +0.000 A 
ATOM      7  C   UNL     1       5.750   7.109  17.343  0.00  0.00    +0.000 A 
ATOM      8  C   UNL     1       7.142   7.035  17.451  0.00  0.00    +0.000 A 
ATOM      9  C   UNL     1       7.752   5.981  18.147  0.00  0.00    +0.000 A 
ATOM     10  C   UNL     1       6.979   4.994  18.758  0.00  0.00    +0.000 A 
ATOM     11  C   UNL     1       5.601   5.067  18.633  0.00  0.00    +0.000 A 
ATOM     12  C   UNL     1       4.588   4.116  19.182  0.00  0.00    +0.000 C 
ATOM     13  C   UNL     1       3.359   4.425  18.309  0.00  0.00    +0.000 C 
BRANCH  13  14
ATOM     14  O   UNL     1       2.168   4.150  19.044  0.00  0.00    +0.000 OA
ATOM     15  H   UNL     1       2.370   4.339  19.977  0.00  0.00    +0.000 HD
ENDBRANCH  13  14
ENDBRANCH   3   5
BRANCH   2  16
ATOM     16  C   UNL     1       1.498   8.914  19.050  0.00  0.00    +0.000 A 
ATOM     17  C   UNL     1       1.275   8.625  20.395  0.00  0.00    +0.000 A 
ATOM     18  C   UNL     1       0.436   9.448  21.163  0.00  0.00    +0.000 A 
ATOM     19  C   UNL     1      -0.217  10.560  20.610  0.00  0.00    +0.000 A 
ATOM     20  C   UNL     1       0.006  10.824  19.250  0.00  0.00    +0.000 A 
ATOM     21  C   UNL     1       0.854  10.016  18.480  0.00  0.00    +0.000 A 
BRANCH  19  22
ATOM     22  N   UNL     1      -1.084  11.382  21.382  0.00  0.00    +0.000 N 
ATOM     23  C   UNL     1      -2.002  12.327  20.786  0.00  0.00    +0.000 C 
ATOM     24  C   UNL     1      -2.456  13.194  21.938  0.00  0.00    +0.000 C 
ATOM     25  C   UNL     1      -2.399  12.261  23.130  0.00  0.00    +0.000 C 
ATOM     26  C   UNL     1      -1.296  11.300  22.768  0.00  0.00    +0.000 C 
ATOM     27  O   UNL     1      -0.748  10.585  23.594  0.00  0.00    +0.000 OA
ENDBRANCH  19  22
ENDBRANCH   2  16
TORSDOF 4
ENDMDL
MODEL 7
REMARK VINA RESULT:      -7.5      2.308      3.169
REMARK  Name = 
REMARK  4 active torsions:
REMARK  status: ('A' for Active; 'I' for Inactive)
REMARK    1  A    between atoms: C_2  and  C_14
REMARK    2  A    between atoms: N_3  and  C_4
REMARK    3  A    between atoms: C_12  and  O_13
REMARK    4  A    between atoms: C_17  and  N_18
REMARK                            x       y       z     vdW  Elec       q    Type
REMARK                         _______ _______ _______ _____ _____    ______ ____
ROOT
ATOM      1  O   UNL     1       2.308   8.548  17.236  0.00  0.00    +0.000 OA
ATOM      2  C   UNL     1       2.177   8.186  18.400  0.00  0.00    +0.000 C 
ATOM      3  N   UNL     1       2.620   6.960  18.859  0.00  0.00    +0.000 N 
ATOM      4  H   UNL     1       2.637   6.744  19.847  0.00  0.00    +0.000 HD
ENDROOT
BRANCH   3   5
ATOM      5  C   UNL     1       3.203   6.001  17.933  0.00  0.00    +0.000 C 
ATOM      6  C   UNL     1       4.705   6.061  17.899  0.00  0.00    +0.000 A 
ATOM      7  C   UNL     1       5.505   7.014  17.284  0.00  0.00    +0.000 A 
ATOM      8  C   UNL     1       6.889   6.815  17.274  0.00  0.00    +0.000 A 
ATOM      9  C   UNL     1       7.455   5.687  17.887  0.00  0.00    +0.000 A 
ATOM     10  C   UNL     1       6.647   4.750  18.531  0.00  0.00    +0.000 A 
ATOM     11  C   UNL     1       5.276   4.948  18.524  0.00  0.00    +0.000 A 
ATOM     12  C   UNL     1       4.229   4.070  19.127  0.00  0.00    +0.000 C 
ATOM     13  C   UNL     1       2.966   4.517  18.367  0.00  0.00    +0.000 C 
BRANCH  13  14
ATOM     14  O   UNL     1       1.819   4.321  19.191  0.00  0.00    +0.000 OA
ATOM     15  H   UNL     1       1.219   3.738  18.695  0.00  0.00    +0.000 HD
ENDBRANCH  13  14
ENDBRANCH   3   5
BRANCH   2  16
ATOM     16  C   UNL     1       1.503   9.085  19.376  0.00  0.00    +0.000 A 
ATOM     17  C   UNL     1       1.289   8.726  20.705  0.00  0.00    +0.000 A 
ATOM     18  C   UNL     1       0.600   9.593  21.567  0.00  0.00    +0.000 A 
ATOM     19  C   UNL     1       0.089  10.823  21.126  0.00  0.00    +0.000 A 
ATOM     20  C   UNL     1       0.299  11.159  19.780  0.00  0.00    +0.000 A 
ATOM     21  C   UNL     1       0.999  10.305  18.916  0.00  0.00    +0.000 A 
BRANCH  19  22
ATOM     22  N   UNL     1      -0.628  11.693  21.994  0.00  0.00    +0.000 N 
ATOM     23  C   UNL     1      -1.601  11.214  22.950  0.00  0.00    +0.000 C 
ATOM     24  C   UNL     1      -2.337  12.457  23.398  0.00  0.00    +0.000 C 
ATOM     25  C   UNL     1      -1.292  13.549  23.286  0.00  0.00    +0.000 C 
ATOM     26  C   UNL     1      -0.404  13.068  22.168  0.00  0.00    +0.000 C 
ATOM     27  O   UNL     1       0.374  13.806  21.582  0.00  0.00    +0.000 OA
ENDBRANCH  19  22
ENDBRANCH   2  16
TORSDOF 4
ENDMDL
MODEL 8
REMARK VINA RESULT:      -7.5      5.303      7.022
REMARK  Name = 
REMARK  4 active torsions:
REMARK  status: ('A' for Active; 'I' for Inactive)
REMARK    1  A    between atoms: C_2  and  C_14
REMARK    2  A    between atoms: N_3  and  C_4
REMARK    3  A    between atoms: C_12  and  O_13
REMARK    4  A    between atoms: C_17  and  N_18
REMARK                            x       y       z     vdW  Elec       q    Type
REMARK                         _______ _______ _______ _____ _____    ______ ____
ROOT
ATOM      1  O   UNL     1       8.355   6.557  19.359  0.00  0.00    +0.000 OA
ATOM      2  C   UNL     1       8.034   7.239  18.393  0.00  0.00    +0.000 C 
ATOM      3  N   UNL     1       7.355   6.726  17.304  0.00  0.00    +0.000 N 
ATOM      4  H   UNL     1       6.971   7.332  16.591  0.00  0.00    +0.000 HD
ENDROOT
BRANCH   3   5
ATOM      5  C   UNL     1       7.059   5.303  17.233  0.00  0.00    +0.000 C 
ATOM      6  C   UNL     1       5.696   4.963  17.770  0.00  0.00    +0.000 A 
ATOM      7  C   UNL     1       5.297   4.894  19.097  0.00  0.00    +0.000 A 
ATOM      8  C   UNL     1       4.006   4.441  19.381  0.00  0.00    +0.000 A 
ATOM      9  C   UNL     1       3.128   4.081  18.346  0.00  0.00    +0.000 A 
ATOM     10  C   UNL     1       3.525   4.184  17.013  0.00  0.00    +0.000 A 
ATOM     11  C   UNL     1       4.812   4.620  16.741  0.00  0.00    +0.000 A 
ATOM     12  C   UNL     1       5.451   4.785  15.402  0.00  0.00    +0.000 C 
ATOM     13  C   UNL     1       6.948   4.779  15.763  0.00  0.00    +0.000 C 
BRANCH  13  14
ATOM     14  O   UNL     1       7.673   5.550  14.807  0.00  0.00    +0.000 OA
ATOM     15  H   UNL     1       7.346   6.462  14.882  0.00  0.00    +0.000 HD
ENDBRANCH  13  14
ENDBRANCH   3   5
BRANCH   2  16
ATOM     16  C   UNL     1       8.392   8.683  18.363  0.00  0.00    +0.000 A 
ATOM     17  C   UNL     1       9.265   9.260  19.285  0.00  0.00    +0.000 A 
ATOM     18  C   UNL     1       9.525  10.638  19.242  0.00  0.00    +0.000 A 
ATOM     19  C   UNL     1       8.912  11.478  18.300  0.00  0.00    +0.000 A 
ATOM     20  C   UNL     1       8.023  10.882  17.392  0.00  0.00    +0.000 A 
ATOM     21  C   UNL     1       7.768   9.504  17.420  0.00  0.00    +0.000 A 
BRANCH  19  22
ATOM     22  N   UNL     1       9.159  12.878  18.269  0.00  0.00    +0.000 N 
ATOM     23  C   UNL     1       8.424  13.820  19.084  0.00  0.00    +0.000 C 
ATOM     24  C   UNL     1       8.762  15.173  18.500  0.00  0.00    +0.000 C 
ATOM     25  C   UNL     1      10.167  14.987  17.962  0.00  0.00    +0.000 C 
ATOM     26  C   UNL     1      10.210  13.525  17.600  0.00  0.00    +0.000 C 
ATOM     27  O   UNL     1      11.066  13.055  16.864  0.00  0.00    +0.000 OA
ENDBRANCH  19  22
ENDBRANCH   2  16
TORSDOF 4
ENDMDL
MODEL 9
REMARK VINA RESULT:      -7.5      2.852      8.917
REMARK  Name = 
REMARK  4 active torsions:
REMARK  status: ('A' for Active; 'I' for Inactive)
REMARK    1  A    between atoms: C_2  and  C_14
REMARK    2  A    between atoms: N_3  and  C_4
REMARK    3  A    between atoms: C_12  and  O_13
REMARK    4  A    between atoms: C_17  and  N_18
REMARK                            x       y       z     vdW  Elec       q    Type
REMARK                         _______ _______ _______ _____ _____    ______ ____
ROOT
ATOM      1  O   UNL     1       2.032  10.849  18.187  0.00  0.00    +0.000 OA
ATOM      2  C   UNL     1       1.250   9.944  18.454  0.00  0.00    +0.000 C 
ATOM      3  N   UNL     1      -0.120  10.122  18.489  0.00  0.00    +0.000 N 
ATOM      4  H   UNL     1      -0.750   9.335  18.564  0.00  0.00    +0.000 HD
ENDROOT
BRANCH   3   5
ATOM      5  C   UNL     1      -0.690  11.444  18.278  0.00  0.00    +0.000 C 
ATOM      6  C   UNL     1      -2.128  11.398  17.843  0.00  0.00    +0.000 A 
ATOM      7  C   UNL     1      -2.629  11.075  16.589  0.00  0.00    +0.000 A 
ATOM      8  C   UNL     1      -4.002  11.210  16.366  0.00  0.00    +0.000 A 
ATOM      9  C   UNL     1      -4.856  11.644  17.391  0.00  0.00    +0.000 A 
ATOM     10  C   UNL     1      -4.350  11.935  18.658  0.00  0.00    +0.000 A 
ATOM     11  C   UNL     1      -2.986  11.814  18.866  0.00  0.00    +0.000 A 
ATOM     12  C   UNL     1      -2.231  12.091  20.125  0.00  0.00    +0.000 C 
ATOM     13  C   UNL     1      -0.796  12.276  19.599  0.00  0.00    +0.000 C 
BRANCH  13  14
ATOM     14  O   UNL     1       0.136  11.898  20.609  0.00  0.00    +0.000 OA
ATOM     15  H   UNL     1       0.808  12.601  20.643  0.00  0.00    +0.000 HD
ENDBRANCH  13  14
ENDBRANCH   3   5
BRANCH   2  16
ATOM     16  C   UNL     1       1.777   8.589  18.773  0.00  0.00    +0.000 A 
ATOM     17  C   UNL     1       2.338   7.755  17.807  0.00  0.00    +0.000 A 
ATOM     18  C   UNL     1       2.771   6.466  18.155  0.00  0.00    +0.000 A 
ATOM     19  C   UNL     1       2.639   5.969  19.460  0.00  0.00    +0.000 A 
ATOM     20  C   UNL     1       2.056   6.817  20.414  0.00  0.00    +0.000 A 
ATOM     21  C   UNL     1       1.634   8.111  20.078  0.00  0.00    +0.000 A 
BRANCH  19  22
ATOM     22  N   UNL     1       3.058   4.655  19.808  0.00  0.00    +0.000 N 
ATOM     23  C   UNL     1       2.182   3.698  20.446  0.00  0.00    +0.000 C 
ATOM     24  C   UNL     1       3.104   2.600  20.927  0.00  0.00    +0.000 C 
ATOM     25  C   UNL     1       4.231   2.613  19.914  0.00  0.00    +0.000 C 
ATOM     26  C   UNL     1       4.277   4.049  19.462  0.00  0.00    +0.000 C 
ATOM     27  O   UNL     1       5.238   4.523  18.875  0.00  0.00    +0.000 OA
ENDBRANCH  19  22
ENDBRANCH   2  16
TORSDOF 4
ENDMDL
