MODEL 1
REMARK VINA RESULT:      -9.6      0.000      0.000
REMARK  Name = 
REMARK  6 active torsions:
REMARK  status: ('A' for Active; 'I' for Inactive)
REMARK    1  A    between atoms: C_1  and  O_2
REMARK    2  A    between atoms: O_2  and  C_3
REMARK    3  A    between atoms: C_6  and  C_7
REMARK    4  A    between atoms: N_9  and  C_10
REMARK    5  A    between atoms: C_15  and  N_16
REMARK    6  A    between atoms: C_20  and  C_21
REMARK                            x       y       z     vdW  Elec       q    Type
REMARK                         _______ _______ _______ _____ _____    ______ ____
ROOT
ATOM      1  C   UNL     1       1.727   8.126  19.556  0.00  0.00    +0.000 C 
ATOM      2  O   UNL     1       1.873   7.502  20.600  0.00  0.00    +0.000 OA
ATOM      3  N   UNL     1       2.047   7.644  18.282  0.00  0.00    +0.000 N 
ATOM      4  H   UNL     1       1.961   8.282  17.501  0.00  0.00    +0.000 HD
ENDROOT
BRANCH   1   8
ATOM      5  C   UNL     1      -0.278  11.920  19.673  0.00  0.00    +0.000 A 
ATOM      6  C   UNL     1       0.448  11.528  18.544  0.00  0.00    +0.000 A 
ATOM      7  C   UNL     1       1.147  10.321  18.537  0.00  0.00    +0.000 A 
ATOM      8  C   UNL     1       1.145   9.500  19.672  0.00  0.00    +0.000 A 
ATOM      9  C   UNL     1       0.446   9.897  20.859  0.00  0.00    +0.000 A 
ATOM     10  C   UNL     1       0.414   9.142  22.062  0.00  0.00    +0.000 A 
ATOM     11  C   UNL     1      -0.321   9.537  23.183  0.00  0.00    +0.000 A 
ATOM     12  C   UNL     1      -1.041  10.717  23.147  0.00  0.00    +0.000 A 
ATOM     13  C   UNL     1      -1.011  11.500  21.994  0.00  0.00    +0.000 A 
ATOM     14  C   UNL     1      -0.278  11.121  20.843  0.00  0.00    +0.000 A 
BRANCH   5  16
ATOM     15  C   UNL     1      -0.320  14.275  19.314  0.00  0.00    +0.000 C 
ATOM     16  O   UNL     1      -0.993  13.094  19.733  0.00  0.00    +0.000 OA
ENDBRANCH   5  16
ENDBRANCH   1   8
BRANCH   3  17
ATOM     17  C   UNL     1       2.609   6.359  18.020  0.00  0.00    +0.000 A 
ATOM     18  C   UNL     1       1.817   5.207  17.916  0.00  0.00    +0.000 A 
ATOM     19  C   UNL     1       2.381   3.951  17.710  0.00  0.00    +0.000 A 
ATOM     20  C   UNL     1       3.752   3.827  17.569  0.00  0.00    +0.000 A 
ATOM     21  F   UNL     1       4.248   2.589  17.445  0.00  0.00    +0.000 F 
ATOM     22  C   UNL     1       4.576   4.953  17.634  0.00  0.00    +0.000 A 
ATOM     23  C   UNL     1       4.003   6.225  17.857  0.00  0.00    +0.000 A 
BRANCH  22  24
ATOM     24  N   UNL     1       5.966   4.764  17.437  0.00  0.00    +0.000 N 
ATOM     25  N   UNL     1       6.828   4.771  18.484  0.00  0.00    +0.000 NA
ATOM     26  N   UNL     1       8.017   4.462  17.997  0.00  0.00    +0.000 NA
ATOM     27  N   UNL     1       7.965   4.308  16.643  0.00  0.00    +0.000 NA
ATOM     28  C   UNL     1       6.713   4.528  16.292  0.00  0.00    +0.000 A 
ATOM     29  C   UNL     1       6.242   4.676  14.902  0.00  0.00    +0.000 C 
ENDBRANCH  22  24
ENDBRANCH   3  17
TORSDOF 4
ENDMDL
MODEL 2
REMARK VINA RESULT:      -9.3      1.056      1.082
REMARK  Name = 
REMARK  6 active torsions:
REMARK  status: ('A' for Active; 'I' for Inactive)
REMARK    1  A    between atoms: C_1  and  O_2
REMARK    2  A    between atoms: O_2  and  C_3
REMARK    3  A    between atoms: C_6  and  C_7
REMARK    4  A    between atoms: N_9  and  C_10
REMARK    5  A    between atoms: C_15  and  N_16
REMARK    6  A    between atoms: C_20  and  C_21
REMARK                            x       y       z     vdW  Elec       q    Type
REMARK                         _______ _______ _______ _____ _____    ______ ____
ROOT
ATOM      1  C   UNL     1       1.884   8.838  18.465  0.00  0.00    +0.000 C 
ATOM      2  O   UNL     1       1.905   8.900  17.241  0.00  0.00    +0.000 OA
ATOM      3  N   UNL     1       2.263   7.720  19.217  0.00  0.00    +0.000 N 
ATOM      4  H   UNL     1       2.123   7.757  20.219  0.00  0.00    +0.000 HD
ENDROOT
BRANCH   1   8
ATOM      5  C   UNL     1       0.246  12.355  20.299  0.00  0.00    +0.000 A 
ATOM      6  C   UNL     1       0.956  12.439  19.098  0.00  0.00    +0.000 A 
ATOM      7  C   UNL     1       1.537  11.301  18.539  0.00  0.00    +0.000 A 
ATOM      8  C   UNL     1       1.433  10.065  19.192  0.00  0.00    +0.000 A 
ATOM      9  C   UNL     1       0.750   9.959  20.448  0.00  0.00    +0.000 A 
ATOM     10  C   UNL     1       0.621   8.755  21.192  0.00  0.00    +0.000 A 
ATOM     11  C   UNL     1      -0.097   8.679  22.388  0.00  0.00    +0.000 A 
ATOM     12  C   UNL     1      -0.700   9.814  22.896  0.00  0.00    +0.000 A 
ATOM     13  C   UNL     1      -0.573  11.021  22.210  0.00  0.00    +0.000 A 
ATOM     14  C   UNL     1       0.145  11.124  20.993  0.00  0.00    +0.000 A 
BRANCH   5  16
ATOM     15  C   UNL     1       0.503  14.487  21.333  0.00  0.00    +0.000 C 
ATOM     16  O   UNL     1      -0.355  13.443  20.890  0.00  0.00    +0.000 OA
ENDBRANCH   5  16
ENDBRANCH   1   8
BRANCH   3  17
ATOM     17  C   UNL     1       2.710   6.484  18.662  0.00  0.00    +0.000 A 
ATOM     18  C   UNL     1       1.833   5.420  18.412  0.00  0.00    +0.000 A 
ATOM     19  C   UNL     1       2.288   4.201  17.916  0.00  0.00    +0.000 A 
ATOM     20  C   UNL     1       3.630   4.034  17.629  0.00  0.00    +0.000 A 
ATOM     21  F   UNL     1       4.026   2.820  17.224  0.00  0.00    +0.000 F 
ATOM     22  C   UNL     1       4.535   5.078  17.832  0.00  0.00    +0.000 A 
ATOM     23  C   UNL     1       4.074   6.310  18.348  0.00  0.00    +0.000 A 
BRANCH  22  24
ATOM     24  N   UNL     1       5.888   4.857  17.476  0.00  0.00    +0.000 N 
ATOM     25  N   UNL     1       6.840   4.670  18.423  0.00  0.00    +0.000 NA
ATOM     26  N   UNL     1       7.960   4.383  17.783  0.00  0.00    +0.000 NA
ATOM     27  N   UNL     1       7.776   4.433  16.433  0.00  0.00    +0.000 NA
ATOM     28  C   UNL     1       6.513   4.759  16.241  0.00  0.00    +0.000 A 
ATOM     29  C   UNL     1       5.929   5.132  14.940  0.00  0.00    +0.000 C 
ENDBRANCH  22  24
ENDBRANCH   3  17
TORSDOF 4
ENDMDL
MODEL 3
REMARK VINA RESULT:      -9.2      1.482      1.745
REMARK  Name = 
REMARK  6 active torsions:
REMARK  status: ('A' for Active; 'I' for Inactive)
REMARK    1  A    between atoms: C_1  and  O_2
REMARK    2  A    between atoms: O_2  and  C_3
REMARK    3  A    between atoms: C_6  and  C_7
REMARK    4  A    between atoms: N_9  and  C_10
REMARK    5  A    between atoms: C_15  and  N_16
REMARK    6  A    between atoms: C_20  and  C_21
REMARK                            x       y       z     vdW  Elec       q    Type
REMARK                         _______ _______ _______ _____ _____    ______ ____
ROOT
ATOM      1  C   UNL     1       1.694   9.024  18.467  0.00  0.00    +0.000 C 
ATOM      2  O   UNL     1       1.349   9.017  17.291  0.00  0.00    +0.000 OA
ATOM      3  N   UNL     1       2.395   7.994  19.103  0.00  0.00    +0.000 N 
ATOM      4  H   UNL     1       2.551   8.075  20.099  0.00  0.00    +0.000 HD
ENDROOT
BRANCH   1   8
ATOM      5  C   UNL     1       0.346  12.557  20.499  0.00  0.00    +0.000 A 
ATOM      6  C   UNL     1       1.055  12.648  19.297  0.00  0.00    +0.000 A 
ATOM      7  C   UNL     1       1.542  11.499  18.674  0.00  0.00    +0.000 A 
ATOM      8  C   UNL     1       1.344  10.243  19.261  0.00  0.00    +0.000 A 
ATOM      9  C   UNL     1       0.660  10.123  20.516  0.00  0.00    +0.000 A 
ATOM     10  C   UNL     1       0.439   8.895  21.196  0.00  0.00    +0.000 A 
ATOM     11  C   UNL     1      -0.277   8.813  22.393  0.00  0.00    +0.000 A 
ATOM     12  C   UNL     1      -0.787   9.963  22.966  0.00  0.00    +0.000 A 
ATOM     13  C   UNL     1      -0.567  11.190  22.343  0.00  0.00    +0.000 A 
ATOM     14  C   UNL     1       0.152  11.302  21.127  0.00  0.00    +0.000 A 
BRANCH   5  16
ATOM     15  C   UNL     1       0.776  14.595  21.655  0.00  0.00    +0.000 C 
ATOM     16  O   UNL     1      -0.165  13.655  21.151  0.00  0.00    +0.000 OA
ENDBRANCH   5  16
ENDBRANCH   1   8
BRANCH   3  17
ATOM     17  C   UNL     1       2.792   6.776  18.474  0.00  0.00    +0.000 A 
ATOM     18  C   UNL     1       2.049   5.594  18.604  0.00  0.00    +0.000 A 
ATOM     19  C   UNL     1       2.472   4.400  18.026  0.00  0.00    +0.000 A 
ATOM     20  C   UNL     1       3.634   4.373  17.277  0.00  0.00    +0.000 A 
ATOM     21  F   UNL     1       4.034   3.185  16.805  0.00  0.00    +0.000 F 
ATOM     22  C   UNL     1       4.389   5.534  17.094  0.00  0.00    +0.000 A 
ATOM     23  C   UNL     1       3.966   6.742  17.692  0.00  0.00    +0.000 A 
BRANCH  22  24
ATOM     24  N   UNL     1       5.544   5.448  16.279  0.00  0.00    +0.000 N 
ATOM     25  N   UNL     1       5.467   5.614  14.936  0.00  0.00    +0.000 NA
ATOM     26  N   UNL     1       6.707   5.588  14.480  0.00  0.00    +0.000 NA
ATOM     27  N   UNL     1       7.593   5.353  15.488  0.00  0.00    +0.000 NA
ATOM     28  C   UNL     1       6.879   5.231  16.590  0.00  0.00    +0.000 A 
ATOM     29  C   UNL     1       7.404   4.762  17.886  0.00  0.00    +0.000 C 
ENDBRANCH  22  24
ENDBRANCH   3  17
TORSDOF 4
ENDMDL
MODEL 4
REMARK VINA RESULT:      -9.2      4.078      8.714
REMARK  Name = 
REMARK  6 active torsions:
REMARK  status: ('A' for Active; 'I' for Inactive)
REMARK    1  A    between atoms: C_1  and  O_2
REMARK    2  A    between atoms: O_2  and  C_3
REMARK    3  A    between atoms: C_6  and  C_7
REMARK    4  A    between atoms: N_9  and  C_10
REMARK    5  A    between atoms: C_15  and  N_16
REMARK    6  A    between atoms: C_20  and  C_21
REMARK                            x       y       z     vdW  Elec       q    Type
REMARK                         _______ _______ _______ _____ _____    ______ ____
ROOT
ATOM      1  C   UNL     1       2.350   7.738  18.426  0.00  0.00    +0.000 C 
ATOM      2  O   UNL     1       2.162   7.567  19.625  0.00  0.00    +0.000 OA
ATOM      3  N   UNL     1       1.825   8.796  17.675  0.00  0.00    +0.000 N 
ATOM      4  H   UNL     1       1.980   8.786  16.676  0.00  0.00    +0.000 HD
ENDROOT
BRANCH   1   8
ATOM      5  C   UNL     1       5.107   4.885  16.789  0.00  0.00    +0.000 A 
ATOM      6  C   UNL     1       5.373   6.255  16.726  0.00  0.00    +0.000 A 
ATOM      7  C   UNL     1       4.445   7.179  17.205  0.00  0.00    +0.000 A 
ATOM      8  C   UNL     1       3.225   6.740  17.735  0.00  0.00    +0.000 A 
ATOM      9  C   UNL     1       2.905   5.343  17.771  0.00  0.00    +0.000 A 
ATOM     10  C   UNL     1       1.683   4.811  18.264  0.00  0.00    +0.000 A 
ATOM     11  C   UNL     1       1.428   3.439  18.330  0.00  0.00    +0.000 A 
ATOM     12  C   UNL     1       2.384   2.544  17.888  0.00  0.00    +0.000 A 
ATOM     13  C   UNL     1       3.585   3.028  17.372  0.00  0.00    +0.000 A 
ATOM     14  C   UNL     1       3.871   4.413  17.297  0.00  0.00    +0.000 A 
BRANCH   5  16
ATOM     15  C   UNL     1       6.764   4.261  15.194  0.00  0.00    +0.000 C 
ATOM     16  O   UNL     1       5.989   3.929  16.340  0.00  0.00    +0.000 OA
ENDBRANCH   5  16
ENDBRANCH   1   8
BRANCH   3  17
ATOM     17  C   UNL     1       0.976   9.817  18.198  0.00  0.00    +0.000 A 
ATOM     18  C   UNL     1      -0.414   9.795  18.016  0.00  0.00    +0.000 A 
ATOM     19  C   UNL     1      -1.227  10.822  18.488  0.00  0.00    +0.000 A 
ATOM     20  C   UNL     1      -0.667  11.878  19.183  0.00  0.00    +0.000 A 
ATOM     21  F   UNL     1      -1.484  12.874  19.551  0.00  0.00    +0.000 F 
ATOM     22  C   UNL     1       0.709  11.924  19.416  0.00  0.00    +0.000 A 
ATOM     23  C   UNL     1       1.535  10.888  18.925  0.00  0.00    +0.000 A 
BRANCH  22  24
ATOM     24  N   UNL     1       1.214  13.010  20.173  0.00  0.00    +0.000 N 
ATOM     25  N   UNL     1       0.972  13.108  21.504  0.00  0.00    +0.000 NA
ATOM     26  N   UNL     1       1.658  14.150  21.938  0.00  0.00    +0.000 NA
ATOM     27  N   UNL     1       2.301  14.773  20.909  0.00  0.00    +0.000 NA
ATOM     28  C   UNL     1       2.002  14.095  19.818  0.00  0.00    +0.000 A 
ATOM     29  C   UNL     1       2.306  14.535  18.444  0.00  0.00    +0.000 C 
ENDBRANCH  22  24
ENDBRANCH   3  17
TORSDOF 4
ENDMDL
MODEL 5
REMARK VINA RESULT:      -9.1      3.888      8.871
REMARK  Name = 
REMARK  6 active torsions:
REMARK  status: ('A' for Active; 'I' for Inactive)
REMARK    1  A    between atoms: C_1  and  O_2
REMARK    2  A    between atoms: O_2  and  C_3
REMARK    3  A    between atoms: C_6  and  C_7
REMARK    4  A    between atoms: N_9  and  C_10
REMARK    5  A    between atoms: C_15  and  N_16
REMARK    6  A    between atoms: C_20  and  C_21
REMARK                            x       y       z     vdW  Elec       q    Type
REMARK                         _______ _______ _______ _____ _____    ______ ____
ROOT
ATOM      1  C   UNL     1       2.198   7.814  18.580  0.00  0.00    +0.000 C 
ATOM      2  O   UNL     1       1.991   7.634  19.775  0.00  0.00    +0.000 OA
ATOM      3  N   UNL     1       1.560   8.779  17.793  0.00  0.00    +0.000 N 
ATOM      4  H   UNL     1       1.751   8.778  16.799  0.00  0.00    +0.000 HD
ENDROOT
BRANCH   1   8
ATOM      5  C   UNL     1       5.345   5.292  17.112  0.00  0.00    +0.000 A 
ATOM      6  C   UNL     1       5.518   6.677  17.196  0.00  0.00    +0.000 A 
ATOM      7  C   UNL     1       4.470   7.496  17.616  0.00  0.00    +0.000 A 
ATOM      8  C   UNL     1       3.226   6.937  17.937  0.00  0.00    +0.000 A 
ATOM      9  C   UNL     1       3.007   5.526  17.817  0.00  0.00    +0.000 A 
ATOM     10  C   UNL     1       1.772   4.878  18.093  0.00  0.00    +0.000 A 
ATOM     11  C   UNL     1       1.612   3.492  18.014  0.00  0.00    +0.000 A 
ATOM     12  C   UNL     1       2.680   2.700  17.637  0.00  0.00    +0.000 A 
ATOM     13  C   UNL     1       3.900   3.301  17.331  0.00  0.00    +0.000 A 
ATOM     14  C   UNL     1       4.091   4.702  17.407  0.00  0.00    +0.000 A 
BRANCH   5  16
ATOM     15  C   UNL     1       6.887   4.646  15.414  0.00  0.00    +0.000 C 
ATOM     16  O   UNL     1       6.346   4.437  16.712  0.00  0.00    +0.000 OA
ENDBRANCH   5  16
ENDBRANCH   1   8
BRANCH   3  17
ATOM     17  C   UNL     1       0.560   9.680  18.268  0.00  0.00    +0.000 A 
ATOM     18  C   UNL     1      -0.706   9.769  17.671  0.00  0.00    +0.000 A 
ATOM     19  C   UNL     1      -1.656  10.687  18.112  0.00  0.00    +0.000 A 
ATOM     20  C   UNL     1      -1.369  11.512  19.184  0.00  0.00    +0.000 A 
ATOM     21  F   UNL     1      -2.290  12.425  19.520  0.00  0.00    +0.000 F 
ATOM     22  C   UNL     1      -0.133  11.435  19.829  0.00  0.00    +0.000 A 
ATOM     23  C   UNL     1       0.836  10.513  19.372  0.00  0.00    +0.000 A 
BRANCH  22  24
ATOM     24  N   UNL     1       0.081  12.276  20.948  0.00  0.00    +0.000 N 
ATOM     25  N   UNL     1       0.946  13.318  20.885  0.00  0.00    +0.000 NA
ATOM     26  N   UNL     1       0.842  13.967  22.032  0.00  0.00    +0.000 NA
ATOM     27  N   UNL     1      -0.032  13.339  22.869  0.00  0.00    +0.000 NA
ATOM     28  C   UNL     1      -0.475  12.281  22.219  0.00  0.00    +0.000 A 
ATOM     29  C   UNL     1      -1.277  11.199  22.820  0.00  0.00    +0.000 C 
ENDBRANCH  22  24
ENDBRANCH   3  17
TORSDOF 4
ENDMDL
MODEL 6
REMARK VINA RESULT:      -9.1      1.494      1.584
REMARK  Name = 
REMARK  6 active torsions:
REMARK  status: ('A' for Active; 'I' for Inactive)
REMARK    1  A    between atoms: C_1  and  O_2
REMARK    2  A    between atoms: O_2  and  C_3
REMARK    3  A    between atoms: C_6  and  C_7
REMARK    4  A    between atoms: N_9  and  C_10
REMARK    5  A    between atoms: C_15  and  N_16
REMARK    6  A    between atoms: C_20  and  C_21
REMARK                            x       y       z     vdW  Elec       q    Type
REMARK                         _______ _______ _______ _____ _____    ______ ____
ROOT
ATOM      1  C   UNL     1       1.808   8.222  19.074  0.00  0.00    +0.000 C 
ATOM      2  O   UNL     1       2.589   8.312  18.134  0.00  0.00    +0.000 OA
ATOM      3  N   UNL     1       1.698   7.114  19.922  0.00  0.00    +0.000 N 
ATOM      4  H   UNL     1       0.958   7.120  20.612  0.00  0.00    +0.000 HD
ENDROOT
BRANCH   1   8
ATOM      5  C   UNL     1      -1.051  11.364  19.688  0.00  0.00    +0.000 A 
ATOM      6  C   UNL     1      -0.559  11.083  18.409  0.00  0.00    +0.000 A 
ATOM      7  C   UNL     1       0.415  10.102  18.227  0.00  0.00    +0.000 A 
ATOM      8  C   UNL     1       0.925   9.402  19.329  0.00  0.00    +0.000 A 
ATOM      9  C   UNL     1       0.472   9.701  20.655  0.00  0.00    +0.000 A 
ATOM     10  C   UNL     1       0.953   9.063  21.831  0.00  0.00    +0.000 A 
ATOM     11  C   UNL     1       0.449   9.344  23.103  0.00  0.00    +0.000 A 
ATOM     12  C   UNL     1      -0.548  10.291  23.250  0.00  0.00    +0.000 A 
ATOM     13  C   UNL     1      -1.026  10.959  22.124  0.00  0.00    +0.000 A 
ATOM     14  C   UNL     1      -0.537  10.690  20.823  0.00  0.00    +0.000 A 
BRANCH   5  16
ATOM     15  C   UNL     1      -3.244  12.170  19.220  0.00  0.00    +0.000 C 
ATOM     16  O   UNL     1      -2.018  12.314  19.925  0.00  0.00    +0.000 OA
ENDBRANCH   5  16
ENDBRANCH   1   8
BRANCH   3  17
ATOM     17  C   UNL     1       2.471   5.920  19.799  0.00  0.00    +0.000 A 
ATOM     18  C   UNL     1       1.931   4.654  20.061  0.00  0.00    +0.000 A 
ATOM     19  C   UNL     1       2.707   3.500  19.985  0.00  0.00    +0.000 A 
ATOM     20  C   UNL     1       4.035   3.589  19.611  0.00  0.00    +0.000 A 
ATOM     21  F   UNL     1       4.755   2.459  19.625  0.00  0.00    +0.000 F 
ATOM     22  C   UNL     1       4.607   4.827  19.310  0.00  0.00    +0.000 A 
ATOM     23  C   UNL     1       3.821   5.998  19.400  0.00  0.00    +0.000 A 
BRANCH  22  24
ATOM     24  N   UNL     1       5.960   4.845  18.890  0.00  0.00    +0.000 N 
ATOM     25  N   UNL     1       6.947   5.241  19.729  0.00  0.00    +0.000 NA
ATOM     26  N   UNL     1       8.088   5.042  19.092  0.00  0.00    +0.000 NA
ATOM     27  N   UNL     1       7.867   4.576  17.830  0.00  0.00    +0.000 NA
ATOM     28  C   UNL     1       6.559   4.487  17.691  0.00  0.00    +0.000 A 
ATOM     29  C   UNL     1       5.864   4.229  16.416  0.00  0.00    +0.000 C 
ENDBRANCH  22  24
ENDBRANCH   3  17
TORSDOF 4
ENDMDL
MODEL 7
REMARK VINA RESULT:      -9.0      1.373      2.614
REMARK  Name = 
REMARK  6 active torsions:
REMARK  status: ('A' for Active; 'I' for Inactive)
REMARK    1  A    between atoms: C_1  and  O_2
REMARK    2  A    between atoms: O_2  and  C_3
REMARK    3  A    between atoms: C_6  and  C_7
REMARK    4  A    between atoms: N_9  and  C_10
REMARK    5  A    between atoms: C_15  and  N_16
REMARK    6  A    between atoms: C_20  and  C_21
REMARK                            x       y       z     vdW  Elec       q    Type
REMARK                         _______ _______ _______ _____ _____    ______ ____
ROOT
ATOM      1  C   UNL     1       1.567   8.550  18.692  0.00  0.00    +0.000 C 
ATOM      2  O   UNL     1       1.548   8.680  17.473  0.00  0.00    +0.000 OA
ATOM      3  N   UNL     1       2.063   7.432  19.371  0.00  0.00    +0.000 N 
ATOM      4  H   UNL     1       1.948   7.403  20.376  0.00  0.00    +0.000 HD
ENDROOT
BRANCH   1   8
ATOM      5  C   UNL     1       0.318  11.727  21.294  0.00  0.00    +0.000 A 
ATOM      6  C   UNL     1      -0.138  10.420  21.490  0.00  0.00    +0.000 A 
ATOM      7  C   UNL     1       0.224   9.405  20.604  0.00  0.00    +0.000 A 
ATOM      8  C   UNL     1       1.031   9.692  19.496  0.00  0.00    +0.000 A 
ATOM      9  C   UNL     1       1.475  11.032  19.245  0.00  0.00    +0.000 A 
ATOM     10  C   UNL     1       2.271  11.419  18.133  0.00  0.00    +0.000 A 
ATOM     11  C   UNL     1       2.729  12.726  17.950  0.00  0.00    +0.000 A 
ATOM     12  C   UNL     1       2.391  13.704  18.867  0.00  0.00    +0.000 A 
ATOM     13  C   UNL     1       1.589  13.369  19.956  0.00  0.00    +0.000 A 
ATOM     14  C   UNL     1       1.115  12.051  20.169  0.00  0.00    +0.000 A 
BRANCH   5  16
ATOM     15  C   UNL     1      -1.152  12.595  22.956  0.00  0.00    +0.000 C 
ATOM     16  O   UNL     1       0.000  12.765  22.140  0.00  0.00    +0.000 OA
ENDBRANCH   5  16
ENDBRANCH   1   8
BRANCH   3  17
ATOM     17  C   UNL     1       2.600   6.271  18.738  0.00  0.00    +0.000 A 
ATOM     18  C   UNL     1       1.785   5.223  18.290  0.00  0.00    +0.000 A 
ATOM     19  C   UNL     1       2.324   4.074  17.718  0.00  0.00    +0.000 A 
ATOM     20  C   UNL     1       3.693   3.965  17.552  0.00  0.00    +0.000 A 
ATOM     21  F   UNL     1       4.164   2.810  17.064  0.00  0.00    +0.000 F 
ATOM     22  C   UNL     1       4.541   4.999  17.955  0.00  0.00    +0.000 A 
ATOM     23  C   UNL     1       3.993   6.160  18.548  0.00  0.00    +0.000 A 
BRANCH  22  24
ATOM     24  N   UNL     1       5.928   4.845  17.717  0.00  0.00    +0.000 N 
ATOM     25  N   UNL     1       6.797   4.658  18.740  0.00  0.00    +0.000 NA
ATOM     26  N   UNL     1       7.982   4.440  18.195  0.00  0.00    +0.000 NA
ATOM     27  N   UNL     1       7.919   4.536  16.837  0.00  0.00    +0.000 NA
ATOM     28  C   UNL     1       6.666   4.820  16.541  0.00  0.00    +0.000 A 
ATOM     29  C   UNL     1       6.186   5.221  15.206  0.00  0.00    +0.000 C 
ENDBRANCH  22  24
ENDBRANCH   3  17
TORSDOF 4
ENDMDL
MODEL 8
REMARK VINA RESULT:      -9.0      1.702      2.760
REMARK  Name = 
REMARK  6 active torsions:
REMARK  status: ('A' for Active; 'I' for Inactive)
REMARK    1  A    between atoms: C_1  and  O_2
REMARK    2  A    between atoms: O_2  and  C_3
REMARK    3  A    between atoms: C_6  and  C_7
REMARK    4  A    between atoms: N_9  and  C_10
REMARK    5  A    between atoms: C_15  and  N_16
REMARK    6  A    between atoms: C_20  and  C_21
REMARK                            x       y       z     vdW  Elec       q    Type
REMARK                         _______ _______ _______ _____ _____    ______ ____
ROOT
ATOM      1  C   UNL     1       1.425   7.818  20.371  0.00  0.00    +0.000 C 
ATOM      2  O   UNL     1       2.096   8.158  19.403  0.00  0.00    +0.000 OA
ATOM      3  N   UNL     1       1.413   6.535  20.928  0.00  0.00    +0.000 N 
ATOM      4  H   UNL     1       0.754   6.351  21.673  0.00  0.00    +0.000 HD
ENDROOT
BRANCH   1   8
ATOM      5  C   UNL     1      -0.659  11.066  22.250  0.00  0.00    +0.000 A 
ATOM      6  C   UNL     1      -0.055  10.064  23.016  0.00  0.00    +0.000 A 
ATOM      7  C   UNL     1       0.568   8.980  22.398  0.00  0.00    +0.000 A 
ATOM      8  C   UNL     1       0.573   8.875  21.001  0.00  0.00    +0.000 A 
ATOM      9  C   UNL     1      -0.078   9.864  20.192  0.00  0.00    +0.000 A 
ATOM     10  C   UNL     1      -0.146   9.823  18.773  0.00  0.00    +0.000 A 
ATOM     11  C   UNL     1      -0.745  10.832  18.016  0.00  0.00    +0.000 A 
ATOM     12  C   UNL     1      -1.316  11.918  18.653  0.00  0.00    +0.000 A 
ATOM     13  C   UNL     1      -1.295  11.981  20.045  0.00  0.00    +0.000 A 
ATOM     14  C   UNL     1      -0.690  10.973  20.837  0.00  0.00    +0.000 A 
BRANCH   5  16
ATOM     15  C   UNL     1      -2.557  11.945  23.393  0.00  0.00    +0.000 C 
ATOM     16  O   UNL     1      -1.280  12.162  22.806  0.00  0.00    +0.000 OA
ENDBRANCH   5  16
ENDBRANCH   1   8
BRANCH   3  17
ATOM     17  C   UNL     1       2.169   5.430  20.433  0.00  0.00    +0.000 A 
ATOM     18  C   UNL     1       1.676   4.118  20.462  0.00  0.00    +0.000 A 
ATOM     19  C   UNL     1       2.443   3.042  20.022  0.00  0.00    +0.000 A 
ATOM     20  C   UNL     1       3.709   3.263  19.511  0.00  0.00    +0.000 A 
ATOM     21  F   UNL     1       4.431   2.187  19.170  0.00  0.00    +0.000 F 
ATOM     22  C   UNL     1       4.227   4.557  19.434  0.00  0.00    +0.000 A 
ATOM     23  C   UNL     1       3.454   5.647  19.893  0.00  0.00    +0.000 A 
BRANCH  22  24
ATOM     24  N   UNL     1       5.512   4.720  18.860  0.00  0.00    +0.000 N 
ATOM     25  N   UNL     1       6.580   5.061  19.621  0.00  0.00    +0.000 NA
ATOM     26  N   UNL     1       7.637   5.026  18.828  0.00  0.00    +0.000 NA
ATOM     27  N   UNL     1       7.276   4.724  17.548  0.00  0.00    +0.000 NA
ATOM     28  C   UNL     1       5.967   4.571  17.557  0.00  0.00    +0.000 A 
ATOM     29  C   UNL     1       5.125   4.446  16.352  0.00  0.00    +0.000 C 
ENDBRANCH  22  24
ENDBRANCH   3  17
TORSDOF 4
ENDMDL
MODEL 9
REMARK VINA RESULT:      -9.0      1.599      2.375
REMARK  Name = 
REMARK  6 active torsions:
REMARK  status: ('A' for Active; 'I' for Inactive)
REMARK    1  A    between atoms: C_1  and  O_2
REMARK    2  A    between atoms: O_2  and  C_3
REMARK    3  A    between atoms: C_6  and  C_7
REMARK    4  A    between atoms: N_9  and  C_10
REMARK    5  A    between atoms: C_15  and  N_16
REMARK    6  A    between atoms: C_20  and  C_21
REMARK                            x       y       z     vdW  Elec       q    Type
REMARK                         _______ _______ _______ _____ _____    ______ ____
ROOT
ATOM      1  C   UNL     1       1.749   8.606  18.260  0.00  0.00    +0.000 C 
ATOM      2  O   UNL     1       2.278   8.836  17.178  0.00  0.00    +0.000 OA
ATOM      3  N   UNL     1       1.775   7.373  18.919  0.00  0.00    +0.000 N 
ATOM      4  H   UNL     1       1.231   7.280  19.767  0.00  0.00    +0.000 HD
ENDROOT
BRANCH   1   8
ATOM      5  C   UNL     1      -0.027  12.144  19.920  0.00  0.00    +0.000 A 
ATOM      6  C   UNL     1       1.173  11.638  20.430  0.00  0.00    +0.000 A 
ATOM      7  C   UNL     1       1.712  10.454  19.926  0.00  0.00    +0.000 A 
ATOM      8  C   UNL     1       1.042   9.750  18.917  0.00  0.00    +0.000 A 
ATOM      9  C   UNL     1      -0.212  10.221  18.407  0.00  0.00    +0.000 A 
ATOM     10  C   UNL     1      -0.973   9.557  17.407  0.00  0.00    +0.000 A 
ATOM     11  C   UNL     1      -2.166  10.075  16.897  0.00  0.00    +0.000 A 
ATOM     12  C   UNL     1      -2.655  11.272  17.385  0.00  0.00    +0.000 A 
ATOM     13  C   UNL     1      -1.952  11.940  18.386  0.00  0.00    +0.000 A 
ATOM     14  C   UNL     1      -0.738  11.440  18.917  0.00  0.00    +0.000 A 
BRANCH   5  16
ATOM     15  C   UNL     1       0.157  14.075  21.303  0.00  0.00    +0.000 C 
ATOM     16  O   UNL     1      -0.599  13.311  20.373  0.00  0.00    +0.000 OA
ENDBRANCH   5  16
ENDBRANCH   1   8
BRANCH   3  17
ATOM     17  C   UNL     1       2.406   6.197  18.413  0.00  0.00    +0.000 A 
ATOM     18  C   UNL     1       1.671   5.090  17.967  0.00  0.00    +0.000 A 
ATOM     19  C   UNL     1       2.298   3.930  17.521  0.00  0.00    +0.000 A 
ATOM     20  C   UNL     1       3.679   3.867  17.481  0.00  0.00    +0.000 A 
ATOM     21  F   UNL     1       4.232   2.703  17.114  0.00  0.00    +0.000 F 
ATOM     22  C   UNL     1       4.452   4.958  17.886  0.00  0.00    +0.000 A 
ATOM     23  C   UNL     1       3.814   6.130  18.351  0.00  0.00    +0.000 A 
BRANCH  22  24
ATOM     24  N   UNL     1       5.859   4.845  17.778  0.00  0.00    +0.000 N 
ATOM     25  N   UNL     1       6.645   4.817  18.882  0.00  0.00    +0.000 NA
ATOM     26  N   UNL     1       7.879   4.596  18.463  0.00  0.00    +0.000 NA
ATOM     27  N   UNL     1       7.928   4.536  17.102  0.00  0.00    +0.000 NA
ATOM     28  C   UNL     1       6.694   4.724  16.677  0.00  0.00    +0.000 A 
ATOM     29  C   UNL     1       6.314   4.949  15.270  0.00  0.00    +0.000 C 
ENDBRANCH  22  24
ENDBRANCH   3  17
TORSDOF 4
ENDMDL
