MODEL 1
REMARK VINA RESULT:      -6.9      0.000      0.000
REMARK  Name = 
REMARK  2 active torsions:
REMARK  status: ('A' for Active; 'I' for Inactive)
REMARK    1  A    between atoms: C_2  and  C_3
REMARK    2  A    between atoms: N_15  and  C_16
REMARK                            x       y       z     vdW  Elec       q    Type
REMARK                         _______ _______ _______ _____ _____    ______ ____
ROOT
ATOM      1  O   UNL     1       4.834   7.118  17.285  0.00  0.00    +0.000 OA
ATOM      2  C   UNL     1       4.221   6.448  18.110  0.00  0.00    +0.000 C 
ATOM      3  N   UNL     1       2.862   6.635  18.366  0.00  0.00    +0.000 N 
ATOM      4  C   UNL     1       2.142   7.567  17.493  0.00  0.00    +0.000 C 
ATOM      5  C   UNL     1       2.013   8.960  18.140  0.00  0.00    +0.000 C 
ATOM      6  C   UNL     1       1.288   8.758  19.466  0.00  0.00    +0.000 C 
ATOM      7  C   UNL     1       2.124   7.823  20.346  0.00  0.00    +0.000 C 
ATOM      8  C   UNL     1       2.269   6.450  19.704  0.00  0.00    +0.000 C 
ATOM      9  N   UNL     1       1.461   7.946  21.603  0.00  0.00    +0.000 N 
ATOM     10  C   UNL     1       1.041   9.280  21.709  0.00  0.00    +0.000 C 
ATOM     11  O   UNL     1       0.828   9.812  22.783  0.00  0.00    +0.000 OA
ATOM     12  N   UNL     1       0.995   9.829  20.406  0.00  0.00    +0.000 N 
ATOM     13  H   UNL     1       1.813   7.554  22.469  0.00  0.00    +0.000 HD
ENDROOT
BRANCH  12  14
ATOM     14  C   UNL     1       0.808  11.255  20.052  0.00  0.00    +0.000 C 
ATOM     15  C   UNL     1       0.628  12.209  21.247  0.00  0.00    +0.000 C 
ATOM     16  C   UNL     1      -0.764  12.097  21.867  0.00  0.00    +0.000 C 
ATOM     17  N   UNL     1      -1.759  12.345  20.830  0.00  0.00    +0.000 N 
ATOM     18  C   UNL     1      -3.026  12.777  21.193  0.00  0.00    +0.000 A 
ATOM     19  C   UNL     1      -3.559  12.561  22.465  0.00  0.00    +0.000 A 
ATOM     20  C   UNL     1      -4.763  13.157  22.833  0.00  0.00    +0.000 A 
ATOM     21  C   UNL     1      -5.420  13.966  21.920  0.00  0.00    +0.000 A 
ATOM     22  C   UNL     1      -4.860  14.100  20.665  0.00  0.00    +0.000 A 
ATOM     23  N   UNL     1      -3.705  13.510  20.283  0.00  0.00    +0.000 NA
ATOM     24  C   UNL     1      -1.715  11.453  19.678  0.00  0.00    +0.000 C 
ATOM     25  C   UNL     1      -0.326  11.517  19.043  0.00  0.00    +0.000 C 
ENDBRANCH  12  14
BRANCH   2  26
ATOM     26  C   UNL     1       4.921   5.354  18.846  0.00  0.00    +0.000 C 
ATOM     27  C   UNL     1       6.223   4.783  18.329  0.00  0.00    +0.000 C 
ATOM     28  C   UNL     1       4.966   3.969  18.231  0.00  0.00    +0.000 C 
ENDBRANCH   2  26
TORSDOF 2
ENDMDL
MODEL 2
REMARK VINA RESULT:      -6.7      2.879      3.712
REMARK  Name = 
REMARK  2 active torsions:
REMARK  status: ('A' for Active; 'I' for Inactive)
REMARK    1  A    between atoms: C_2  and  C_3
REMARK    2  A    between atoms: N_15  and  C_16
REMARK                            x       y       z     vdW  Elec       q    Type
REMARK                         _______ _______ _______ _____ _____    ______ ____
ROOT
ATOM      1  O   UNL     1       1.083   3.521  19.524  0.00  0.00    +0.000 OA
ATOM      2  C   UNL     1       2.044   4.068  18.993  0.00  0.00    +0.000 C 
ATOM      3  N   UNL     1       2.655   5.199  19.534  0.00  0.00    +0.000 N 
ATOM      4  C   UNL     1       2.203   5.631  20.860  0.00  0.00    +0.000 C 
ATOM      5  C   UNL     1       1.168   6.769  20.760  0.00  0.00    +0.000 C 
ATOM      6  C   UNL     1       1.843   7.905  19.998  0.00  0.00    +0.000 C 
ATOM      7  C   UNL     1       2.233   7.399  18.606  0.00  0.00    +0.000 C 
ATOM      8  C   UNL     1       3.244   6.264  18.699  0.00  0.00    +0.000 C 
ATOM      9  N   UNL     1       2.598   8.615  17.954  0.00  0.00    +0.000 N 
ATOM     10  C   UNL     1       1.727   9.606  18.431  0.00  0.00    +0.000 C 
ATOM     11  O   UNL     1       1.490  10.620  17.802  0.00  0.00    +0.000 OA
ATOM     12  N   UNL     1       1.189   9.160  19.661  0.00  0.00    +0.000 N 
ATOM     13  H   UNL     1       2.803   8.686  16.964  0.00  0.00    +0.000 HD
ENDROOT
BRANCH  12  14
ATOM     14  C   UNL     1       0.076   9.780  20.416  0.00  0.00    +0.000 C 
ATOM     15  C   UNL     1      -1.007  10.454  19.554  0.00  0.00    +0.000 C 
ATOM     16  C   UNL     1      -0.538  11.794  18.988  0.00  0.00    +0.000 C 
ATOM     17  N   UNL     1      -0.125  12.650  20.094  0.00  0.00    +0.000 N 
ATOM     18  C   UNL     1      -0.123  14.026  19.924  0.00  0.00    +0.000 A 
ATOM     19  C   UNL     1      -0.049  14.630  18.668  0.00  0.00    +0.000 A 
ATOM     20  C   UNL     1      -0.219  16.007  18.539  0.00  0.00    +0.000 A 
ATOM     21  C   UNL     1      -0.465  16.764  19.672  0.00  0.00    +0.000 A 
ATOM     22  C   UNL     1      -0.482  16.109  20.888  0.00  0.00    +0.000 A 
ATOM     23  N   UNL     1      -0.295  14.779  21.034  0.00  0.00    +0.000 NA
ATOM     24  C   UNL     1       0.943  12.129  20.939  0.00  0.00    +0.000 C 
ATOM     25  C   UNL     1       0.522  10.774  21.505  0.00  0.00    +0.000 C 
ENDBRANCH  12  14
BRANCH   2  26
ATOM     26  C   UNL     1       2.631   3.491  17.747  0.00  0.00    +0.000 C 
ATOM     27  C   UNL     1       2.634   1.997  17.513  0.00  0.00    +0.000 C 
ATOM     28  C   UNL     1       3.920   2.698  17.842  0.00  0.00    +0.000 C 
ENDBRANCH   2  26
TORSDOF 2
ENDMDL
MODEL 3
REMARK VINA RESULT:      -6.6      1.330      1.660
REMARK  Name = 
REMARK  2 active torsions:
REMARK  status: ('A' for Active; 'I' for Inactive)
REMARK    1  A    between atoms: C_2  and  C_3
REMARK    2  A    between atoms: N_15  and  C_16
REMARK                            x       y       z     vdW  Elec       q    Type
REMARK                         _______ _______ _______ _____ _____    ______ ____
ROOT
ATOM      1  O   UNL     1       6.422   7.168  17.163  0.00  0.00    +0.000 OA
ATOM      2  C   UNL     1       5.778   6.347  17.809  0.00  0.00    +0.000 C 
ATOM      3  N   UNL     1       4.388   6.257  17.734  0.00  0.00    +0.000 N 
ATOM      4  C   UNL     1       3.720   7.086  16.726  0.00  0.00    +0.000 C 
ATOM      5  C   UNL     1       3.171   8.388  17.341  0.00  0.00    +0.000 C 
ATOM      6  C   UNL     1       2.213   7.974  18.452  0.00  0.00    +0.000 C 
ATOM      7  C   UNL     1       2.990   7.164  19.495  0.00  0.00    +0.000 C 
ATOM      8  C   UNL     1       3.549   5.883  18.889  0.00  0.00    +0.000 C 
ATOM      9  N   UNL     1       2.042   7.085  20.558  0.00  0.00    +0.000 N 
ATOM     10  C   UNL     1       1.352   8.306  20.576  0.00  0.00    +0.000 C 
ATOM     11  O   UNL     1       0.795   8.724  21.574  0.00  0.00    +0.000 OA
ATOM     12  N   UNL     1       1.503   8.913  19.307  0.00  0.00    +0.000 N 
ATOM     13  H   UNL     1       2.253   6.716  21.478  0.00  0.00    +0.000 HD
ENDROOT
BRANCH  12  14
ATOM     14  C   UNL     1       1.124  10.296  18.937  0.00  0.00    +0.000 C 
ATOM     15  C   UNL     1       1.400  11.362  20.013  0.00  0.00    +0.000 C 
ATOM     16  C   UNL     1       0.383  11.303  21.152  0.00  0.00    +0.000 C 
ATOM     17  N   UNL     1      -0.956  11.442  20.591  0.00  0.00    +0.000 N 
ATOM     18  C   UNL     1      -1.987  11.899  21.399  0.00  0.00    +0.000 A 
ATOM     19  C   UNL     1      -1.950  11.806  22.791  0.00  0.00    +0.000 A 
ATOM     20  C   UNL     1      -2.929  12.429  23.563  0.00  0.00    +0.000 A 
ATOM     21  C   UNL     1      -3.935  13.140  22.929  0.00  0.00    +0.000 A 
ATOM     22  C   UNL     1      -3.936  13.154  21.548  0.00  0.00    +0.000 A 
ATOM     23  N   UNL     1      -3.008  12.536  20.784  0.00  0.00    +0.000 NA
ATOM     24  C   UNL     1      -1.341  10.440  19.604  0.00  0.00    +0.000 C 
ATOM     25  C   UNL     1      -0.331  10.451  18.457  0.00  0.00    +0.000 C 
ENDBRANCH  12  14
BRANCH   2  26
ATOM     26  C   UNL     1       6.491   5.363  18.678  0.00  0.00    +0.000 C 
ATOM     27  C   UNL     1       7.858   5.678  19.243  0.00  0.00    +0.000 C 
ATOM     28  C   UNL     1       7.728   4.670  18.139  0.00  0.00    +0.000 C 
ENDBRANCH   2  26
TORSDOF 2
ENDMDL
MODEL 4
REMARK VINA RESULT:      -6.5      3.031      4.124
REMARK  Name = 
REMARK  2 active torsions:
REMARK  status: ('A' for Active; 'I' for Inactive)
REMARK    1  A    between atoms: C_2  and  C_3
REMARK    2  A    between atoms: N_15  and  C_16
REMARK                            x       y       z     vdW  Elec       q    Type
REMARK                         _______ _______ _______ _____ _____    ______ ____
ROOT
ATOM      1  O   UNL     1       1.560   2.844  20.135  0.00  0.00    +0.000 OA
ATOM      2  C   UNL     1       2.614   3.324  19.729  0.00  0.00    +0.000 C 
ATOM      3  N   UNL     1       3.081   4.570  20.149  0.00  0.00    +0.000 N 
ATOM      4  C   UNL     1       2.338   5.231  21.227  0.00  0.00    +0.000 C 
ATOM      5  C   UNL     1       1.346   6.272  20.672  0.00  0.00    +0.000 C 
ATOM      6  C   UNL     1       2.170   7.268  19.863  0.00  0.00    +0.000 C 
ATOM      7  C   UNL     1       2.868   6.519  18.724  0.00  0.00    +0.000 C 
ATOM      8  C   UNL     1       3.838   5.478  19.266  0.00  0.00    +0.000 C 
ATOM      9  N   UNL     1       3.364   7.600  17.934  0.00  0.00    +0.000 N 
ATOM     10  C   UNL     1       2.402   8.619  17.996  0.00  0.00    +0.000 C 
ATOM     11  O   UNL     1       2.308   9.477  17.138  0.00  0.00    +0.000 OA
ATOM     12  N   UNL     1       1.602   8.398  19.142  0.00  0.00    +0.000 N 
ATOM     13  H   UNL     1       3.786   7.485  17.021  0.00  0.00    +0.000 HD
ENDROOT
BRANCH  12  14
ATOM     14  C   UNL     1       0.344   9.096  19.491  0.00  0.00    +0.000 C 
ATOM     15  C   UNL     1       0.007  10.318  18.616  0.00  0.00    +0.000 C 
ATOM     16  C   UNL     1       0.871  11.529  18.965  0.00  0.00    +0.000 C 
ATOM     17  N   UNL     1       0.709  11.826  20.383  0.00  0.00    +0.000 N 
ATOM     18  C   UNL     1       0.974  13.107  20.844  0.00  0.00    +0.000 A 
ATOM     19  C   UNL     1       1.800  13.998  20.158  0.00  0.00    +0.000 A 
ATOM     20  C   UNL     1       1.901  15.325  20.572  0.00  0.00    +0.000 A 
ATOM     21  C   UNL     1       1.168  15.744  21.670  0.00  0.00    +0.000 A 
ATOM     22  C   UNL     1       0.404  14.800  22.329  0.00  0.00    +0.000 A 
ATOM     23  N   UNL     1       0.314  13.505  21.955  0.00  0.00    +0.000 NA
ATOM     24  C   UNL     1       1.063  10.752  21.304  0.00  0.00    +0.000 C 
ATOM     25  C   UNL     1       0.236   9.511  20.971  0.00  0.00    +0.000 C 
ENDBRANCH  12  14
BRANCH   2  26
ATOM     26  C   UNL     1       3.470   2.544  18.786  0.00  0.00    +0.000 C 
ATOM     27  C   UNL     1       3.958   3.159  17.493  0.00  0.00    +0.000 C 
ATOM     28  C   UNL     1       2.887   2.107  17.456  0.00  0.00    +0.000 C 
ENDBRANCH   2  26
TORSDOF 2
ENDMDL
MODEL 5
REMARK VINA RESULT:      -6.5      5.168      7.006
REMARK  Name = 
REMARK  2 active torsions:
REMARK  status: ('A' for Active; 'I' for Inactive)
REMARK    1  A    between atoms: C_2  and  C_3
REMARK    2  A    between atoms: N_15  and  C_16
REMARK                            x       y       z     vdW  Elec       q    Type
REMARK                         _______ _______ _______ _____ _____    ______ ____
ROOT
ATOM      1  O   UNL     1      -1.280   9.751  17.673  0.00  0.00    +0.000 OA
ATOM      2  C   UNL     1      -2.231  10.479  17.406  0.00  0.00    +0.000 C 
ATOM      3  N   UNL     1      -2.425  11.715  18.023  0.00  0.00    +0.000 N 
ATOM      4  C   UNL     1      -1.356  12.196  18.903  0.00  0.00    +0.000 C 
ATOM      5  C   UNL     1      -1.667  11.895  20.383  0.00  0.00    +0.000 C 
ATOM      6  C   UNL     1      -2.997  12.570  20.694  0.00  0.00    +0.000 C 
ATOM      7  C   UNL     1      -4.075  11.979  19.780  0.00  0.00    +0.000 C 
ATOM      8  C   UNL     1      -3.766  12.259  18.315  0.00  0.00    +0.000 C 
ATOM      9  N   UNL     1      -5.265  12.509  20.362  0.00  0.00    +0.000 N 
ATOM     10  C   UNL     1      -5.059  12.534  21.749  0.00  0.00    +0.000 C 
ATOM     11  O   UNL     1      -5.981  12.529  22.544  0.00  0.00    +0.000 OA
ATOM     12  N   UNL     1      -3.664  12.499  21.985  0.00  0.00    +0.000 N 
ATOM     13  H   UNL     1      -6.200  12.231  20.088  0.00  0.00    +0.000 HD
ENDROOT
BRANCH  12  14
ATOM     14  C   UNL     1      -2.992  12.302  23.290  0.00  0.00    +0.000 C 
ATOM     15  C   UNL     1      -3.696  12.952  24.496  0.00  0.00    +0.000 C 
ATOM     16  C   UNL     1      -3.494  14.466  24.530  0.00  0.00    +0.000 C 
ATOM     17  N   UNL     1      -2.062  14.746  24.531  0.00  0.00    +0.000 N 
ATOM     18  C   UNL     1      -1.607  15.956  25.034  0.00  0.00    +0.000 A 
ATOM     19  C   UNL     1      -2.418  17.089  25.119  0.00  0.00    +0.000 A 
ATOM     20  C   UNL     1      -1.967  18.227  25.784  0.00  0.00    +0.000 A 
ATOM     21  C   UNL     1      -0.707  18.216  26.359  0.00  0.00    +0.000 A 
ATOM     22  C   UNL     1       0.060  17.078  26.198  0.00  0.00    +0.000 A 
ATOM     23  N   UNL     1      -0.352  15.974  25.536  0.00  0.00    +0.000 NA
ATOM     24  C   UNL     1      -1.310  14.226  23.395  0.00  0.00    +0.000 C 
ATOM     25  C   UNL     1      -1.508  12.713  23.311  0.00  0.00    +0.000 C 
ENDBRANCH  12  14
BRANCH   2  26
ATOM     26  C   UNL     1      -3.204  10.070  16.349  0.00  0.00    +0.000 C 
ATOM     27  C   UNL     1      -2.724   9.638  14.982  0.00  0.00    +0.000 C 
ATOM     28  C   UNL     1      -3.398  10.970  15.144  0.00  0.00    +0.000 C 
ENDBRANCH   2  26
TORSDOF 2
ENDMDL
MODEL 6
REMARK VINA RESULT:      -6.4      4.209      6.521
REMARK  Name = 
REMARK  2 active torsions:
REMARK  status: ('A' for Active; 'I' for Inactive)
REMARK    1  A    between atoms: C_2  and  C_3
REMARK    2  A    between atoms: N_15  and  C_16
REMARK                            x       y       z     vdW  Elec       q    Type
REMARK                         _______ _______ _______ _____ _____    ______ ____
ROOT
ATOM      1  O   UNL     1       4.577  15.941  21.328  0.00  0.00    +0.000 OA
ATOM      2  C   UNL     1       4.687  15.757  20.119  0.00  0.00    +0.000 C 
ATOM      3  N   UNL     1       3.589  15.509  19.296  0.00  0.00    +0.000 N 
ATOM      4  C   UNL     1       2.260  15.631  19.903  0.00  0.00    +0.000 C 
ATOM      5  C   UNL     1       1.706  14.255  20.327  0.00  0.00    +0.000 C 
ATOM      6  C   UNL     1       1.673  13.395  19.069  0.00  0.00    +0.000 C 
ATOM      7  C   UNL     1       3.099  13.264  18.525  0.00  0.00    +0.000 C 
ATOM      8  C   UNL     1       3.658  14.621  18.119  0.00  0.00    +0.000 C 
ATOM      9  N   UNL     1       2.935  12.247  17.537  0.00  0.00    +0.000 N 
ATOM     10  C   UNL     1       1.989  11.342  18.042  0.00  0.00    +0.000 C 
ATOM     11  O   UNL     1       1.929  10.187  17.666  0.00  0.00    +0.000 OA
ATOM     12  N   UNL     1       1.241  12.005  19.044  0.00  0.00    +0.000 N 
ATOM     13  H   UNL     1       3.704  11.808  17.044  0.00  0.00    +0.000 HD
ENDROOT
BRANCH  12  14
ATOM     14  C   UNL     1       0.283  11.386  19.988  0.00  0.00    +0.000 C 
ATOM     15  C   UNL     1      -0.539  10.216  19.416  0.00  0.00    +0.000 C 
ATOM     16  C   UNL     1      -1.647  10.696  18.479  0.00  0.00    +0.000 C 
ATOM     17  N   UNL     1      -2.491  11.641  19.201  0.00  0.00    +0.000 N 
ATOM     18  C   UNL     1      -3.796  11.847  18.777  0.00  0.00    +0.000 A 
ATOM     19  C   UNL     1      -4.216  11.574  17.474  0.00  0.00    +0.000 A 
ATOM     20  C   UNL     1      -5.569  11.638  17.144  0.00  0.00    +0.000 A 
ATOM     21  C   UNL     1      -6.486  11.974  18.126  0.00  0.00    +0.000 A 
ATOM     22  C   UNL     1      -5.997  12.275  19.383  0.00  0.00    +0.000 A 
ATOM     23  N   UNL     1      -4.687  12.241  19.714  0.00  0.00    +0.000 NA
ATOM     24  C   UNL     1      -1.819  12.821  19.732  0.00  0.00    +0.000 C 
ATOM     25  C   UNL     1      -0.685  12.381  20.656  0.00  0.00    +0.000 C 
ENDBRANCH  12  14
BRANCH   2  26
ATOM     26  C   UNL     1       6.032  15.846  19.475  0.00  0.00    +0.000 C 
ATOM     27  C   UNL     1       7.178  16.546  20.170  0.00  0.00    +0.000 C 
ATOM     28  C   UNL     1       6.522  17.194  18.985  0.00  0.00    +0.000 C 
ENDBRANCH   2  26
TORSDOF 2
ENDMDL
MODEL 7
REMARK VINA RESULT:      -6.3      1.110      1.144
REMARK  Name = 
REMARK  2 active torsions:
REMARK  status: ('A' for Active; 'I' for Inactive)
REMARK    1  A    between atoms: C_2  and  C_3
REMARK    2  A    between atoms: N_15  and  C_16
REMARK                            x       y       z     vdW  Elec       q    Type
REMARK                         _______ _______ _______ _____ _____    ______ ____
ROOT
ATOM      1  O   UNL     1       4.831   6.947  17.370  0.00  0.00    +0.000 OA
ATOM      2  C   UNL     1       4.192   6.373  18.246  0.00  0.00    +0.000 C 
ATOM      3  N   UNL     1       2.828   6.586  18.442  0.00  0.00    +0.000 N 
ATOM      4  C   UNL     1       2.135   7.417  17.452  0.00  0.00    +0.000 C 
ATOM      5  C   UNL     1       1.993   8.873  17.939  0.00  0.00    +0.000 C 
ATOM      6  C   UNL     1       1.231   8.817  19.258  0.00  0.00    +0.000 C 
ATOM      7  C   UNL     1       2.040   7.985  20.258  0.00  0.00    +0.000 C 
ATOM      8  C   UNL     1       2.198   6.549  19.776  0.00  0.00    +0.000 C 
ATOM      9  N   UNL     1       1.342   8.245  21.476  0.00  0.00    +0.000 N 
ATOM     10  C   UNL     1       0.924   9.583  21.423  0.00  0.00    +0.000 C 
ATOM     11  O   UNL     1       0.683  10.230  22.425  0.00  0.00    +0.000 OA
ATOM     12  N   UNL     1       0.915   9.986  20.066  0.00  0.00    +0.000 N 
ATOM     13  H   UNL     1       1.669   7.951  22.388  0.00  0.00    +0.000 HD
ENDROOT
BRANCH  12  14
ATOM     14  C   UNL     1       0.743  11.364  19.553  0.00  0.00    +0.000 C 
ATOM     15  C   UNL     1       1.231  12.480  20.494  0.00  0.00    +0.000 C 
ATOM     16  C   UNL     1       0.271  12.708  21.661  0.00  0.00    +0.000 C 
ATOM     17  N   UNL     1      -1.054  13.001  21.126  0.00  0.00    +0.000 N 
ATOM     18  C   UNL     1      -1.962  13.702  21.905  0.00  0.00    +0.000 A 
ATOM     19  C   UNL     1      -1.877  13.754  23.298  0.00  0.00    +0.000 A 
ATOM     20  C   UNL     1      -2.710  14.605  24.021  0.00  0.00    +0.000 A 
ATOM     21  C   UNL     1      -3.618  15.397  23.340  0.00  0.00    +0.000 A 
ATOM     22  C   UNL     1      -3.680  15.264  21.966  0.00  0.00    +0.000 A 
ATOM     23  N   UNL     1      -2.897  14.426  21.250  0.00  0.00    +0.000 NA
ATOM     24  C   UNL     1      -1.636  11.975  20.268  0.00  0.00    +0.000 C 
ATOM     25  C   UNL     1      -0.690  11.700  19.100  0.00  0.00    +0.000 C 
ENDBRANCH  12  14
BRANCH   2  26
ATOM     26  C   UNL     1       4.869   5.365  19.117  0.00  0.00    +0.000 C 
ATOM     27  C   UNL     1       6.170   4.722  18.690  0.00  0.00    +0.000 C 
ATOM     28  C   UNL     1       4.903   3.916  18.671  0.00  0.00    +0.000 C 
ENDBRANCH   2  26
TORSDOF 2
ENDMDL
MODEL 8
REMARK VINA RESULT:      -6.1      1.757      2.009
REMARK  Name = 
REMARK  2 active torsions:
REMARK  status: ('A' for Active; 'I' for Inactive)
REMARK    1  A    between atoms: C_2  and  C_3
REMARK    2  A    between atoms: N_15  and  C_16
REMARK                            x       y       z     vdW  Elec       q    Type
REMARK                         _______ _______ _______ _____ _____    ______ ____
ROOT
ATOM      1  O   UNL     1       4.314   6.437  17.356  0.00  0.00    +0.000 OA
ATOM      2  C   UNL     1       3.868   6.078  18.441  0.00  0.00    +0.000 C 
ATOM      3  N   UNL     1       2.542   6.297  18.816  0.00  0.00    +0.000 N 
ATOM      4  C   UNL     1       1.642   6.840  17.794  0.00  0.00    +0.000 C 
ATOM      5  C   UNL     1       1.481   8.366  17.938  0.00  0.00    +0.000 C 
ATOM      6  C   UNL     1       0.950   8.616  19.345  0.00  0.00    +0.000 C 
ATOM      7  C   UNL     1       1.966   8.077  20.357  0.00  0.00    +0.000 C 
ATOM      8  C   UNL     1       2.141   6.571  20.209  0.00  0.00    +0.000 C 
ATOM      9  N   UNL     1       1.460   8.610  21.581  0.00  0.00    +0.000 N 
ATOM     10  C   UNL     1       0.947   9.882  21.285  0.00  0.00    +0.000 C 
ATOM     11  O   UNL     1       0.829  10.748  22.132  0.00  0.00    +0.000 OA
ATOM     12  N   UNL     1       0.690   9.938  19.895  0.00  0.00    +0.000 N 
ATOM     13  H   UNL     1       1.950   8.557  22.466  0.00  0.00    +0.000 HD
ENDROOT
BRANCH  12  14
ATOM     14  C   UNL     1       0.343  11.143  19.107  0.00  0.00    +0.000 C 
ATOM     15  C   UNL     1      -0.456  12.217  19.869  0.00  0.00    +0.000 C 
ATOM     16  C   UNL     1      -1.919  11.819  20.057  0.00  0.00    +0.000 C 
ATOM     17  N   UNL     1      -2.501  11.547  18.748  0.00  0.00    +0.000 N 
ATOM     18  C   UNL     1      -3.875  11.643  18.582  0.00  0.00    +0.000 A 
ATOM     19  C   UNL     1      -4.771  11.534  19.648  0.00  0.00    +0.000 A 
ATOM     20  C   UNL     1      -6.125  11.804  19.457  0.00  0.00    +0.000 A 
ATOM     21  C   UNL     1      -6.566  12.181  18.200  0.00  0.00    +0.000 A 
ATOM     22  C   UNL     1      -5.633  12.226  17.181  0.00  0.00    +0.000 A 
ATOM     23  N   UNL     1      -4.321  11.945  17.343  0.00  0.00    +0.000 NA
ATOM     24  C   UNL     1      -1.855  10.499  17.968  0.00  0.00    +0.000 C 
ATOM     25  C   UNL     1      -0.380  10.849  17.779  0.00  0.00    +0.000 C 
ENDBRANCH  12  14
BRANCH   2  26
ATOM     26  C   UNL     1       4.745   5.335  19.394  0.00  0.00    +0.000 C 
ATOM     27  C   UNL     1       6.000   4.642  18.912  0.00  0.00    +0.000 C 
ATOM     28  C   UNL     1       4.806   3.822  19.307  0.00  0.00    +0.000 C 
ENDBRANCH   2  26
TORSDOF 2
ENDMDL
MODEL 9
REMARK VINA RESULT:      -6.0      2.917      3.854
REMARK  Name = 
REMARK  2 active torsions:
REMARK  status: ('A' for Active; 'I' for Inactive)
REMARK    1  A    between atoms: C_2  and  C_3
REMARK    2  A    between atoms: N_15  and  C_16
REMARK                            x       y       z     vdW  Elec       q    Type
REMARK                         _______ _______ _______ _____ _____    ______ ____
ROOT
ATOM      1  O   UNL     1       1.283   5.530  20.391  0.00  0.00    +0.000 OA
ATOM      2  C   UNL     1       1.842   6.226  19.549  0.00  0.00    +0.000 C 
ATOM      3  N   UNL     1       2.116   7.578  19.756  0.00  0.00    +0.000 N 
ATOM      4  C   UNL     1       1.850   8.115  21.095  0.00  0.00    +0.000 C 
ATOM      5  C   UNL     1       0.483   8.826  21.155  0.00  0.00    +0.000 C 
ATOM      6  C   UNL     1       0.522   9.930  20.105  0.00  0.00    +0.000 C 
ATOM      7  C   UNL     1       0.744   9.293  18.729  0.00  0.00    +0.000 C 
ATOM      8  C   UNL     1       2.085   8.575  18.668  0.00  0.00    +0.000 C 
ATOM      9  N   UNL     1       0.496  10.398  17.860  0.00  0.00    +0.000 N 
ATOM     10  C   UNL     1      -0.539  11.145  18.442  0.00  0.00    +0.000 C 
ATOM     11  O   UNL     1      -1.256  11.880  17.789  0.00  0.00    +0.000 OA
ATOM     12  N   UNL     1      -0.593  10.820  19.818  0.00  0.00    +0.000 N 
ATOM     13  H   UNL     1       0.435  10.321  16.852  0.00  0.00    +0.000 HD
ENDROOT
BRANCH  12  14
ATOM     14  C   UNL     1      -1.654  11.206  20.777  0.00  0.00    +0.000 C 
ATOM     15  C   UNL     1      -2.386  12.521  20.451  0.00  0.00    +0.000 C 
ATOM     16  C   UNL     1      -1.534  13.748  20.776  0.00  0.00    +0.000 C 
ATOM     17  N   UNL     1      -1.143  13.686  22.180  0.00  0.00    +0.000 N 
ATOM     18  C   UNL     1      -0.801  14.856  22.842  0.00  0.00    +0.000 A 
ATOM     19  C   UNL     1      -0.371  16.002  22.171  0.00  0.00    +0.000 A 
ATOM     20  C   UNL     1      -0.201  17.199  22.864  0.00  0.00    +0.000 A 
ATOM     21  C   UNL     1      -0.467  17.234  24.222  0.00  0.00    +0.000 A 
ATOM     22  C   UNL     1      -0.846  16.054  24.831  0.00  0.00    +0.000 A 
ATOM     23  N   UNL     1      -0.993  14.879  24.180  0.00  0.00    +0.000 NA
ATOM     24  C   UNL     1      -0.387  12.505  22.580  0.00  0.00    +0.000 C 
ATOM     25  C   UNL     1      -1.197  11.252  22.247  0.00  0.00    +0.000 C 
ENDBRANCH  12  14
BRANCH   2  26
ATOM     26  C   UNL     1       2.299   5.614  18.266  0.00  0.00    +0.000 C 
ATOM     27  C   UNL     1       1.862   4.221  17.873  0.00  0.00    +0.000 C 
ATOM     28  C   UNL     1       3.277   4.456  18.314  0.00  0.00    +0.000 C 
ENDBRANCH   2  26
TORSDOF 2
ENDMDL
